MODEL 1
REMARK VINA RESULT:      -7.9      0.000      0.000
REMARK  Name = 
REMARK  8 active torsions:
REMARK  status: ('A' for Active; 'I' for Inactive)
REMARK    1  A    between atoms: C_1  and  C_2
REMARK    2  A    between atoms: C_2  and  C_3
REMARK    3  A    between atoms: C_3  and  N_4
REMARK    4  A    between atoms: C_5  and  C_7
REMARK    5  A    between atoms: C_11  and  C_12
REMARK    6  A    between atoms: C_12  and  N_13
REMARK    7  A    between atoms: C_15  and  C_16
REMARK    8  A    between atoms: C_19  and  C_20
REMARK                            x       y       z     vdW  Elec       q    Type
REMARK                         _______ _______ _______ _____ _____    ______ ____
ROOT
ATOM      1  C   UNL     1       6.558   4.819  15.789  0.00  0.00    +0.000 A 
ATOM      2  C   UNL     1       7.493   4.687  16.821  0.00  0.00    +0.000 A 
ATOM      3  C   UNL     1       7.066   4.694  18.145  0.00  0.00    +0.000 A 
ATOM      4  C   UNL     1       5.703   4.786  18.439  0.00  0.00    +0.000 A 
ATOM      5  C   UNL     1       4.751   4.914  17.415  0.00  0.00    +0.000 A 
ATOM      6  C   UNL     1       5.201   4.995  16.089  0.00  0.00    +0.000 A 
ENDROOT
BRANCH   1   8
ATOM      7  N   UNL     1       6.222   3.791  13.628  0.00  0.00    +0.000 N 
ATOM      8  C   UNL     1       6.962   4.694  14.366  0.00  0.00    +0.000 C 
ATOM      9  O   UNL     1       7.854   5.395  13.907  0.00  0.00    +0.000 OA
ATOM     10  H   UNL     1       5.434   3.322  14.056  0.00  0.00    +0.000 HD
BRANCH   7  11
ATOM     11  C   UNL     1       6.474   3.549  12.226  0.00  0.00    +0.000 C 
BRANCH  11  13
ATOM     12  C   UNL     1       6.726   1.328  11.076  0.00  0.00    +0.000 C 
ATOM     13  C   UNL     1       5.764   2.284  11.758  0.00  0.00    +0.000 C 
ENDBRANCH  11  13
ENDBRANCH   7  11
ENDBRANCH   1   8
BRANCH   5  14
ATOM     14  C   UNL     1       3.274   4.882  17.733  0.00  0.00    +0.000 C 
BRANCH  14  15
ATOM     15  N   UNL     1       2.825   6.109  18.402  0.00  0.00    +0.000 N 
ATOM     16  N   UNL     1       2.728   7.252  17.673  0.00  0.00    +0.000 NA
ATOM     17  C   UNL     1       2.200   8.146  18.527  0.00  0.00    +0.000 A 
ATOM     18  C   UNL     1       1.940   9.546  18.101  0.00  0.00    +0.000 C 
ATOM     19  C   UNL     1       1.948   7.560  19.777  0.00  0.00    +0.000 A 
ATOM     20 BR   UNL     1       1.167   8.434  21.241  0.00  0.00    +0.000 Br
ATOM     21  C   UNL     1       2.366   6.252  19.696  0.00  0.00    +0.000 A 
ATOM     22  C   UNL     1       2.352   5.172  20.709  0.00  0.00    +0.000 C 
ENDBRANCH  14  15
ENDBRANCH   5  14
TORSDOF 5
ENDMDL
MODEL 2
REMARK VINA RESULT:      -7.6      0.843      1.032
REMARK  Name = 
REMARK  8 active torsions:
REMARK  status: ('A' for Active; 'I' for Inactive)
REMARK    1  A    between atoms: C_1  and  C_2
REMARK    2  A    between atoms: C_2  and  C_3
REMARK    3  A    between atoms: C_3  and  N_4
REMARK    4  A    between atoms: C_5  and  C_7
REMARK    5  A    between atoms: C_11  and  C_12
REMARK    6  A    between atoms: C_12  and  N_13
REMARK    7  A    between atoms: C_15  and  C_16
REMARK    8  A    between atoms: C_19  and  C_20
REMARK                            x       y       z     vdW  Elec       q    Type
REMARK                         _______ _______ _______ _____ _____    ______ ____
ROOT
ATOM      1  C   UNL     1       6.254   4.656  15.457  0.00  0.00    +0.000 A 
ATOM      2  C   UNL     1       7.329   4.582  16.350  0.00  0.00    +0.000 A 
ATOM      3  C   UNL     1       7.090   4.609  17.720  0.00  0.00    +0.000 A 
ATOM      4  C   UNL     1       5.779   4.663  18.200  0.00  0.00    +0.000 A 
ATOM      5  C   UNL     1       4.689   4.732  17.317  0.00  0.00    +0.000 A 
ATOM      6  C   UNL     1       4.947   4.794  15.939  0.00  0.00    +0.000 A 
ENDROOT
BRANCH   1   8
ATOM      7  N   UNL     1       5.548   3.690  13.358  0.00  0.00    +0.000 N 
ATOM      8  C   UNL     1       6.462   4.507  13.994  0.00  0.00    +0.000 C 
ATOM      9  O   UNL     1       7.353   5.123  13.424  0.00  0.00    +0.000 OA
ATOM     10  H   UNL     1       4.778   3.296  13.882  0.00  0.00    +0.000 HD
BRANCH   7  11
ATOM     11  C   UNL     1       5.596   3.440  11.935  0.00  0.00    +0.000 C 
BRANCH  11  13
ATOM     12  C   UNL     1       3.627   3.779  10.410  0.00  0.00    +0.000 C 
ATOM     13  C   UNL     1       4.272   2.869  11.441  0.00  0.00    +0.000 C 
ENDBRANCH  11  13
ENDBRANCH   7  11
ENDBRANCH   1   8
BRANCH   5  14
ATOM     14  C   UNL     1       3.274   4.659  17.840  0.00  0.00    +0.000 C 
BRANCH  14  15
ATOM     15  N   UNL     1       2.845   5.920  18.457  0.00  0.00    +0.000 N 
ATOM     16  N   UNL     1       2.827   7.047  17.698  0.00  0.00    +0.000 NA
ATOM     17  C   UNL     1       2.298   7.982  18.505  0.00  0.00    +0.000 A 
ATOM     18  C   UNL     1       2.114   9.380  18.035  0.00  0.00    +0.000 C 
ATOM     19  C   UNL     1       1.968   7.440  19.756  0.00  0.00    +0.000 A 
ATOM     20 BR   UNL     1       1.159   8.380  21.163  0.00  0.00    +0.000 Br
ATOM     21  C   UNL     1       2.336   6.114  19.726  0.00  0.00    +0.000 A 
ATOM     22  C   UNL     1       2.234   5.062  20.763  0.00  0.00    +0.000 C 
ENDBRANCH  14  15
ENDBRANCH   5  14
TORSDOF 5
ENDMDL
MODEL 3
REMARK VINA RESULT:      -7.5      1.935      2.954
REMARK  Name = 
REMARK  8 active torsions:
REMARK  status: ('A' for Active; 'I' for Inactive)
REMARK    1  A    between atoms: C_1  and  C_2
REMARK    2  A    between atoms: C_2  and  C_3
REMARK    3  A    between atoms: C_3  and  N_4
REMARK    4  A    between atoms: C_5  and  C_7
REMARK    5  A    between atoms: C_11  and  C_12
REMARK    6  A    between atoms: C_12  and  N_13
REMARK    7  A    between atoms: C_15  and  C_16
REMARK    8  A    between atoms: C_19  and  C_20
REMARK                            x       y       z     vdW  Elec       q    Type
REMARK                         _______ _______ _______ _____ _____    ______ ____
ROOT
ATOM      1  C   UNL     1       6.635   5.511  15.667  0.00  0.00    +0.000 A 
ATOM      2  C   UNL     1       7.579   5.581  16.697  0.00  0.00    +0.000 A 
ATOM      3  C   UNL     1       7.167   5.877  17.992  0.00  0.00    +0.000 A 
ATOM      4  C   UNL     1       5.809   6.057  18.269  0.00  0.00    +0.000 A 
ATOM      5  C   UNL     1       4.848   5.984  17.248  0.00  0.00    +0.000 A 
ATOM      6  C   UNL     1       5.285   5.773  15.932  0.00  0.00    +0.000 A 
ENDROOT
BRANCH   1   8
ATOM      7  N   UNL     1       6.200   4.121  13.739  0.00  0.00    +0.000 N 
ATOM      8  C   UNL     1       7.022   5.079  14.300  0.00  0.00    +0.000 C 
ATOM      9  O   UNL     1       7.972   5.596  13.728  0.00  0.00    +0.000 OA
ATOM     10  H   UNL     1       5.375   3.815  14.237  0.00  0.00    +0.000 HD
BRANCH   7  11
ATOM     11  C   UNL     1       6.425   3.593  12.413  0.00  0.00    +0.000 C 
BRANCH  11  13
ATOM     12  C   UNL     1       4.177   3.355  11.312  0.00  0.00    +0.000 C 
ATOM     13  C   UNL     1       5.311   2.631  12.017  0.00  0.00    +0.000 C 
ENDBRANCH  11  13
ENDBRANCH   7  11
ENDBRANCH   1   8
BRANCH   5  14
ATOM     14  C   UNL     1       3.375   6.050  17.576  0.00  0.00    +0.000 C 
BRANCH  14  15
ATOM     15  N   UNL     1       2.925   4.881  18.342  0.00  0.00    +0.000 N 
ATOM     16  N   UNL     1       3.194   3.640  17.860  0.00  0.00    +0.000 NA
ATOM     17  C   UNL     1       2.759   2.809  18.822  0.00  0.00    +0.000 A 
ATOM     18  C   UNL     1       2.872   1.335  18.665  0.00  0.00    +0.000 C 
ATOM     19  C   UNL     1       2.239   3.526  19.910  0.00  0.00    +0.000 A 
ATOM     20 BR   UNL     1       1.572   2.762  21.488  0.00  0.00    +0.000 Br
ATOM     21  C   UNL     1       2.334   4.861  19.590  0.00  0.00    +0.000 A 
ATOM     22  C   UNL     1       1.935   6.065  20.353  0.00  0.00    +0.000 C 
ENDBRANCH  14  15
ENDBRANCH   5  14
TORSDOF 5
ENDMDL
MODEL 4
REMARK VINA RESULT:      -7.3      2.617      4.106
REMARK  Name = 
REMARK  8 active torsions:
REMARK  status: ('A' for Active; 'I' for Inactive)
REMARK    1  A    between atoms: C_1  and  C_2
REMARK    2  A    between atoms: C_2  and  C_3
REMARK    3  A    between atoms: C_3  and  N_4
REMARK    4  A    between atoms: C_5  and  C_7
REMARK    5  A    between atoms: C_11  and  C_12
REMARK    6  A    between atoms: C_12  and  N_13
REMARK    7  A    between atoms: C_15  and  C_16
REMARK    8  A    between atoms: C_19  and  C_20
REMARK                            x       y       z     vdW  Elec       q    Type
REMARK                         _______ _______ _______ _____ _____    ______ ____
ROOT
ATOM      1  C   UNL     1       5.912   3.788  12.617  0.00  0.00    +0.000 A 
ATOM      2  C   UNL     1       7.043   4.486  12.181  0.00  0.00    +0.000 A 
ATOM      3  C   UNL     1       7.869   5.112  13.110  0.00  0.00    +0.000 A 
ATOM      4  C   UNL     1       7.592   5.003  14.475  0.00  0.00    +0.000 A 
ATOM      5  C   UNL     1       6.464   4.302  14.929  0.00  0.00    +0.000 A 
ATOM      6  C   UNL     1       5.591   3.750  13.979  0.00  0.00    +0.000 A 
ENDROOT
BRANCH   1   8
ATOM      7  N   UNL     1       4.048   3.714  11.081  0.00  0.00    +0.000 N 
ATOM      8  C   UNL     1       5.080   3.007  11.667  0.00  0.00    +0.000 C 
ATOM      9  O   UNL     1       5.354   1.842  11.409  0.00  0.00    +0.000 OA
ATOM     10  H   UNL     1       3.947   4.702  11.271  0.00  0.00    +0.000 HD
BRANCH   7  11
ATOM     11  C   UNL     1       3.145   3.113  10.127  0.00  0.00    +0.000 C 
BRANCH  11  13
ATOM     12  C   UNL     1       2.033   5.134   9.129  0.00  0.00    +0.000 C 
ATOM     13  C   UNL     1       3.002   3.990   8.889  0.00  0.00    +0.000 C 
ENDBRANCH  11  13
ENDBRANCH   7  11
ENDBRANCH   1   8
BRANCH   5  14
ATOM     14  C   UNL     1       6.244   4.079  16.407  0.00  0.00    +0.000 C 
BRANCH  14  15
ATOM     15  N   UNL     1       4.995   4.689  16.879  0.00  0.00    +0.000 N 
ATOM     16  N   UNL     1       3.921   3.889  17.106  0.00  0.00    +0.000 NA
ATOM     17  C   UNL     1       2.994   4.714  17.621  0.00  0.00    +0.000 A 
ATOM     18  C   UNL     1       1.649   4.209  18.002  0.00  0.00    +0.000 C 
ATOM     19  C   UNL     1       3.492   6.021  17.736  0.00  0.00    +0.000 A 
ATOM     20 BR   UNL     1       2.551   7.476  18.454  0.00  0.00    +0.000 Br
ATOM     21  C   UNL     1       4.777   6.004  17.243  0.00  0.00    +0.000 A 
ATOM     22  C   UNL     1       5.772   7.091  17.109  0.00  0.00    +0.000 C 
ENDBRANCH  14  15
ENDBRANCH   5  14
TORSDOF 5
ENDMDL
MODEL 5
REMARK VINA RESULT:      -7.1      3.071      5.081
REMARK  Name = 
REMARK  8 active torsions:
REMARK  status: ('A' for Active; 'I' for Inactive)
REMARK    1  A    between atoms: C_1  and  C_2
REMARK    2  A    between atoms: C_2  and  C_3
REMARK    3  A    between atoms: C_3  and  N_4
REMARK    4  A    between atoms: C_5  and  C_7
REMARK    5  A    between atoms: C_11  and  C_12
REMARK    6  A    between atoms: C_12  and  N_13
REMARK    7  A    between atoms: C_15  and  C_16
REMARK    8  A    between atoms: C_19  and  C_20
REMARK                            x       y       z     vdW  Elec       q    Type
REMARK                         _______ _______ _______ _____ _____    ______ ____
ROOT
ATOM      1  C   UNL     1       6.841   5.033  16.978  0.00  0.00    +0.000 A 
ATOM      2  C   UNL     1       7.362   4.809  15.699  0.00  0.00    +0.000 A 
ATOM      3  C   UNL     1       6.570   4.206  14.728  0.00  0.00    +0.000 A 
ATOM      4  C   UNL     1       5.246   3.868  15.016  0.00  0.00    +0.000 A 
ATOM      5  C   UNL     1       4.706   4.091  16.293  0.00  0.00    +0.000 A 
ATOM      6  C   UNL     1       5.541   4.618  17.290  0.00  0.00    +0.000 A 
ENDROOT
BRANCH   1   8
ATOM      7  N   UNL     1       7.706   7.144  17.778  0.00  0.00    +0.000 N 
ATOM      8  C   UNL     1       7.614   5.783  18.000  0.00  0.00    +0.000 C 
ATOM      9  O   UNL     1       8.072   5.211  18.980  0.00  0.00    +0.000 OA
ATOM     10  H   UNL     1       7.214   7.557  16.996  0.00  0.00    +0.000 HD
BRANCH   7  11
ATOM     11  C   UNL     1       8.414   8.026  18.676  0.00  0.00    +0.000 C 
BRANCH  11  13
ATOM     12  C   UNL     1       9.270  10.367  19.006  0.00  0.00    +0.000 C 
ATOM     13  C   UNL     1       8.426   9.452  18.136  0.00  0.00    +0.000 C 
ENDBRANCH  11  13
ENDBRANCH   7  11
ENDBRANCH   1   8
BRANCH   5  14
ATOM     14  C   UNL     1       3.240   3.844  16.559  0.00  0.00    +0.000 C 
BRANCH  14  15
ATOM     15  N   UNL     1       2.910   3.950  17.986  0.00  0.00    +0.000 N 
ATOM     16  N   UNL     1       2.462   5.139  18.466  0.00  0.00    +0.000 NA
ATOM     17  C   UNL     1       2.153   4.884  19.749  0.00  0.00    +0.000 A 
ATOM     18  C   UNL     1       1.624   5.954  20.635  0.00  0.00    +0.000 C 
ATOM     19  C   UNL     1       2.386   3.536  20.064  0.00  0.00    +0.000 A 
ATOM     20 BR   UNL     1       2.041   2.741  21.727  0.00  0.00    +0.000 Br
ATOM     21  C   UNL     1       2.888   2.942  18.929  0.00  0.00    +0.000 A 
ATOM     22  C   UNL     1       3.318   1.547  18.683  0.00  0.00    +0.000 C 
ENDBRANCH  14  15
ENDBRANCH   5  14
TORSDOF 5
ENDMDL
MODEL 6
REMARK VINA RESULT:      -7.0      1.524      2.492
REMARK  Name = 
REMARK  8 active torsions:
REMARK  status: ('A' for Active; 'I' for Inactive)
REMARK    1  A    between atoms: C_1  and  C_2
REMARK    2  A    between atoms: C_2  and  C_3
REMARK    3  A    between atoms: C_3  and  N_4
REMARK    4  A    between atoms: C_5  and  C_7
REMARK    5  A    between atoms: C_11  and  C_12
REMARK    6  A    between atoms: C_12  and  N_13
REMARK    7  A    between atoms: C_15  and  C_16
REMARK    8  A    between atoms: C_19  and  C_20
REMARK                            x       y       z     vdW  Elec       q    Type
REMARK                         _______ _______ _______ _____ _____    ______ ____
ROOT
ATOM      1  C   UNL     1       6.562   4.627  15.501  0.00  0.00    +0.000 A 
ATOM      2  C   UNL     1       7.410   4.807  16.598  0.00  0.00    +0.000 A 
ATOM      3  C   UNL     1       6.923   4.607  17.887  0.00  0.00    +0.000 A 
ATOM      4  C   UNL     1       5.606   4.183  18.078  0.00  0.00    +0.000 A 
ATOM      5  C   UNL     1       4.743   3.993  16.986  0.00  0.00    +0.000 A 
ATOM      6  C   UNL     1       5.219   4.284  15.699  0.00  0.00    +0.000 A 
ENDROOT
BRANCH   1   8
ATOM      7  N   UNL     1       6.534   3.796  13.232  0.00  0.00    +0.000 N 
ATOM      8  C   UNL     1       7.077   4.713  14.111  0.00  0.00    +0.000 C 
ATOM      9  O   UNL     1       7.882   5.580  13.796  0.00  0.00    +0.000 OA
ATOM     10  H   UNL     1       5.800   3.176  13.546  0.00  0.00    +0.000 HD
BRANCH   7  11
ATOM     11  C   UNL     1       6.916   3.743  11.839  0.00  0.00    +0.000 C 
BRANCH  11  13
ATOM     12  C   UNL     1       5.825   1.545  11.292  0.00  0.00    +0.000 C 
ATOM     13  C   UNL     1       7.138   2.302  11.393  0.00  0.00    +0.000 C 
ENDBRANCH  11  13
ENDBRANCH   7  11
ENDBRANCH   1   8
BRANCH   5  14
ATOM     14  C   UNL     1       3.364   3.412  17.192  0.00  0.00    +0.000 C 
BRANCH  14  15
ATOM     15  N   UNL     1       2.725   3.920  18.412  0.00  0.00    +0.000 N 
ATOM     16  N   UNL     1       2.517   3.063  19.446  0.00  0.00    +0.000 NA
ATOM     17  C   UNL     1       2.028   3.841  20.427  0.00  0.00    +0.000 A 
ATOM     18  C   UNL     1       1.660   3.263  21.747  0.00  0.00    +0.000 C 
ATOM     19  C   UNL     1       1.950   5.180  20.018  0.00  0.00    +0.000 A 
ATOM     20 BR   UNL     1       1.374   6.607  21.090  0.00  0.00    +0.000 Br
ATOM     21  C   UNL     1       2.387   5.225  18.713  0.00  0.00    +0.000 A 
ATOM     22  C   UNL     1       2.511   6.365  17.778  0.00  0.00    +0.000 C 
ENDBRANCH  14  15
ENDBRANCH   5  14
TORSDOF 5
ENDMDL
MODEL 7
REMARK VINA RESULT:      -6.9      3.783      7.153
REMARK  Name = 
REMARK  8 active torsions:
REMARK  status: ('A' for Active; 'I' for Inactive)
REMARK    1  A    between atoms: C_1  and  C_2
REMARK    2  A    between atoms: C_2  and  C_3
REMARK    3  A    between atoms: C_3  and  N_4
REMARK    4  A    between atoms: C_5  and  C_7
REMARK    5  A    between atoms: C_11  and  C_12
REMARK    6  A    between atoms: C_12  and  N_13
REMARK    7  A    between atoms: C_15  and  C_16
REMARK    8  A    between atoms: C_19  and  C_20
REMARK                            x       y       z     vdW  Elec       q    Type
REMARK                         _______ _______ _______ _____ _____    ______ ____
ROOT
ATOM      1  C   UNL     1       3.291   6.143  19.202  0.00  0.00    +0.000 A 
ATOM      2  C   UNL     1       2.800   7.201  18.429  0.00  0.00    +0.000 A 
ATOM      3  C   UNL     1       3.559   7.693  17.371  0.00  0.00    +0.000 A 
ATOM      4  C   UNL     1       4.784   7.101  17.056  0.00  0.00    +0.000 A 
ATOM      5  C   UNL     1       5.288   6.035  17.818  0.00  0.00    +0.000 A 
ATOM      6  C   UNL     1       4.556   5.606  18.935  0.00  0.00    +0.000 A 
ENDROOT
BRANCH   1   8
ATOM      7  N   UNL     1       2.851   4.243  20.628  0.00  0.00    +0.000 N 
ATOM      8  C   UNL     1       2.458   5.514  20.258  0.00  0.00    +0.000 C 
ATOM      9  O   UNL     1       1.535   6.130  20.774  0.00  0.00    +0.000 OA
ATOM     10  H   UNL     1       3.686   3.840  20.224  0.00  0.00    +0.000 HD
BRANCH   7  11
ATOM     11  C   UNL     1       2.158   3.487  21.646  0.00  0.00    +0.000 C 
BRANCH  11  13
ATOM     12  C   UNL     1       1.615   2.160  19.581  0.00  0.00    +0.000 C 
ATOM     13  C   UNL     1       1.222   2.462  21.017  0.00  0.00    +0.000 C 
ENDBRANCH  11  13
ENDBRANCH   7  11
ENDBRANCH   1   8
BRANCH   5  14
ATOM     14  C   UNL     1       6.548   5.318  17.393  0.00  0.00    +0.000 C 
BRANCH  14  15
ATOM     15  N   UNL     1       6.574   5.052  15.950  0.00  0.00    +0.000 N 
ATOM     16  N   UNL     1       7.543   5.634  15.195  0.00  0.00    +0.000 NA
ATOM     17  C   UNL     1       7.362   5.118  13.968  0.00  0.00    +0.000 A 
ATOM     18  C   UNL     1       8.237   5.519  12.835  0.00  0.00    +0.000 C 
ATOM     19  C   UNL     1       6.300   4.202  13.958  0.00  0.00    +0.000 A 
ATOM     20 BR   UNL     1       5.741   3.212  12.466  0.00  0.00    +0.000 Br
ATOM     21  C   UNL     1       5.785   4.173  15.234  0.00  0.00    +0.000 A 
ATOM     22  C   UNL     1       4.658   3.400  15.800  0.00  0.00    +0.000 C 
ENDBRANCH  14  15
ENDBRANCH   5  14
TORSDOF 5
ENDMDL
MODEL 8
REMARK VINA RESULT:      -6.9      2.287      3.085
REMARK  Name = 
REMARK  8 active torsions:
REMARK  status: ('A' for Active; 'I' for Inactive)
REMARK    1  A    between atoms: C_1  and  C_2
REMARK    2  A    between atoms: C_2  and  C_3
REMARK    3  A    between atoms: C_3  and  N_4
REMARK    4  A    between atoms: C_5  and  C_7
REMARK    5  A    between atoms: C_11  and  C_12
REMARK    6  A    between atoms: C_12  and  N_13
REMARK    7  A    between atoms: C_15  and  C_16
REMARK    8  A    between atoms: C_19  and  C_20
REMARK                            x       y       z     vdW  Elec       q    Type
REMARK                         _______ _______ _______ _____ _____    ______ ____
ROOT
ATOM      1  C   UNL     1       6.812   5.093  16.225  0.00  0.00    +0.000 A 
ATOM      2  C   UNL     1       7.794   4.729  17.152  0.00  0.00    +0.000 A 
ATOM      3  C   UNL     1       7.551   4.885  18.513  0.00  0.00    +0.000 A 
ATOM      4  C   UNL     1       6.312   5.360  18.952  0.00  0.00    +0.000 A 
ATOM      5  C   UNL     1       5.313   5.725  18.034  0.00  0.00    +0.000 A 
ATOM      6  C   UNL     1       5.603   5.647  16.664  0.00  0.00    +0.000 A 
ENDROOT
BRANCH   1   8
ATOM      7  N   UNL     1       6.162   3.850  14.258  0.00  0.00    +0.000 N 
ATOM      8  C   UNL     1       6.989   4.827  14.775  0.00  0.00    +0.000 C 
ATOM      9  O   UNL     1       7.781   5.485  14.113  0.00  0.00    +0.000 OA
ATOM     10  H   UNL     1       5.463   3.421  14.850  0.00  0.00    +0.000 HD
BRANCH   7  11
ATOM     11  C   UNL     1       6.195   3.469  12.865  0.00  0.00    +0.000 C 
BRANCH  11  13
ATOM     12  C   UNL     1       4.601   2.637  11.108  0.00  0.00    +0.000 C 
ATOM     13  C   UNL     1       4.824   3.644  12.223  0.00  0.00    +0.000 C 
ENDBRANCH  11  13
ENDBRANCH   7  11
ENDBRANCH   1   8
BRANCH   5  14
ATOM     14  C   UNL     1       3.935   6.113  18.516  0.00  0.00    +0.000 C 
BRANCH  14  15
ATOM     15  N   UNL     1       3.191   4.966  19.050  0.00  0.00    +0.000 N 
ATOM     16  N   UNL     1       3.072   4.833  20.397  0.00  0.00    +0.000 NA
ATOM     17  C   UNL     1       2.264   3.771  20.556  0.00  0.00    +0.000 A 
ATOM     18  C   UNL     1       1.890   3.293  21.913  0.00  0.00    +0.000 C 
ATOM     19  C   UNL     1       1.863   3.254  19.315  0.00  0.00    +0.000 A 
ATOM     20 BR   UNL     1       0.694   1.807  19.075  0.00  0.00    +0.000 Br
ATOM     21  C   UNL     1       2.475   4.017  18.347  0.00  0.00    +0.000 A 
ATOM     22  C   UNL     1       2.422   3.924  16.871  0.00  0.00    +0.000 C 
ENDBRANCH  14  15
ENDBRANCH   5  14
TORSDOF 5
ENDMDL
MODEL 9
REMARK VINA RESULT:      -6.8      1.574      1.970
REMARK  Name = 
REMARK  8 active torsions:
REMARK  status: ('A' for Active; 'I' for Inactive)
REMARK    1  A    between atoms: C_1  and  C_2
REMARK    2  A    between atoms: C_2  and  C_3
REMARK    3  A    between atoms: C_3  and  N_4
REMARK    4  A    between atoms: C_5  and  C_7
REMARK    5  A    between atoms: C_11  and  C_12
REMARK    6  A    between atoms: C_12  and  N_13
REMARK    7  A    between atoms: C_15  and  C_16
REMARK    8  A    between atoms: C_19  and  C_20
REMARK                            x       y       z     vdW  Elec       q    Type
REMARK                         _______ _______ _______ _____ _____    ______ ____
ROOT
ATOM      1  C   UNL     1       6.799   5.244  15.489  0.00  0.00    +0.000 A 
ATOM      2  C   UNL     1       7.474   4.697  16.585  0.00  0.00    +0.000 A 
ATOM      3  C   UNL     1       7.007   4.937  17.873  0.00  0.00    +0.000 A 
ATOM      4  C   UNL     1       5.841   5.683  18.066  0.00  0.00    +0.000 A 
ATOM      5  C   UNL     1       5.149   6.234  16.976  0.00  0.00    +0.000 A 
ATOM      6  C   UNL     1       5.679   6.060  15.689  0.00  0.00    +0.000 A 
ENDROOT
BRANCH   1   8
ATOM      7  N   UNL     1       6.371   4.004  13.459  0.00  0.00    +0.000 N 
ATOM      8  C   UNL     1       7.197   4.909  14.098  0.00  0.00    +0.000 C 
ATOM      9  O   UNL     1       8.158   5.456  13.575  0.00  0.00    +0.000 OA
ATOM     10  H   UNL     1       5.537   3.671  13.925  0.00  0.00    +0.000 HD
BRANCH   7  11
ATOM     11  C   UNL     1       6.605   3.572  12.101  0.00  0.00    +0.000 C 
BRANCH  11  13
ATOM     12  C   UNL     1       6.515   1.323  10.981  0.00  0.00    +0.000 C 
ATOM     13  C   UNL     1       5.735   2.369  11.757  0.00  0.00    +0.000 C 
ENDBRANCH  11  13
ENDBRANCH   7  11
ENDBRANCH   1   8
BRANCH   5  14
ATOM     14  C   UNL     1       3.822   6.927  17.182  0.00  0.00    +0.000 C 
BRANCH  14  15
ATOM     15  N   UNL     1       3.065   6.353  18.301  0.00  0.00    +0.000 N 
ATOM     16  N   UNL     1       2.637   7.178  19.292  0.00  0.00    +0.000 NA
ATOM     17  C   UNL     1       1.901   6.384  20.089  0.00  0.00    +0.000 A 
ATOM     18  C   UNL     1       1.252   6.923  21.313  0.00  0.00    +0.000 C 
ATOM     19  C   UNL     1       1.852   5.074  19.589  0.00  0.00    +0.000 A 
ATOM     20 BR   UNL     1       0.894   3.659  20.361  0.00  0.00    +0.000 Br
ATOM     21  C   UNL     1       2.616   5.055  18.445  0.00  0.00    +0.000 A 
ATOM     22  C   UNL     1       2.927   3.948  17.513  0.00  0.00    +0.000 C 
ENDBRANCH  14  15
ENDBRANCH   5  14
TORSDOF 5
ENDMDL
