MODEL 1
REMARK VINA RESULT:      -7.4      0.000      0.000
REMARK  Name = 
REMARK  6 active torsions:
REMARK  status: ('A' for Active; 'I' for Inactive)
REMARK    1  A    between atoms: C_1  and  O_2
REMARK    2  A    between atoms: O_2  and  C_3
REMARK    3  A    between atoms: C_3  and  C_5
REMARK    4  A    between atoms: C_9  and  C_11
REMARK    5  A    between atoms: C_17  and  C_18
REMARK    6  A    between atoms: C_21  and  C_22
REMARK                            x       y       z     vdW  Elec       q    Type
REMARK                         _______ _______ _______ _____ _____    ______ ____
ROOT
ATOM      1  C   UNL     1      -0.030   9.846  19.758  0.00  0.00    +0.000 C 
ATOM      2  C   UNL     1      -0.202   8.690  20.750  0.00  0.00    +0.000 C 
ATOM      3  C   UNL     1       1.144   8.162  21.239  0.00  0.00    +0.000 C 
ATOM      4  N   UNL     1       1.981   7.776  20.105  0.00  0.00    +0.000 N 
ATOM      5  C   UNL     1       2.362   6.429  19.984  0.00  0.00    +0.000 C 
ATOM      6  O   UNL     1       1.946   5.603  20.802  0.00  0.00    +0.000 OA
ATOM      7  C   UNL     1       2.251   8.860  19.158  0.00  0.00    +0.000 C 
ATOM      8  C   UNL     1       0.948   9.469  18.638  0.00  0.00    +0.000 C 
ENDROOT
BRANCH   5   9
ATOM      9  C   UNL     1       3.209   5.988  18.880  0.00  0.00    +0.000 A 
ATOM     10  O   UNL     1       4.513   6.388  18.783  0.00  0.00    +0.000 OA
ATOM     11  C   UNL     1       5.044   5.832  17.661  0.00  0.00    +0.000 A 
ATOM     12  C   UNL     1       6.330   6.034  17.163  0.00  0.00    +0.000 A 
ATOM     13 CL   UNL     1       7.443   7.093  17.929  0.00  0.00    +0.000 Cl
ATOM     14  C   UNL     1       6.685   5.346  15.997  0.00  0.00    +0.000 A 
ATOM     15  C   UNL     1       5.779   4.486  15.360  0.00  0.00    +0.000 A 
ATOM     16  C   UNL     1       6.174   3.727  14.126  0.00  0.00    +0.000 C 
ATOM     17  C   UNL     1       4.481   4.320  15.882  0.00  0.00    +0.000 A 
ATOM     18  C   UNL     1       4.107   5.009  17.052  0.00  0.00    +0.000 A 
ATOM     19  C   UNL     1       2.924   5.097  17.847  0.00  0.00    +0.000 A 
ATOM     20  C   UNL     1       1.632   4.400  17.617  0.00  0.00    +0.000 C 
ENDBRANCH   5   9
BRANCH   1  21
ATOM     21  C   UNL     1       0.386  11.125  20.468  0.00  0.00    +0.000 C 
ATOM     22  O   UNL     1       0.391  11.292  21.681  0.00  0.00    +0.000 OA
BRANCH  21  24
ATOM     23  C   UNL     1       1.800  12.942  20.012  0.00  0.00    +0.000 C 
ATOM     24  O   UNL     1       0.783  12.052  19.551  0.00  0.00    +0.000 OA
ENDBRANCH  21  24
ENDBRANCH   1  21
TORSDOF 3
ENDMDL
MODEL 2
REMARK VINA RESULT:      -6.7      2.624      7.486
REMARK  Name = 
REMARK  6 active torsions:
REMARK  status: ('A' for Active; 'I' for Inactive)
REMARK    1  A    between atoms: C_1  and  O_2
REMARK    2  A    between atoms: O_2  and  C_3
REMARK    3  A    between atoms: C_3  and  C_5
REMARK    4  A    between atoms: C_9  and  C_11
REMARK    5  A    between atoms: C_17  and  C_18
REMARK    6  A    between atoms: C_21  and  C_22
REMARK                            x       y       z     vdW  Elec       q    Type
REMARK                         _______ _______ _______ _____ _____    ______ ____
ROOT
ATOM      1  C   UNL     1       6.838   4.820  16.316  0.00  0.00    +0.000 C 
ATOM      2  C   UNL     1       6.022   3.557  16.615  0.00  0.00    +0.000 C 
ATOM      3  C   UNL     1       4.534   3.771  16.349  0.00  0.00    +0.000 C 
ATOM      4  N   UNL     1       4.043   4.920  17.106  0.00  0.00    +0.000 N 
ATOM      5  C   UNL     1       3.054   4.704  18.081  0.00  0.00    +0.000 C 
ATOM      6  O   UNL     1       2.663   3.555  18.306  0.00  0.00    +0.000 OA
ATOM      7  C   UNL     1       4.729   6.178  16.808  0.00  0.00    +0.000 C 
ATOM      8  C   UNL     1       6.238   6.042  17.021  0.00  0.00    +0.000 C 
ENDROOT
BRANCH   5   9
ATOM      9  C   UNL     1       2.515   5.815  18.859  0.00  0.00    +0.000 A 
ATOM     10  O   UNL     1       2.309   7.042  18.292  0.00  0.00    +0.000 OA
ATOM     11  C   UNL     1       1.813   7.872  19.249  0.00  0.00    +0.000 A 
ATOM     12  C   UNL     1       1.522   9.228  19.104  0.00  0.00    +0.000 A 
ATOM     13 CL   UNL     1       1.805  10.062  17.631  0.00  0.00    +0.000 Cl
ATOM     14  C   UNL     1       0.996   9.896  20.216  0.00  0.00    +0.000 A 
ATOM     15  C   UNL     1       0.771   9.223  21.425  0.00  0.00    +0.000 A 
ATOM     16  C   UNL     1       0.178   9.939  22.605  0.00  0.00    +0.000 C 
ATOM     17  C   UNL     1       1.093   7.858  21.541  0.00  0.00    +0.000 A 
ATOM     18  C   UNL     1       1.627   7.171  20.433  0.00  0.00    +0.000 A 
ATOM     19  C   UNL     1       2.067   5.837  20.178  0.00  0.00    +0.000 A 
ATOM     20  C   UNL     1       2.073   4.695  21.129  0.00  0.00    +0.000 C 
ENDBRANCH   5   9
BRANCH   1  21
ATOM     21  C   UNL     1       6.983   5.042  14.818  0.00  0.00    +0.000 C 
ATOM     22  O   UNL     1       7.912   5.625  14.276  0.00  0.00    +0.000 OA
BRANCH  21  24
ATOM     23  C   UNL     1       6.298   3.747  12.985  0.00  0.00    +0.000 C 
ATOM     24  O   UNL     1       5.936   4.464  14.165  0.00  0.00    +0.000 OA
ENDBRANCH  21  24
ENDBRANCH   1  21
TORSDOF 3
ENDMDL
MODEL 3
REMARK VINA RESULT:      -6.7      2.596      7.457
REMARK  Name = 
REMARK  6 active torsions:
REMARK  status: ('A' for Active; 'I' for Inactive)
REMARK    1  A    between atoms: C_1  and  O_2
REMARK    2  A    between atoms: O_2  and  C_3
REMARK    3  A    between atoms: C_3  and  C_5
REMARK    4  A    between atoms: C_9  and  C_11
REMARK    5  A    between atoms: C_17  and  C_18
REMARK    6  A    between atoms: C_21  and  C_22
REMARK                            x       y       z     vdW  Elec       q    Type
REMARK                         _______ _______ _______ _____ _____    ______ ____
ROOT
ATOM      1  C   UNL     1       6.706   4.764  17.301  0.00  0.00    +0.000 C 
ATOM      2  C   UNL     1       5.575   3.802  16.920  0.00  0.00    +0.000 C 
ATOM      3  C   UNL     1       4.353   4.551  16.393  0.00  0.00    +0.000 C 
ATOM      4  N   UNL     1       3.908   5.546  17.365  0.00  0.00    +0.000 N 
ATOM      5  C   UNL     1       2.626   5.407  17.924  0.00  0.00    +0.000 C 
ATOM      6  O   UNL     1       1.933   4.430  17.622  0.00  0.00    +0.000 OA
ATOM      7  C   UNL     1       4.920   6.546  17.712  0.00  0.00    +0.000 C 
ATOM      8  C   UNL     1       6.196   5.876  18.225  0.00  0.00    +0.000 C 
ENDROOT
BRANCH   5   9
ATOM      9  C   UNL     1       2.122   6.378  18.890  0.00  0.00    +0.000 A 
ATOM     10  O   UNL     1       1.912   7.682  18.539  0.00  0.00    +0.000 OA
ATOM     11  C   UNL     1       1.453   8.346  19.633  0.00  0.00    +0.000 A 
ATOM     12  C   UNL     1       1.171   9.709  19.721  0.00  0.00    +0.000 A 
ATOM     13 CL   UNL     1       1.418  10.772  18.396  0.00  0.00    +0.000 Cl
ATOM     14  C   UNL     1       0.686  10.189  20.943  0.00  0.00    +0.000 A 
ATOM     15  C   UNL     1       0.490   9.329  22.032  0.00  0.00    +0.000 A 
ATOM     16  C   UNL     1      -0.059   9.845  23.331  0.00  0.00    +0.000 C 
ATOM     17  C   UNL     1       0.802   7.961  21.913  0.00  0.00    +0.000 A 
ATOM     18  C   UNL     1       1.296   7.463  20.692  0.00  0.00    +0.000 A 
ATOM     19  C   UNL     1       1.715   6.186  20.209  0.00  0.00    +0.000 A 
ATOM     20  C   UNL     1       1.738   4.903  20.959  0.00  0.00    +0.000 C 
ENDBRANCH   5   9
BRANCH   1  21
ATOM     21  C   UNL     1       7.394   5.324  16.064  0.00  0.00    +0.000 C 
ATOM     22  O   UNL     1       7.853   6.454  15.961  0.00  0.00    +0.000 OA
BRANCH  21  24
ATOM     23  C   UNL     1       7.081   4.818  13.795  0.00  0.00    +0.000 C 
ATOM     24  O   UNL     1       7.451   4.365  15.097  0.00  0.00    +0.000 OA
ENDBRANCH  21  24
ENDBRANCH   1  21
TORSDOF 3
ENDMDL
MODEL 4
REMARK VINA RESULT:      -6.7      3.309      7.967
REMARK  Name = 
REMARK  6 active torsions:
REMARK  status: ('A' for Active; 'I' for Inactive)
REMARK    1  A    between atoms: C_1  and  O_2
REMARK    2  A    between atoms: O_2  and  C_3
REMARK    3  A    between atoms: C_3  and  C_5
REMARK    4  A    between atoms: C_9  and  C_11
REMARK    5  A    between atoms: C_17  and  C_18
REMARK    6  A    between atoms: C_21  and  C_22
REMARK                            x       y       z     vdW  Elec       q    Type
REMARK                         _______ _______ _______ _____ _____    ______ ____
ROOT
ATOM      1  C   UNL     1       1.726   3.521  19.606  0.00  0.00    +0.000 C 
ATOM      2  C   UNL     1       2.559   4.219  18.525  0.00  0.00    +0.000 C 
ATOM      3  C   UNL     1       3.319   5.418  19.087  0.00  0.00    +0.000 C 
ATOM      4  N   UNL     1       2.395   6.346  19.736  0.00  0.00    +0.000 N 
ATOM      5  C   UNL     1       2.271   7.643  19.210  0.00  0.00    +0.000 C 
ATOM      6  O   UNL     1       2.901   7.950  18.193  0.00  0.00    +0.000 OA
ATOM      7  C   UNL     1       1.625   5.760  20.835  0.00  0.00    +0.000 C 
ATOM      8  C   UNL     1       0.851   4.527  20.363  0.00  0.00    +0.000 C 
ENDROOT
BRANCH   5   9
ATOM      9  C   UNL     1       1.375   8.617  19.825  0.00  0.00    +0.000 A 
ATOM     10  O   UNL     1       1.264   8.718  21.184  0.00  0.00    +0.000 OA
ATOM     11  C   UNL     1       0.360   9.694  21.463  0.00  0.00    +0.000 A 
ATOM     12  C   UNL     1      -0.090  10.074  22.727  0.00  0.00    +0.000 A 
ATOM     13 CL   UNL     1       0.448   9.287  24.154  0.00  0.00    +0.000 Cl
ATOM     14  C   UNL     1      -1.014  11.124  22.794  0.00  0.00    +0.000 A 
ATOM     15  C   UNL     1      -1.464  11.766  21.632  0.00  0.00    +0.000 A 
ATOM     16  C   UNL     1      -2.433  12.911  21.712  0.00  0.00    +0.000 C 
ATOM     17  C   UNL     1      -1.003  11.344  20.370  0.00  0.00    +0.000 A 
ATOM     18  C   UNL     1      -0.077  10.286  20.286  0.00  0.00    +0.000 A 
ATOM     19  C   UNL     1       0.590   9.600  19.226  0.00  0.00    +0.000 A 
ATOM     20  C   UNL     1       0.465   9.859  17.768  0.00  0.00    +0.000 C 
ENDBRANCH   5   9
BRANCH   1  21
ATOM     21  C   UNL     1       2.608   2.714  20.548  0.00  0.00    +0.000 C 
ATOM     22  O   UNL     1       2.475   2.651  21.763  0.00  0.00    +0.000 OA
BRANCH  21  24
ATOM     23  C   UNL     1       4.807   1.897  20.497  0.00  0.00    +0.000 C 
ATOM     24  O   UNL     1       3.554   2.045  19.830  0.00  0.00    +0.000 OA
ENDBRANCH  21  24
ENDBRANCH   1  21
TORSDOF 3
ENDMDL
MODEL 5
REMARK VINA RESULT:      -6.3      3.235      5.112
REMARK  Name = 
REMARK  6 active torsions:
REMARK  status: ('A' for Active; 'I' for Inactive)
REMARK    1  A    between atoms: C_1  and  O_2
REMARK    2  A    between atoms: O_2  and  C_3
REMARK    3  A    between atoms: C_3  and  C_5
REMARK    4  A    between atoms: C_9  and  C_11
REMARK    5  A    between atoms: C_17  and  C_18
REMARK    6  A    between atoms: C_21  and  C_22
REMARK                            x       y       z     vdW  Elec       q    Type
REMARK                         _______ _______ _______ _____ _____    ______ ____
ROOT
ATOM      1  C   UNL     1      -3.405  11.123  18.101  0.00  0.00    +0.000 C 
ATOM      2  C   UNL     1      -2.479  12.154  18.755  0.00  0.00    +0.000 C 
ATOM      3  C   UNL     1      -1.051  12.046  18.224  0.00  0.00    +0.000 C 
ATOM      4  N   UNL     1      -0.547  10.686  18.396  0.00  0.00    +0.000 N 
ATOM      5  C   UNL     1       0.566  10.487  19.231  0.00  0.00    +0.000 C 
ATOM      6  O   UNL     1       1.055  11.448  19.832  0.00  0.00    +0.000 OA
ATOM      7  C   UNL     1      -1.344   9.657  17.725  0.00  0.00    +0.000 C 
ATOM      8  C   UNL     1      -2.804   9.714  18.181  0.00  0.00    +0.000 C 
ENDROOT
BRANCH   5   9
ATOM      9  C   UNL     1       1.123   9.152  19.429  0.00  0.00    +0.000 A 
ATOM     10  O   UNL     1       2.108   8.668  18.614  0.00  0.00    +0.000 OA
ATOM     11  C   UNL     1       2.419   7.410  19.029  0.00  0.00    +0.000 A 
ATOM     12  C   UNL     1       3.332   6.541  18.432  0.00  0.00    +0.000 A 
ATOM     13 CL   UNL     1       4.189   6.965  17.008  0.00  0.00    +0.000 Cl
ATOM     14  C   UNL     1       3.519   5.292  19.035  0.00  0.00    +0.000 A 
ATOM     15  C   UNL     1       2.816   4.934  20.193  0.00  0.00    +0.000 A 
ATOM     16  C   UNL     1       3.043   3.604  20.853  0.00  0.00    +0.000 C 
ATOM     17  C   UNL     1       1.888   5.831  20.758  0.00  0.00    +0.000 A 
ATOM     18  C   UNL     1       1.685   7.090  20.162  0.00  0.00    +0.000 A 
ATOM     19  C   UNL     1       0.856   8.221  20.431  0.00  0.00    +0.000 A 
ATOM     20  C   UNL     1      -0.118   8.379  21.542  0.00  0.00    +0.000 C 
ENDBRANCH   5   9
BRANCH   1  21
ATOM     21  C   UNL     1      -3.745  11.515  16.671  0.00  0.00    +0.000 C 
ATOM     22  O   UNL     1      -3.004  11.385  15.706  0.00  0.00    +0.000 OA
BRANCH  21  24
ATOM     23  C   UNL     1      -5.740  11.900  17.846  0.00  0.00    +0.000 C 
ATOM     24  O   UNL     1      -5.016  12.006  16.620  0.00  0.00    +0.000 OA
ENDBRANCH  21  24
ENDBRANCH   1  21
TORSDOF 3
ENDMDL
MODEL 6
REMARK VINA RESULT:      -6.2      4.409      8.796
REMARK  Name = 
REMARK  6 active torsions:
REMARK  status: ('A' for Active; 'I' for Inactive)
REMARK    1  A    between atoms: C_1  and  O_2
REMARK    2  A    between atoms: O_2  and  C_3
REMARK    3  A    between atoms: C_3  and  C_5
REMARK    4  A    between atoms: C_9  and  C_11
REMARK    5  A    between atoms: C_17  and  C_18
REMARK    6  A    between atoms: C_21  and  C_22
REMARK                            x       y       z     vdW  Elec       q    Type
REMARK                         _______ _______ _______ _____ _____    ______ ____
ROOT
ATOM      1  C   UNL     1       6.071   3.769  11.898  0.00  0.00    +0.000 C 
ATOM      2  C   UNL     1       7.181   4.736  12.324  0.00  0.00    +0.000 C 
ATOM      3  C   UNL     1       7.741   4.379  13.699  0.00  0.00    +0.000 C 
ATOM      4  N   UNL     1       6.667   4.325  14.687  0.00  0.00    +0.000 N 
ATOM      5  C   UNL     1       6.698   5.234  15.759  0.00  0.00    +0.000 C 
ATOM      6  O   UNL     1       7.597   6.080  15.812  0.00  0.00    +0.000 OA
ATOM      7  C   UNL     1       5.610   3.359  14.379  0.00  0.00    +0.000 C 
ATOM      8  C   UNL     1       5.011   3.628  12.997  0.00  0.00    +0.000 C 
ENDROOT
BRANCH   5   9
ATOM      9  C   UNL     1       5.660   5.218  16.784  0.00  0.00    +0.000 A 
ATOM     10  O   UNL     1       5.549   4.177  17.663  0.00  0.00    +0.000 OA
ATOM     11  C   UNL     1       4.498   4.431  18.488  0.00  0.00    +0.000 A 
ATOM     12  C   UNL     1       4.006   3.593  19.489  0.00  0.00    +0.000 A 
ATOM     13 CL   UNL     1       4.684   2.045  19.789  0.00  0.00    +0.000 Cl
ATOM     14  C   UNL     1       2.921   4.058  20.242  0.00  0.00    +0.000 A 
ATOM     15  C   UNL     1       2.356   5.317  19.996  0.00  0.00    +0.000 A 
ATOM     16  C   UNL     1       1.212   5.822  20.827  0.00  0.00    +0.000 C 
ATOM     17  C   UNL     1       2.867   6.129  18.965  0.00  0.00    +0.000 A 
ATOM     18  C   UNL     1       3.956   5.675  18.196  0.00  0.00    +0.000 A 
ATOM     19  C   UNL     1       4.715   6.192  17.103  0.00  0.00    +0.000 A 
ATOM     20  C   UNL     1       4.532   7.498  16.418  0.00  0.00    +0.000 C 
ENDBRANCH   5   9
BRANCH   1  21
ATOM     21  C   UNL     1       6.642   2.422  11.483  0.00  0.00    +0.000 C 
ATOM     22  O   UNL     1       7.821   2.195  11.249  0.00  0.00    +0.000 OA
BRANCH  21  24
ATOM     23  C   UNL     1       6.093   0.154  11.230  0.00  0.00    +0.000 C 
ATOM     24  O   UNL     1       5.645   1.493  11.442  0.00  0.00    +0.000 OA
ENDBRANCH  21  24
ENDBRANCH   1  21
TORSDOF 3
ENDMDL
MODEL 7
REMARK VINA RESULT:      -6.1      2.737      3.701
REMARK  Name = 
REMARK  6 active torsions:
REMARK  status: ('A' for Active; 'I' for Inactive)
REMARK    1  A    between atoms: C_1  and  O_2
REMARK    2  A    between atoms: O_2  and  C_3
REMARK    3  A    between atoms: C_3  and  C_5
REMARK    4  A    between atoms: C_9  and  C_11
REMARK    5  A    between atoms: C_17  and  C_18
REMARK    6  A    between atoms: C_21  and  C_22
REMARK                            x       y       z     vdW  Elec       q    Type
REMARK                         _______ _______ _______ _____ _____    ______ ____
ROOT
ATOM      1  C   UNL     1      -1.547  11.346  19.585  0.00  0.00    +0.000 C 
ATOM      2  C   UNL     1      -0.992  11.290  21.012  0.00  0.00    +0.000 C 
ATOM      3  C   UNL     1       0.517  11.050  21.020  0.00  0.00    +0.000 C 
ATOM      4  N   UNL     1       0.842   9.840  20.268  0.00  0.00    +0.000 N 
ATOM      5  C   UNL     1       1.442   8.769  20.953  0.00  0.00    +0.000 C 
ATOM      6  O   UNL     1       1.632   8.856  22.170  0.00  0.00    +0.000 OA
ATOM      7  C   UNL     1       0.408   9.863  18.870  0.00  0.00    +0.000 C 
ATOM      8  C   UNL     1      -1.095  10.129  18.769  0.00  0.00    +0.000 C 
ENDROOT
BRANCH   5   9
ATOM      9  C   UNL     1       1.803   7.542  20.251  0.00  0.00    +0.000 A 
ATOM     10  O   UNL     1       1.519   6.314  20.780  0.00  0.00    +0.000 OA
ATOM     11  C   UNL     1       1.975   5.366  19.917  0.00  0.00    +0.000 A 
ATOM     12  C   UNL     1       1.940   3.985  20.106  0.00  0.00    +0.000 A 
ATOM     13 CL   UNL     1       1.315   3.282  21.541  0.00  0.00    +0.000 Cl
ATOM     14  C   UNL     1       2.448   3.182  19.078  0.00  0.00    +0.000 A 
ATOM     15  C   UNL     1       2.968   3.748  17.907  0.00  0.00    +0.000 A 
ATOM     16  C   UNL     1       3.484   2.880  16.795  0.00  0.00    +0.000 C 
ATOM     17  C   UNL     1       3.005   5.148  17.758  0.00  0.00    +0.000 A 
ATOM     18  C   UNL     1       2.502   5.971  18.784  0.00  0.00    +0.000 A 
ATOM     19  C   UNL     1       2.379   7.378  18.992  0.00  0.00    +0.000 A 
ATOM     20  C   UNL     1       2.796   8.464  18.068  0.00  0.00    +0.000 C 
ENDBRANCH   5   9
BRANCH   1  21
ATOM     21  C   UNL     1      -1.182  12.656  18.902  0.00  0.00    +0.000 C 
ATOM     22  O   UNL     1      -0.951  12.790  17.708  0.00  0.00    +0.000 OA
BRANCH  21  24
ATOM     23  C   UNL     1      -0.404  14.803  19.441  0.00  0.00    +0.000 C 
ATOM     24  O   UNL     1      -1.182  13.666  19.816  0.00  0.00    +0.000 OA
ENDBRANCH  21  24
ENDBRANCH   1  21
TORSDOF 3
ENDMDL
MODEL 8
REMARK VINA RESULT:      -6.1      3.347      8.080
REMARK  Name = 
REMARK  6 active torsions:
REMARK  status: ('A' for Active; 'I' for Inactive)
REMARK    1  A    between atoms: C_1  and  O_2
REMARK    2  A    between atoms: O_2  and  C_3
REMARK    3  A    between atoms: C_3  and  C_5
REMARK    4  A    between atoms: C_9  and  C_11
REMARK    5  A    between atoms: C_17  and  C_18
REMARK    6  A    between atoms: C_21  and  C_22
REMARK                            x       y       z     vdW  Elec       q    Type
REMARK                         _______ _______ _______ _____ _____    ______ ____
ROOT
ATOM      1  C   UNL     1       1.655   3.929  19.475  0.00  0.00    +0.000 C 
ATOM      2  C   UNL     1       2.522   4.645  18.433  0.00  0.00    +0.000 C 
ATOM      3  C   UNL     1       3.238   5.854  19.030  0.00  0.00    +0.000 C 
ATOM      4  N   UNL     1       2.273   6.764  19.643  0.00  0.00    +0.000 N 
ATOM      5  C   UNL     1       2.151   8.061  19.117  0.00  0.00    +0.000 C 
ATOM      6  O   UNL     1       2.818   8.382  18.128  0.00  0.00    +0.000 OA
ATOM      7  C   UNL     1       1.467   6.162  20.706  0.00  0.00    +0.000 C 
ATOM      8  C   UNL     1       0.734   4.918  20.198  0.00  0.00    +0.000 C 
ENDROOT
BRANCH   5   9
ATOM      9  C   UNL     1       1.215   9.019  19.697  0.00  0.00    +0.000 A 
ATOM     10  O   UNL     1       0.274   9.644  18.929  0.00  0.00    +0.000 OA
ATOM     11  C   UNL     1      -0.442  10.477  19.731  0.00  0.00    +0.000 A 
ATOM     12  C   UNL     1      -1.459  11.344  19.333  0.00  0.00    +0.000 A 
ATOM     13 CL   UNL     1      -1.926  11.497  17.688  0.00  0.00    +0.000 Cl
ATOM     14  C   UNL     1      -2.084  12.104  20.328  0.00  0.00    +0.000 A 
ATOM     15  C   UNL     1      -1.702  11.991  21.672  0.00  0.00    +0.000 A 
ATOM     16  C   UNL     1      -2.397  12.786  22.739  0.00  0.00    +0.000 C 
ATOM     17  C   UNL     1      -0.659  11.118  22.036  0.00  0.00    +0.000 A 
ATOM     18  C   UNL     1      -0.016  10.350  21.046  0.00  0.00    +0.000 A 
ATOM     19  C   UNL     1       1.047   9.396  21.028  0.00  0.00    +0.000 A 
ATOM     20  C   UNL     1       1.839   8.910  22.188  0.00  0.00    +0.000 C 
ENDBRANCH   5   9
BRANCH   1  21
ATOM     21  C   UNL     1       2.510   3.133  20.450  0.00  0.00    +0.000 C 
ATOM     22  O   UNL     1       2.456   3.216  21.670  0.00  0.00    +0.000 OA
BRANCH  21  24
ATOM     23  C   UNL     1       4.648   2.181  20.286  0.00  0.00    +0.000 C 
ATOM     24  O   UNL     1       3.325   2.286  19.761  0.00  0.00    +0.000 OA
ENDBRANCH  21  24
ENDBRANCH   1  21
TORSDOF 3
ENDMDL
MODEL 9
REMARK VINA RESULT:      -6.0      3.194      5.065
REMARK  Name = 
REMARK  6 active torsions:
REMARK  status: ('A' for Active; 'I' for Inactive)
REMARK    1  A    between atoms: C_1  and  O_2
REMARK    2  A    between atoms: O_2  and  C_3
REMARK    3  A    between atoms: C_3  and  C_5
REMARK    4  A    between atoms: C_9  and  C_11
REMARK    5  A    between atoms: C_17  and  C_18
REMARK    6  A    between atoms: C_21  and  C_22
REMARK                            x       y       z     vdW  Elec       q    Type
REMARK                         _______ _______ _______ _____ _____    ______ ____
ROOT
ATOM      1  C   UNL     1      -3.473  11.052  18.140  0.00  0.00    +0.000 C 
ATOM      2  C   UNL     1      -2.575  12.095  18.814  0.00  0.00    +0.000 C 
ATOM      3  C   UNL     1      -1.146  12.038  18.279  0.00  0.00    +0.000 C 
ATOM      4  N   UNL     1      -0.604  10.689  18.420  0.00  0.00    +0.000 N 
ATOM      5  C   UNL     1       0.517  10.503  19.249  0.00  0.00    +0.000 C 
ATOM      6  O   UNL     1       0.980  11.465  19.869  0.00  0.00    +0.000 OA
ATOM      7  C   UNL     1      -1.373   9.653  17.730  0.00  0.00    +0.000 C 
ATOM      8  C   UNL     1      -2.833   9.660  18.188  0.00  0.00    +0.000 C 
ENDROOT
BRANCH   5   9
ATOM      9  C   UNL     1       1.111   9.181  19.417  0.00  0.00    +0.000 A 
ATOM     10  O   UNL     1       2.078   8.725  18.566  0.00  0.00    +0.000 OA
ATOM     11  C   UNL     1       2.433   7.473  18.960  0.00  0.00    +0.000 A 
ATOM     12  C   UNL     1       3.344   6.629  18.326  0.00  0.00    +0.000 A 
ATOM     13 CL   UNL     1       4.143   7.083  16.877  0.00  0.00    +0.000 Cl
ATOM     14  C   UNL     1       3.581   5.380  18.913  0.00  0.00    +0.000 A 
ATOM     15  C   UNL     1       2.926   4.999  20.092  0.00  0.00    +0.000 A 
ATOM     16  C   UNL     1       3.206   3.670  20.732  0.00  0.00    +0.000 C 
ATOM     17  C   UNL     1       1.998   5.869  20.695  0.00  0.00    +0.000 A 
ATOM     18  C   UNL     1       1.745   7.127  20.115  0.00  0.00    +0.000 A 
ATOM     19  C   UNL     1       0.900   8.237  20.421  0.00  0.00    +0.000 A 
ATOM     20  C   UNL     1      -0.039   8.365  21.565  0.00  0.00    +0.000 C 
ENDBRANCH   5   9
BRANCH   1  21
ATOM     21  C   UNL     1      -3.828  11.466  16.719  0.00  0.00    +0.000 C 
ATOM     22  O   UNL     1      -4.810  12.120  16.398  0.00  0.00    +0.000 OA
BRANCH  21  24
ATOM     23  C   UNL     1      -3.374  10.392  14.683  0.00  0.00    +0.000 C 
ATOM     24  O   UNL     1      -2.868  11.023  15.859  0.00  0.00    +0.000 OA
ENDBRANCH  21  24
ENDBRANCH   1  21
TORSDOF 3
ENDMDL
