MODEL 1
REMARK VINA RESULT:      -6.9      0.000      0.000
REMARK  Name = 
REMARK  2 active torsions:
REMARK  status: ('A' for Active; 'I' for Inactive)
REMARK    1  A    between atoms: C_2  and  C_4
REMARK    2  A    between atoms: C_10  and  N_11
REMARK                            x       y       z     vdW  Elec       q    Type
REMARK                         _______ _______ _______ _____ _____    ______ ____
ROOT
ATOM      1  C   UNL     1       3.448   3.752  19.100  0.00  0.00    +0.000 A 
ATOM      2  C   UNL     1       2.276   3.848  19.873  0.00  0.00    +0.000 A 
ATOM      3  C   UNL     1       1.733   5.094  20.150  0.00  0.00    +0.000 A 
ATOM      4  F   UNL     1       0.620   5.177  20.891  0.00  0.00    +0.000 F 
ATOM      5  C   UNL     1       2.340   6.249  19.695  0.00  0.00    +0.000 A 
ATOM      6  C   UNL     1       3.508   6.159  18.933  0.00  0.00    +0.000 A 
ATOM      7  C   UNL     1       4.093   4.919  18.601  0.00  0.00    +0.000 A 
ENDROOT
BRANCH   7   8
ATOM      8  N   UNL     1       5.250   4.883  17.838  0.00  0.00    +0.000 N 
ATOM      9  C   UNL     1       6.541   5.392  18.328  0.00  0.00    +0.000 C 
ATOM     10  C   UNL     1       7.690   4.571  17.689  0.00  0.00    +0.000 C 
ATOM     11  N   UNL     1       7.650   4.519  16.211  0.00  0.00    +0.000 NA
ATOM     12  C   UNL     1       6.313   4.052  15.777  0.00  0.00    +0.000 C 
ATOM     13  C   UNL     1       5.157   4.892  16.367  0.00  0.00    +0.000 C 
ATOM     14  H   UNL     1       8.338   3.834  15.897  0.00  0.00    +0.000 HD
ENDBRANCH   7   8
BRANCH   1  16
ATOM     15  N   UNL     1       4.983   2.012  19.844  0.00  0.00    +0.000 N 
ATOM     16  C   UNL     1       4.022   2.381  18.939  0.00  0.00    +0.000 C 
ATOM     17  O   UNL     1       3.688   1.598  18.060  0.00  0.00    +0.000 OA
ATOM     18  H   UNL     1       5.354   1.074  19.761  0.00  0.00    +0.000 HD
ATOM     19  H   UNL     1       5.246   2.565  20.646  0.00  0.00    +0.000 HD
ENDBRANCH   1  16
TORSDOF 2
ENDMDL
MODEL 2
REMARK VINA RESULT:      -6.5      2.318      3.028
REMARK  Name = 
REMARK  2 active torsions:
REMARK  status: ('A' for Active; 'I' for Inactive)
REMARK    1  A    between atoms: C_2  and  C_4
REMARK    2  A    between atoms: C_10  and  N_11
REMARK                            x       y       z     vdW  Elec       q    Type
REMARK                         _______ _______ _______ _____ _____    ______ ____
ROOT
ATOM      1  C   UNL     1       2.650   4.867  18.484  0.00  0.00    +0.000 A 
ATOM      2  C   UNL     1       1.490   4.126  18.774  0.00  0.00    +0.000 A 
ATOM      3  C   UNL     1       1.425   2.783  18.431  0.00  0.00    +0.000 A 
ATOM      4  F   UNL     1       0.314   2.086  18.707  0.00  0.00    +0.000 F 
ATOM      5  C   UNL     1       2.478   2.165  17.785  0.00  0.00    +0.000 A 
ATOM      6  C   UNL     1       3.629   2.899  17.488  0.00  0.00    +0.000 A 
ATOM      7  C   UNL     1       3.761   4.261  17.832  0.00  0.00    +0.000 A 
ENDROOT
BRANCH   7   8
ATOM      8  N   UNL     1       4.926   4.943  17.520  0.00  0.00    +0.000 N 
ATOM      9  C   UNL     1       5.814   5.512  18.547  0.00  0.00    +0.000 C 
ATOM     10  C   UNL     1       7.276   5.484  18.032  0.00  0.00    +0.000 C 
ATOM     11  N   UNL     1       7.470   6.140  16.720  0.00  0.00    +0.000 NA
ATOM     12  C   UNL     1       6.516   5.565  15.743  0.00  0.00    +0.000 C 
ATOM     13  C   UNL     1       5.047   5.630  16.221  0.00  0.00    +0.000 C 
ATOM     14  H   UNL     1       8.414   5.931  16.395  0.00  0.00    +0.000 HD
ENDBRANCH   7   8
BRANCH   1  16
ATOM     15  N   UNL     1       2.642   6.675  20.118  0.00  0.00    +0.000 N 
ATOM     16  C   UNL     1       2.593   6.329  18.792  0.00  0.00    +0.000 C 
ATOM     17  O   UNL     1       2.502   7.205  17.943  0.00  0.00    +0.000 OA
ATOM     18  H   UNL     1       2.636   7.663  20.333  0.00  0.00    +0.000 HD
ATOM     19  H   UNL     1       2.807   6.019  20.867  0.00  0.00    +0.000 HD
ENDBRANCH   1  16
TORSDOF 2
ENDMDL
MODEL 3
REMARK VINA RESULT:      -6.5      2.413      3.319
REMARK  Name = 
REMARK  2 active torsions:
REMARK  status: ('A' for Active; 'I' for Inactive)
REMARK    1  A    between atoms: C_2  and  C_4
REMARK    2  A    between atoms: C_10  and  N_11
REMARK                            x       y       z     vdW  Elec       q    Type
REMARK                         _______ _______ _______ _____ _____    ______ ____
ROOT
ATOM      1  C   UNL     1       2.644   4.849  18.703  0.00  0.00    +0.000 A 
ATOM      2  C   UNL     1       1.462   4.105  18.870  0.00  0.00    +0.000 A 
ATOM      3  C   UNL     1       1.406   2.790  18.432  0.00  0.00    +0.000 A 
ATOM      4  F   UNL     1       0.274   2.090  18.591  0.00  0.00    +0.000 F 
ATOM      5  C   UNL     1       2.492   2.202  17.812  0.00  0.00    +0.000 A 
ATOM      6  C   UNL     1       3.667   2.940  17.637  0.00  0.00    +0.000 A 
ATOM      7  C   UNL     1       3.789   4.274  18.082  0.00  0.00    +0.000 A 
ENDROOT
BRANCH   7   8
ATOM      8  N   UNL     1       4.977   4.960  17.889  0.00  0.00    +0.000 N 
ATOM      9  C   UNL     1       5.268   5.715  16.660  0.00  0.00    +0.000 C 
ATOM     10  C   UNL     1       6.182   6.920  17.004  0.00  0.00    +0.000 C 
ATOM     11  N   UNL     1       7.420   6.556  17.727  0.00  0.00    +0.000 NA
ATOM     12  C   UNL     1       7.069   5.754  18.921  0.00  0.00    +0.000 C 
ATOM     13  C   UNL     1       6.198   4.520  18.589  0.00  0.00    +0.000 C 
ATOM     14  H   UNL     1       7.867   7.415  18.047  0.00  0.00    +0.000 HD
ENDBRANCH   7   8
BRANCH   1  16
ATOM     15  N   UNL     1       2.414   6.538  20.444  0.00  0.00    +0.000 N 
ATOM     16  C   UNL     1       2.582   6.287  19.107  0.00  0.00    +0.000 C 
ATOM     17  O   UNL     1       2.665   7.222  18.323  0.00  0.00    +0.000 OA
ATOM     18  H   UNL     1       2.401   7.509  20.729  0.00  0.00    +0.000 HD
ATOM     19  H   UNL     1       2.427   5.825  21.159  0.00  0.00    +0.000 HD
ENDBRANCH   1  16
TORSDOF 2
ENDMDL
MODEL 4
REMARK VINA RESULT:      -6.5      0.508      1.317
REMARK  Name = 
REMARK  2 active torsions:
REMARK  status: ('A' for Active; 'I' for Inactive)
REMARK    1  A    between atoms: C_2  and  C_4
REMARK    2  A    between atoms: C_10  and  N_11
REMARK                            x       y       z     vdW  Elec       q    Type
REMARK                         _______ _______ _______ _____ _____    ______ ____
ROOT
ATOM      1  C   UNL     1       3.430   3.743  19.061  0.00  0.00    +0.000 A 
ATOM      2  C   UNL     1       2.342   3.946  19.929  0.00  0.00    +0.000 A 
ATOM      3  C   UNL     1       1.844   5.226  20.124  0.00  0.00    +0.000 A 
ATOM      4  F   UNL     1       0.810   5.411  20.956  0.00  0.00    +0.000 F 
ATOM      5  C   UNL     1       2.415   6.313  19.491  0.00  0.00    +0.000 A 
ATOM      6  C   UNL     1       3.501   6.116  18.633  0.00  0.00    +0.000 A 
ATOM      7  C   UNL     1       4.036   4.836  18.380  0.00  0.00    +0.000 A 
ENDROOT
BRANCH   7   8
ATOM      8  N   UNL     1       5.111   4.694  17.516  0.00  0.00    +0.000 N 
ATOM      9  C   UNL     1       4.995   4.033  16.207  0.00  0.00    +0.000 C 
ATOM     10  C   UNL     1       6.004   4.674  15.219  0.00  0.00    +0.000 C 
ATOM     11  N   UNL     1       7.402   4.687  15.701  0.00  0.00    +0.000 NA
ATOM     12  C   UNL     1       7.447   5.314  17.042  0.00  0.00    +0.000 C 
ATOM     13  C   UNL     1       6.483   4.654  18.054  0.00  0.00    +0.000 C 
ATOM     14  H   UNL     1       7.953   5.264  15.067  0.00  0.00    +0.000 HD
ENDBRANCH   7   8
BRANCH   1  16
ATOM     15  N   UNL     1       4.946   2.028  19.899  0.00  0.00    +0.000 N 
ATOM     16  C   UNL     1       3.969   2.349  18.993  0.00  0.00    +0.000 C 
ATOM     17  O   UNL     1       3.594   1.510  18.186  0.00  0.00    +0.000 OA
ATOM     18  H   UNL     1       5.293   1.078  19.879  0.00  0.00    +0.000 HD
ATOM     19  H   UNL     1       5.242   2.635  20.649  0.00  0.00    +0.000 HD
ENDBRANCH   1  16
TORSDOF 2
ENDMDL
MODEL 5
REMARK VINA RESULT:      -6.5      1.902      2.054
REMARK  Name = 
REMARK  2 active torsions:
REMARK  status: ('A' for Active; 'I' for Inactive)
REMARK    1  A    between atoms: C_2  and  C_4
REMARK    2  A    between atoms: C_10  and  N_11
REMARK                            x       y       z     vdW  Elec       q    Type
REMARK                         _______ _______ _______ _____ _____    ______ ____
ROOT
ATOM      1  C   UNL     1       3.638   3.430  18.856  0.00  0.00    +0.000 A 
ATOM      2  C   UNL     1       2.498   2.858  19.449  0.00  0.00    +0.000 A 
ATOM      3  C   UNL     1       1.244   3.104  18.912  0.00  0.00    +0.000 A 
ATOM      4  F   UNL     1       0.162   2.558  19.485  0.00  0.00    +0.000 F 
ATOM      5  C   UNL     1       1.093   3.924  17.810  0.00  0.00    +0.000 A 
ATOM      6  C   UNL     1       2.222   4.501  17.222  0.00  0.00    +0.000 A 
ATOM      7  C   UNL     1       3.525   4.269  17.712  0.00  0.00    +0.000 A 
ENDROOT
BRANCH   7   8
ATOM      8  N   UNL     1       4.612   4.861  17.089  0.00  0.00    +0.000 N 
ATOM      9  C   UNL     1       4.795   6.320  17.027  0.00  0.00    +0.000 C 
ATOM     10  C   UNL     1       6.311   6.646  17.020  0.00  0.00    +0.000 C 
ATOM     11  N   UNL     1       7.076   5.955  15.959  0.00  0.00    +0.000 NA
ATOM     12  C   UNL     1       6.810   4.500  16.037  0.00  0.00    +0.000 C 
ATOM     13  C   UNL     1       5.304   4.154  15.996  0.00  0.00    +0.000 C 
ATOM     14  H   UNL     1       8.069   6.102  16.134  0.00  0.00    +0.000 HD
ENDBRANCH   7   8
BRANCH   1  16
ATOM     15  N   UNL     1       5.112   1.961  20.125  0.00  0.00    +0.000 N 
ATOM     16  C   UNL     1       4.936   3.198  19.562  0.00  0.00    +0.000 C 
ATOM     17  O   UNL     1       5.820   4.038  19.663  0.00  0.00    +0.000 OA
ATOM     18  H   UNL     1       6.000   1.786  20.578  0.00  0.00    +0.000 HD
ATOM     19  H   UNL     1       4.470   1.191  20.008  0.00  0.00    +0.000 HD
ENDBRANCH   1  16
TORSDOF 2
ENDMDL
MODEL 6
REMARK VINA RESULT:      -6.4      1.915      2.110
REMARK  Name = 
REMARK  2 active torsions:
REMARK  status: ('A' for Active; 'I' for Inactive)
REMARK    1  A    between atoms: C_2  and  C_4
REMARK    2  A    between atoms: C_10  and  N_11
REMARK                            x       y       z     vdW  Elec       q    Type
REMARK                         _______ _______ _______ _____ _____    ______ ____
ROOT
ATOM      1  C   UNL     1       3.469   2.621  18.996  0.00  0.00    +0.000 A 
ATOM      2  C   UNL     1       2.175   2.071  19.060  0.00  0.00    +0.000 A 
ATOM      3  C   UNL     1       1.103   2.764  18.516  0.00  0.00    +0.000 A 
ATOM      4  F   UNL     1      -0.126   2.235  18.585  0.00  0.00    +0.000 F 
ATOM      5  C   UNL     1       1.284   4.002  17.929  0.00  0.00    +0.000 A 
ATOM      6  C   UNL     1       2.566   4.555  17.870  0.00  0.00    +0.000 A 
ATOM      7  C   UNL     1       3.696   3.887  18.386  0.00  0.00    +0.000 A 
ENDROOT
BRANCH   7   8
ATOM      8  N   UNL     1       4.947   4.476  18.298  0.00  0.00    +0.000 N 
ATOM      9  C   UNL     1       5.407   5.509  19.241  0.00  0.00    +0.000 C 
ATOM     10  C   UNL     1       6.945   5.402  19.407  0.00  0.00    +0.000 C 
ATOM     11  N   UNL     1       7.698   5.451  18.135  0.00  0.00    +0.000 NA
ATOM     12  C   UNL     1       7.157   4.429  17.210  0.00  0.00    +0.000 C 
ATOM     13  C   UNL     1       5.631   4.552  16.994  0.00  0.00    +0.000 C 
ATOM     14  H   UNL     1       8.670   5.213  18.330  0.00  0.00    +0.000 HD
ENDBRANCH   7   8
BRANCH   1  16
ATOM     15  N   UNL     1       4.813   0.600  19.221  0.00  0.00    +0.000 N 
ATOM     16  C   UNL     1       4.545   1.857  19.699  0.00  0.00    +0.000 C 
ATOM     17  O   UNL     1       5.176   2.287  20.655  0.00  0.00    +0.000 OA
ATOM     18  H   UNL     1       5.561   0.090  19.672  0.00  0.00    +0.000 HD
ATOM     19  H   UNL     1       4.400   0.214  18.385  0.00  0.00    +0.000 HD
ENDBRANCH   1  16
TORSDOF 2
ENDMDL
MODEL 7
REMARK VINA RESULT:      -6.4      2.191      3.244
REMARK  Name = 
REMARK  2 active torsions:
REMARK  status: ('A' for Active; 'I' for Inactive)
REMARK    1  A    between atoms: C_2  and  C_4
REMARK    2  A    between atoms: C_10  and  N_11
REMARK                            x       y       z     vdW  Elec       q    Type
REMARK                         _______ _______ _______ _____ _____    ______ ____
ROOT
ATOM      1  C   UNL     1       2.880   5.189  19.805  0.00  0.00    +0.000 A 
ATOM      2  C   UNL     1       2.015   4.625  20.762  0.00  0.00    +0.000 A 
ATOM      3  C   UNL     1       2.190   3.308  21.159  0.00  0.00    +0.000 A 
ATOM      4  F   UNL     1       1.358   2.778  22.067  0.00  0.00    +0.000 F 
ATOM      5  C   UNL     1       3.192   2.529  20.612  0.00  0.00    +0.000 A 
ATOM      6  C   UNL     1       4.049   3.083  19.657  0.00  0.00    +0.000 A 
ATOM      7  C   UNL     1       3.933   4.423  19.230  0.00  0.00    +0.000 A 
ENDROOT
BRANCH   7   8
ATOM      8  N   UNL     1       4.812   4.925  18.284  0.00  0.00    +0.000 N 
ATOM      9  C   UNL     1       4.770   4.522  16.869  0.00  0.00    +0.000 C 
ATOM     10  C   UNL     1       5.244   5.705  15.986  0.00  0.00    +0.000 C 
ATOM     11  N   UNL     1       6.568   6.250  16.359  0.00  0.00    +0.000 NA
ATOM     12  C   UNL     1       6.566   6.586  17.802  0.00  0.00    +0.000 C 
ATOM     13  C   UNL     1       6.143   5.401  18.700  0.00  0.00    +0.000 C 
ATOM     14  H   UNL     1       6.717   7.113  15.836  0.00  0.00    +0.000 HD
ENDBRANCH   7   8
BRANCH   1  16
ATOM     15  N   UNL     1       2.198   7.467  20.340  0.00  0.00    +0.000 N 
ATOM     16  C   UNL     1       2.555   6.578  19.358  0.00  0.00    +0.000 C 
ATOM     17  O   UNL     1       2.585   6.946  18.192  0.00  0.00    +0.000 OA
ATOM     18  H   UNL     1       2.007   8.417  20.049  0.00  0.00    +0.000 HD
ATOM     19  H   UNL     1       2.237   7.263  21.328  0.00  0.00    +0.000 HD
ENDBRANCH   1  16
TORSDOF 2
ENDMDL
MODEL 8
REMARK VINA RESULT:      -6.3      1.554      1.763
REMARK  Name = 
REMARK  2 active torsions:
REMARK  status: ('A' for Active; 'I' for Inactive)
REMARK    1  A    between atoms: C_2  and  C_4
REMARK    2  A    between atoms: C_10  and  N_11
REMARK                            x       y       z     vdW  Elec       q    Type
REMARK                         _______ _______ _______ _____ _____    ______ ____
ROOT
ATOM      1  C   UNL     1       3.514   2.616  20.039  0.00  0.00    +0.000 A 
ATOM      2  C   UNL     1       2.538   2.289  20.999  0.00  0.00    +0.000 A 
ATOM      3  C   UNL     1       1.647   3.259  21.435  0.00  0.00    +0.000 A 
ATOM      4  F   UNL     1       0.724   2.941  22.352  0.00  0.00    +0.000 F 
ATOM      5  C   UNL     1       1.717   4.553  20.955  0.00  0.00    +0.000 A 
ATOM      6  C   UNL     1       2.690   4.884  20.006  0.00  0.00    +0.000 A 
ATOM      7  C   UNL     1       3.608   3.934  19.510  0.00  0.00    +0.000 A 
ENDROOT
BRANCH   7   8
ATOM      8  N   UNL     1       4.550   4.311  18.567  0.00  0.00    +0.000 N 
ATOM      9  C   UNL     1       5.741   5.105  18.907  0.00  0.00    +0.000 C 
ATOM     10  C   UNL     1       6.903   4.719  17.956  0.00  0.00    +0.000 C 
ATOM     11  N   UNL     1       6.571   4.823  16.518  0.00  0.00    +0.000 NA
ATOM     12  C   UNL     1       5.336   4.050  16.247  0.00  0.00    +0.000 C 
ATOM     13  C   UNL     1       4.153   4.458  17.154  0.00  0.00    +0.000 C 
ATOM     14  H   UNL     1       7.329   4.400  15.983  0.00  0.00    +0.000 HD
ENDBRANCH   7   8
BRANCH   1  16
ATOM     15  N   UNL     1       4.281   0.857  18.537  0.00  0.00    +0.000 N 
ATOM     16  C   UNL     1       4.497   1.540  19.706  0.00  0.00    +0.000 C 
ATOM     17  O   UNL     1       5.454   1.245  20.409  0.00  0.00    +0.000 OA
ATOM     18  H   UNL     1       4.960   0.148  18.289  0.00  0.00    +0.000 HD
ATOM     19  H   UNL     1       3.570   1.100  17.864  0.00  0.00    +0.000 HD
ENDBRANCH   1  16
TORSDOF 2
ENDMDL
MODEL 9
REMARK VINA RESULT:      -6.3      3.285      5.532
REMARK  Name = 
REMARK  2 active torsions:
REMARK  status: ('A' for Active; 'I' for Inactive)
REMARK    1  A    between atoms: C_2  and  C_4
REMARK    2  A    between atoms: C_10  and  N_11
REMARK                            x       y       z     vdW  Elec       q    Type
REMARK                         _______ _______ _______ _____ _____    ______ ____
ROOT
ATOM      1  C   UNL     1       6.699   5.001  16.522  0.00  0.00    +0.000 A 
ATOM      2  C   UNL     1       7.449   5.124  15.338  0.00  0.00    +0.000 A 
ATOM      3  C   UNL     1       6.884   4.766  14.122  0.00  0.00    +0.000 A 
ATOM      4  F   UNL     1       7.608   4.883  13.000  0.00  0.00    +0.000 F 
ATOM      5  C   UNL     1       5.597   4.269  14.058  0.00  0.00    +0.000 A 
ATOM      6  C   UNL     1       4.850   4.139  15.232  0.00  0.00    +0.000 A 
ATOM      7  C   UNL     1       5.364   4.506  16.493  0.00  0.00    +0.000 A 
ENDROOT
BRANCH   7   8
ATOM      8  N   UNL     1       4.581   4.362  17.627  0.00  0.00    +0.000 N 
ATOM      9  C   UNL     1       4.103   3.053  18.102  0.00  0.00    +0.000 C 
ATOM     10  C   UNL     1       3.977   3.083  19.646  0.00  0.00    +0.000 C 
ATOM     11  N   UNL     1       3.143   4.189  20.167  0.00  0.00    +0.000 NA
ATOM     12  C   UNL     1       3.637   5.471  19.614  0.00  0.00    +0.000 C 
ATOM     13  C   UNL     1       3.722   5.475  18.071  0.00  0.00    +0.000 C 
ATOM     14  H   UNL     1       3.253   4.221  21.180  0.00  0.00    +0.000 HD
ENDBRANCH   7   8
BRANCH   1  16
ATOM     15  N   UNL     1       7.510   6.630  18.142  0.00  0.00    +0.000 N 
ATOM     16  C   UNL     1       7.420   5.307  17.795  0.00  0.00    +0.000 C 
ATOM     17  O   UNL     1       7.924   4.458  18.517  0.00  0.00    +0.000 OA
ATOM     18  H   UNL     1       7.969   6.843  19.018  0.00  0.00    +0.000 HD
ATOM     19  H   UNL     1       7.045   7.377  17.647  0.00  0.00    +0.000 HD
ENDBRANCH   1  16
TORSDOF 2
ENDMDL
