MODEL 1
REMARK VINA RESULT:      -8.3      0.000      0.000
REMARK  Name = 
REMARK  4 active torsions:
REMARK  status: ('A' for Active; 'I' for Inactive)
REMARK    1  A    between atoms: C_2  and  C_15
REMARK    2  A    between atoms: N_3  and  C_4
REMARK    3  A    between atoms: C_4  and  N_6
REMARK    4  A    between atoms: N_6  and  C_7
REMARK                            x       y       z     vdW  Elec       q    Type
REMARK                         _______ _______ _______ _____ _____    ______ ____
ROOT
ATOM      1  C   UNL     1       6.515   4.574  18.256  0.00  0.00    +0.000 C 
ATOM      2  S   UNL     1       7.406   5.642  19.176  0.00  0.00    +0.000 S 
ENDROOT
BRANCH   1   5
ATOM      3  O   UNL     1       7.458   6.339  16.060  0.00  0.00    +0.000 OA
ATOM      4  C   UNL     1       7.067   5.188  15.897  0.00  0.00    +0.000 C 
ATOM      5  N   UNL     1       6.644   4.327  16.898  0.00  0.00    +0.000 N 
ATOM      6  H   UNL     1       6.219   3.460  16.601  0.00  0.00    +0.000 HD
BRANCH   4   7
ATOM      7  C   UNL     1       6.867   4.694  14.507  0.00  0.00    +0.000 A 
ATOM      8  C   UNL     1       5.864   3.778  14.163  0.00  0.00    +0.000 A 
ATOM      9  C   UNL     1       5.720   3.380  12.829  0.00  0.00    +0.000 A 
ATOM     10  C   UNL     1       6.568   3.891  11.846  0.00  0.00    +0.000 A 
ATOM     11  C   UNL     1       7.571   4.797  12.187  0.00  0.00    +0.000 A 
ATOM     12  C   UNL     1       7.721   5.195  13.515  0.00  0.00    +0.000 A 
ENDBRANCH   4   7
ENDBRANCH   1   5
BRANCH   1  13
ATOM     13  N   UNL     1       5.586   3.777  18.881  0.00  0.00    +0.000 N 
ATOM     14  H   UNL     1       5.964   2.992  19.416  0.00  0.00    +0.000 HD
BRANCH  13  15
ATOM     15  C   UNL     1       4.215   4.067  19.109  0.00  0.00    +0.000 A 
ATOM     16  C   UNL     1       3.841   5.304  19.659  0.00  0.00    +0.000 A 
ATOM     17  C   UNL     1       2.508   5.583  19.944  0.00  0.00    +0.000 A 
ATOM     18  C   UNL     1       1.531   4.627  19.682  0.00  0.00    +0.000 A 
ATOM     19  C   UNL     1       1.887   3.391  19.131  0.00  0.00    +0.000 A 
ATOM     20 CL   UNL     1       0.607   2.278  18.800  0.00  0.00    +0.000 Cl
ATOM     21  C   UNL     1       3.230   3.096  18.856  0.00  0.00    +0.000 A 
ATOM     22 CL   UNL     1       3.692   1.588  18.133  0.00  0.00    +0.000 Cl
ENDBRANCH  13  15
ENDBRANCH   1  13
TORSDOF 4
ENDMDL
MODEL 2
REMARK VINA RESULT:      -8.2      1.177      1.610
REMARK  Name = 
REMARK  4 active torsions:
REMARK  status: ('A' for Active; 'I' for Inactive)
REMARK    1  A    between atoms: C_2  and  C_15
REMARK    2  A    between atoms: N_3  and  C_4
REMARK    3  A    between atoms: C_4  and  N_6
REMARK    4  A    between atoms: N_6  and  C_7
REMARK                            x       y       z     vdW  Elec       q    Type
REMARK                         _______ _______ _______ _____ _____    ______ ____
ROOT
ATOM      1  C   UNL     1       6.517   4.540  18.060  0.00  0.00    +0.000 C 
ATOM      2  S   UNL     1       7.260   5.575  19.136  0.00  0.00    +0.000 S 
ENDROOT
BRANCH   1   5
ATOM      3  O   UNL     1       5.900   6.437  15.859  0.00  0.00    +0.000 OA
ATOM      4  C   UNL     1       6.424   5.340  15.694  0.00  0.00    +0.000 C 
ATOM      5  N   UNL     1       6.749   4.441  16.696  0.00  0.00    +0.000 N 
ATOM      6  H   UNL     1       7.046   3.521  16.402  0.00  0.00    +0.000 HD
BRANCH   4   7
ATOM      7  C   UNL     1       6.593   4.833  14.304  0.00  0.00    +0.000 A 
ATOM      8  C   UNL     1       7.603   5.290  13.448  0.00  0.00    +0.000 A 
ATOM      9  C   UNL     1       7.718   4.747  12.163  0.00  0.00    +0.000 A 
ATOM     10  C   UNL     1       6.832   3.756  11.736  0.00  0.00    +0.000 A 
ATOM     11  C   UNL     1       5.823   3.306  12.585  0.00  0.00    +0.000 A 
ATOM     12  C   UNL     1       5.702   3.846  13.865  0.00  0.00    +0.000 A 
ENDBRANCH   4   7
ENDBRANCH   1   5
BRANCH   1  13
ATOM     13  N   UNL     1       5.619   3.616  18.541  0.00  0.00    +0.000 N 
ATOM     14  H   UNL     1       6.028   2.791  18.983  0.00  0.00    +0.000 HD
BRANCH  13  15
ATOM     15  C   UNL     1       4.227   3.797  18.753  0.00  0.00    +0.000 A 
ATOM     16  C   UNL     1       3.499   4.670  17.929  0.00  0.00    +0.000 A 
ATOM     17  C   UNL     1       2.147   4.906  18.159  0.00  0.00    +0.000 A 
ATOM     18  C   UNL     1       1.506   4.269  19.217  0.00  0.00    +0.000 A 
ATOM     19  C   UNL     1       2.216   3.392  20.045  0.00  0.00    +0.000 A 
ATOM     20 CL   UNL     1       1.334   2.614  21.310  0.00  0.00    +0.000 Cl
ATOM     21  C   UNL     1       3.583   3.163  19.829  0.00  0.00    +0.000 A 
ATOM     22 CL   UNL     1       4.476   2.050  20.815  0.00  0.00    +0.000 Cl
ENDBRANCH  13  15
ENDBRANCH   1  13
TORSDOF 4
ENDMDL
MODEL 3
REMARK VINA RESULT:      -8.2      1.079      1.087
REMARK  Name = 
REMARK  4 active torsions:
REMARK  status: ('A' for Active; 'I' for Inactive)
REMARK    1  A    between atoms: C_2  and  C_15
REMARK    2  A    between atoms: N_3  and  C_4
REMARK    3  A    between atoms: C_4  and  N_6
REMARK    4  A    between atoms: N_6  and  C_7
REMARK                            x       y       z     vdW  Elec       q    Type
REMARK                         _______ _______ _______ _____ _____    ______ ____
ROOT
ATOM      1  C   UNL     1       6.860   4.827  18.148  0.00  0.00    +0.000 C 
ATOM      2  S   UNL     1       7.771   5.830  19.119  0.00  0.00    +0.000 S 
ENDROOT
BRANCH   1   5
ATOM      3  O   UNL     1       5.820   6.458  15.894  0.00  0.00    +0.000 OA
ATOM      4  C   UNL     1       6.460   5.422  15.753  0.00  0.00    +0.000 C 
ATOM      5  N   UNL     1       6.983   4.648  16.778  0.00  0.00    +0.000 N 
ATOM      6  H   UNL     1       7.365   3.750  16.518  0.00  0.00    +0.000 HD
BRANCH   4   7
ATOM      7  C   UNL     1       6.569   4.831  14.391  0.00  0.00    +0.000 A 
ATOM      8  C   UNL     1       5.683   3.858  13.912  0.00  0.00    +0.000 A 
ATOM      9  C   UNL     1       5.832   3.368  12.609  0.00  0.00    +0.000 A 
ATOM     10  C   UNL     1       6.857   3.846  11.791  0.00  0.00    +0.000 A 
ATOM     11  C   UNL     1       7.744   4.809  12.268  0.00  0.00    +0.000 A 
ATOM     12  C   UNL     1       7.602   5.298  13.567  0.00  0.00    +0.000 A 
ENDBRANCH   4   7
ENDBRANCH   1   5
BRANCH   1  13
ATOM     13  N   UNL     1       5.920   4.012  18.733  0.00  0.00    +0.000 N 
ATOM     14  H   UNL     1       6.267   3.120  19.089  0.00  0.00    +0.000 HD
BRANCH  13  15
ATOM     15  C   UNL     1       4.612   4.371  19.154  0.00  0.00    +0.000 A 
ATOM     16  C   UNL     1       4.100   5.642  18.849  0.00  0.00    +0.000 A 
ATOM     17  C   UNL     1       2.844   6.033  19.304  0.00  0.00    +0.000 A 
ATOM     18  C   UNL     1       2.084   5.154  20.069  0.00  0.00    +0.000 A 
ATOM     19  C   UNL     1       2.578   3.881  20.378  0.00  0.00    +0.000 A 
ATOM     20 CL   UNL     1       1.551   2.840  21.299  0.00  0.00    +0.000 Cl
ATOM     21  C   UNL     1       3.849   3.487  19.937  0.00  0.00    +0.000 A 
ATOM     22 CL   UNL     1       4.466   1.901  20.271  0.00  0.00    +0.000 Cl
ENDBRANCH  13  15
ENDBRANCH   1  13
TORSDOF 4
ENDMDL
MODEL 4
REMARK VINA RESULT:      -8.0      1.116      1.585
REMARK  Name = 
REMARK  4 active torsions:
REMARK  status: ('A' for Active; 'I' for Inactive)
REMARK    1  A    between atoms: C_2  and  C_15
REMARK    2  A    between atoms: N_3  and  C_4
REMARK    3  A    between atoms: C_4  and  N_6
REMARK    4  A    between atoms: N_6  and  C_7
REMARK                            x       y       z     vdW  Elec       q    Type
REMARK                         _______ _______ _______ _____ _____    ______ ____
ROOT
ATOM      1  C   UNL     1       5.390   5.321  17.817  0.00  0.00    +0.000 C 
ATOM      2  S   UNL     1       6.287   5.246  19.220  0.00  0.00    +0.000 S 
ENDROOT
BRANCH   1   5
ATOM      3  O   UNL     1       7.537   6.291  16.008  0.00  0.00    +0.000 OA
ATOM      4  C   UNL     1       6.764   5.381  15.730  0.00  0.00    +0.000 C 
ATOM      5  N   UNL     1       5.768   4.884  16.556  0.00  0.00    +0.000 N 
ATOM      6  H   UNL     1       5.119   4.230  16.142  0.00  0.00    +0.000 HD
BRANCH   4   7
ATOM      7  C   UNL     1       6.762   4.847  14.340  0.00  0.00    +0.000 A 
ATOM      8  C   UNL     1       7.697   5.240  13.374  0.00  0.00    +0.000 A 
ATOM      9  C   UNL     1       7.649   4.674  12.095  0.00  0.00    +0.000 A 
ATOM     10  C   UNL     1       6.677   3.723  11.782  0.00  0.00    +0.000 A 
ATOM     11  C   UNL     1       5.741   3.336  12.740  0.00  0.00    +0.000 A 
ATOM     12  C   UNL     1       5.782   3.899  14.014  0.00  0.00    +0.000 A 
ENDBRANCH   4   7
ENDBRANCH   1   5
BRANCH   1  13
ATOM     13  N   UNL     1       4.100   5.795  17.879  0.00  0.00    +0.000 N 
ATOM     14  H   UNL     1       3.820   6.414  17.116  0.00  0.00    +0.000 HD
BRANCH  13  15
ATOM     15  C   UNL     1       3.044   5.312  18.696  0.00  0.00    +0.000 A 
ATOM     16  C   UNL     1       2.695   5.999  19.869  0.00  0.00    +0.000 A 
ATOM     17  C   UNL     1       1.702   5.508  20.713  0.00  0.00    +0.000 A 
ATOM     18  C   UNL     1       1.047   4.324  20.392  0.00  0.00    +0.000 A 
ATOM     19  C   UNL     1       1.381   3.630  19.223  0.00  0.00    +0.000 A 
ATOM     20 CL   UNL     1       0.489   2.189  18.880  0.00  0.00    +0.000 Cl
ATOM     21  C   UNL     1       2.391   4.109  18.377  0.00  0.00    +0.000 A 
ATOM     22 CL   UNL     1       2.794   3.290  16.902  0.00  0.00    +0.000 Cl
ENDBRANCH  13  15
ENDBRANCH   1  13
TORSDOF 4
ENDMDL
MODEL 5
REMARK VINA RESULT:      -7.6      2.477      2.990
REMARK  Name = 
REMARK  4 active torsions:
REMARK  status: ('A' for Active; 'I' for Inactive)
REMARK    1  A    between atoms: C_2  and  C_15
REMARK    2  A    between atoms: N_3  and  C_4
REMARK    3  A    between atoms: C_4  and  N_6
REMARK    4  A    between atoms: N_6  and  C_7
REMARK                            x       y       z     vdW  Elec       q    Type
REMARK                         _______ _______ _______ _____ _____    ______ ____
ROOT
ATOM      1  C   UNL     1       4.268   3.429  17.582  0.00  0.00    +0.000 C 
ATOM      2  S   UNL     1       3.187   2.244  18.040  0.00  0.00    +0.000 S 
ENDROOT
BRANCH   1   5
ATOM      3  O   UNL     1       6.877   4.698  16.948  0.00  0.00    +0.000 OA
ATOM      4  C   UNL     1       6.164   4.143  16.119  0.00  0.00    +0.000 C 
ATOM      5  N   UNL     1       4.955   3.518  16.381  0.00  0.00    +0.000 N 
ATOM      6  H   UNL     1       4.412   3.226  15.581  0.00  0.00    +0.000 HD
BRANCH   4   7
ATOM      7  C   UNL     1       6.518   4.266  14.678  0.00  0.00    +0.000 A 
ATOM      8  C   UNL     1       7.516   5.131  14.213  0.00  0.00    +0.000 A 
ATOM      9  C   UNL     1       7.811   5.174  12.845  0.00  0.00    +0.000 A 
ATOM     10  C   UNL     1       7.118   4.358  11.949  0.00  0.00    +0.000 A 
ATOM     11  C   UNL     1       6.120   3.501  12.411  0.00  0.00    +0.000 A 
ATOM     12  C   UNL     1       5.819   3.458  13.771  0.00  0.00    +0.000 A 
ENDBRANCH   4   7
ENDBRANCH   1   5
BRANCH   1  13
ATOM     13  N   UNL     1       4.479   4.495  18.425  0.00  0.00    +0.000 N 
ATOM     14  H   UNL     1       5.396   4.528  18.874  0.00  0.00    +0.000 HD
BRANCH  13  15
ATOM     15  C   UNL     1       3.705   5.681  18.525  0.00  0.00    +0.000 A 
ATOM     16  C   UNL     1       3.810   6.672  17.537  0.00  0.00    +0.000 A 
ATOM     17  C   UNL     1       3.104   7.867  17.649  0.00  0.00    +0.000 A 
ATOM     18  C   UNL     1       2.284   8.083  18.751  0.00  0.00    +0.000 A 
ATOM     19  C   UNL     1       2.166   7.103  19.743  0.00  0.00    +0.000 A 
ATOM     20 CL   UNL     1       1.095   7.437  21.058  0.00  0.00    +0.000 Cl
ATOM     21  C   UNL     1       2.886   5.904  19.646  0.00  0.00    +0.000 A 
ATOM     22 CL   UNL     1       2.724   4.656  20.840  0.00  0.00    +0.000 Cl
ENDBRANCH  13  15
ENDBRANCH   1  13
TORSDOF 4
ENDMDL
MODEL 6
REMARK VINA RESULT:      -7.5      1.695      2.073
REMARK  Name = 
REMARK  4 active torsions:
REMARK  status: ('A' for Active; 'I' for Inactive)
REMARK    1  A    between atoms: C_2  and  C_15
REMARK    2  A    between atoms: N_3  and  C_4
REMARK    3  A    between atoms: C_4  and  N_6
REMARK    4  A    between atoms: N_6  and  C_7
REMARK                            x       y       z     vdW  Elec       q    Type
REMARK                         _______ _______ _______ _____ _____    ______ ____
ROOT
ATOM      1  C   UNL     1       5.229   4.259  17.656  0.00  0.00    +0.000 C 
ATOM      2  S   UNL     1       5.554   5.461  18.765  0.00  0.00    +0.000 S 
ENDROOT
BRANCH   1   5
ATOM      3  O   UNL     1       7.944   4.542  16.485  0.00  0.00    +0.000 OA
ATOM      4  C   UNL     1       6.927   4.363  15.825  0.00  0.00    +0.000 C 
ATOM      5  N   UNL     1       5.649   4.201  16.336  0.00  0.00    +0.000 N 
ATOM      6  H   UNL     1       4.890   4.201  15.669  0.00  0.00    +0.000 HD
BRANCH   4   7
ATOM      7  C   UNL     1       7.010   4.479  14.343  0.00  0.00    +0.000 A 
ATOM      8  C   UNL     1       7.853   5.394  13.699  0.00  0.00    +0.000 A 
ATOM      9  C   UNL     1       7.897   5.428  12.300  0.00  0.00    +0.000 A 
ATOM     10  C   UNL     1       7.106   4.556  11.550  0.00  0.00    +0.000 A 
ATOM     11  C   UNL     1       6.261   3.650  12.189  0.00  0.00    +0.000 A 
ATOM     12  C   UNL     1       6.211   3.615  13.582  0.00  0.00    +0.000 A 
ENDBRANCH   4   7
ENDBRANCH   1   5
BRANCH   1  13
ATOM     13  N   UNL     1       4.533   3.148  18.069  0.00  0.00    +0.000 N 
ATOM     14  H   UNL     1       5.082   2.291  18.164  0.00  0.00    +0.000 HD
BRANCH  13  15
ATOM     15  C   UNL     1       3.235   3.109  18.643  0.00  0.00    +0.000 A 
ATOM     16  C   UNL     1       2.123   3.527  17.894  0.00  0.00    +0.000 A 
ATOM     17  C   UNL     1       0.852   3.552  18.460  0.00  0.00    +0.000 A 
ATOM     18  C   UNL     1       0.677   3.158  19.783  0.00  0.00    +0.000 A 
ATOM     19  C   UNL     1       1.775   2.734  20.541  0.00  0.00    +0.000 A 
ATOM     20 CL   UNL     1       1.462   2.223  22.163  0.00  0.00    +0.000 Cl
ATOM     21  C   UNL     1       3.061   2.722  19.983  0.00  0.00    +0.000 A 
ATOM     22 CL   UNL     1       4.430   2.161  20.889  0.00  0.00    +0.000 Cl
ENDBRANCH  13  15
ENDBRANCH   1  13
TORSDOF 4
ENDMDL
MODEL 7
REMARK VINA RESULT:      -7.5      3.876      4.940
REMARK  Name = 
REMARK  4 active torsions:
REMARK  status: ('A' for Active; 'I' for Inactive)
REMARK    1  A    between atoms: C_2  and  C_15
REMARK    2  A    between atoms: N_3  and  C_4
REMARK    3  A    between atoms: C_4  and  N_6
REMARK    4  A    between atoms: N_6  and  C_7
REMARK                            x       y       z     vdW  Elec       q    Type
REMARK                         _______ _______ _______ _____ _____    ______ ____
ROOT
ATOM      1  C   UNL     1       2.538   5.118  19.975  0.00  0.00    +0.000 C 
ATOM      2  S   UNL     1       1.411   4.126  20.701  0.00  0.00    +0.000 S 
ENDROOT
BRANCH   1   5
ATOM      3  O   UNL     1       5.492   5.368  19.797  0.00  0.00    +0.000 OA
ATOM      4  C   UNL     1       4.783   4.942  18.892  0.00  0.00    +0.000 C 
ATOM      5  N   UNL     1       3.407   4.788  18.947  0.00  0.00    +0.000 N 
ATOM      6  H   UNL     1       2.941   4.559  18.080  0.00  0.00    +0.000 HD
BRANCH   4   7
ATOM      7  C   UNL     1       5.397   4.712  17.555  0.00  0.00    +0.000 A 
ATOM      8  C   UNL     1       4.637   4.503  16.397  0.00  0.00    +0.000 A 
ATOM      9  C   UNL     1       5.284   4.319  15.170  0.00  0.00    +0.000 A 
ATOM     10  C   UNL     1       6.678   4.344  15.098  0.00  0.00    +0.000 A 
ATOM     11  C   UNL     1       7.435   4.545  16.251  0.00  0.00    +0.000 A 
ATOM     12  C   UNL     1       6.796   4.725  17.477  0.00  0.00    +0.000 A 
ENDBRANCH   4   7
ENDBRANCH   1   5
BRANCH   1  13
ATOM     13  N   UNL     1       2.600   6.438  20.355  0.00  0.00    +0.000 N 
ATOM     14  H   UNL     1       3.237   6.647  21.127  0.00  0.00    +0.000 HD
BRANCH  13  15
ATOM     15  C   UNL     1       2.120   7.565  19.637  0.00  0.00    +0.000 A 
ATOM     16  C   UNL     1       2.462   7.734  18.286  0.00  0.00    +0.000 A 
ATOM     17  C   UNL     1       2.049   8.862  17.583  0.00  0.00    +0.000 A 
ATOM     18  C   UNL     1       1.289   9.835  18.223  0.00  0.00    +0.000 A 
ATOM     19  C   UNL     1       0.936   9.679  19.569  0.00  0.00    +0.000 A 
ATOM     20 CL   UNL     1      -0.043  10.915  20.275  0.00  0.00    +0.000 Cl
ATOM     21  C   UNL     1       1.362   8.553  20.288  0.00  0.00    +0.000 A 
ATOM     22 CL   UNL     1       0.903   8.316  21.944  0.00  0.00    +0.000 Cl
ENDBRANCH  13  15
ENDBRANCH   1  13
TORSDOF 4
ENDMDL
MODEL 8
REMARK VINA RESULT:      -7.5      3.895      5.014
REMARK  Name = 
REMARK  4 active torsions:
REMARK  status: ('A' for Active; 'I' for Inactive)
REMARK    1  A    between atoms: C_2  and  C_15
REMARK    2  A    between atoms: N_3  and  C_4
REMARK    3  A    between atoms: C_4  and  N_6
REMARK    4  A    between atoms: N_6  and  C_7
REMARK                            x       y       z     vdW  Elec       q    Type
REMARK                         _______ _______ _______ _____ _____    ______ ____
ROOT
ATOM      1  C   UNL     1       2.514   5.148  19.822  0.00  0.00    +0.000 C 
ATOM      2  S   UNL     1       1.320   4.166  20.446  0.00  0.00    +0.000 S 
ENDROOT
BRANCH   1   5
ATOM      3  O   UNL     1       5.471   5.427  19.775  0.00  0.00    +0.000 OA
ATOM      4  C   UNL     1       4.807   4.996  18.839  0.00  0.00    +0.000 C 
ATOM      5  N   UNL     1       3.431   4.828  18.833  0.00  0.00    +0.000 N 
ATOM      6  H   UNL     1       3.006   4.597  17.946  0.00  0.00    +0.000 HD
BRANCH   4   7
ATOM      7  C   UNL     1       5.481   4.774  17.530  0.00  0.00    +0.000 A 
ATOM      8  C   UNL     1       6.874   4.776  17.383  0.00  0.00    +0.000 A 
ATOM      9  C   UNL     1       7.437   4.533  16.125  0.00  0.00    +0.000 A 
ATOM     10  C   UNL     1       6.616   4.288  15.022  0.00  0.00    +0.000 A 
ATOM     11  C   UNL     1       5.230   4.292  15.166  0.00  0.00    +0.000 A 
ATOM     12  C   UNL     1       4.664   4.538  16.416  0.00  0.00    +0.000 A 
ENDBRANCH   4   7
ENDBRANCH   1   5
BRANCH   1  13
ATOM     13  N   UNL     1       2.593   6.451  20.254  0.00  0.00    +0.000 N 
ATOM     14  H   UNL     1       3.244   6.624  21.022  0.00  0.00    +0.000 HD
BRANCH  13  15
ATOM     15  C   UNL     1       2.107   7.609  19.591  0.00  0.00    +0.000 A 
ATOM     16  C   UNL     1       2.431   7.834  18.244  0.00  0.00    +0.000 A 
ATOM     17  C   UNL     1       2.014   8.993  17.595  0.00  0.00    +0.000 A 
ATOM     18  C   UNL     1       1.267   9.940  18.286  0.00  0.00    +0.000 A 
ATOM     19  C   UNL     1       0.932   9.729  19.629  0.00  0.00    +0.000 A 
ATOM     20 CL   UNL     1      -0.033  10.938  20.400  0.00  0.00    +0.000 Cl
ATOM     21  C   UNL     1       1.362   8.572  20.294  0.00  0.00    +0.000 A 
ATOM     22 CL   UNL     1       0.925   8.267  21.945  0.00  0.00    +0.000 Cl
ENDBRANCH  13  15
ENDBRANCH   1  13
TORSDOF 4
ENDMDL
MODEL 9
REMARK VINA RESULT:      -7.4      1.933      2.573
REMARK  Name = 
REMARK  4 active torsions:
REMARK  status: ('A' for Active; 'I' for Inactive)
REMARK    1  A    between atoms: C_2  and  C_15
REMARK    2  A    between atoms: N_3  and  C_4
REMARK    3  A    between atoms: C_4  and  N_6
REMARK    4  A    between atoms: N_6  and  C_7
REMARK                            x       y       z     vdW  Elec       q    Type
REMARK                         _______ _______ _______ _____ _____    ______ ____
ROOT
ATOM      1  C   UNL     1       6.246   6.837  17.118  0.00  0.00    +0.000 C 
ATOM      2  S   UNL     1       7.560   7.624  17.776  0.00  0.00    +0.000 S 
ENDROOT
BRANCH   1   5
ATOM      3  O   UNL     1       7.819   4.470  16.255  0.00  0.00    +0.000 OA
ATOM      4  C   UNL     1       6.978   5.026  15.558  0.00  0.00    +0.000 C 
ATOM      5  N   UNL     1       6.207   6.115  15.935  0.00  0.00    +0.000 N 
ATOM      6  H   UNL     1       5.657   6.554  15.210  0.00  0.00    +0.000 HD
BRANCH   4   7
ATOM      7  C   UNL     1       6.859   4.626  14.129  0.00  0.00    +0.000 A 
ATOM      8  C   UNL     1       7.703   5.124  13.129  0.00  0.00    +0.000 A 
ATOM      9  C   UNL     1       7.548   4.681  11.810  0.00  0.00    +0.000 A 
ATOM     10  C   UNL     1       6.559   3.748  11.492  0.00  0.00    +0.000 A 
ATOM     11  C   UNL     1       5.714   3.257  12.486  0.00  0.00    +0.000 A 
ATOM     12  C   UNL     1       5.861   3.698  13.800  0.00  0.00    +0.000 A 
ENDBRANCH   4   7
ENDBRANCH   1   5
BRANCH   1  13
ATOM     13  N   UNL     1       5.066   6.811  17.825  0.00  0.00    +0.000 N 
ATOM     14  H   UNL     1       4.418   7.577  17.631  0.00  0.00    +0.000 HD
BRANCH  13  15
ATOM     15  C   UNL     1       4.526   5.723  18.560  0.00  0.00    +0.000 A 
ATOM     16  C   UNL     1       5.241   4.519  18.659  0.00  0.00    +0.000 A 
ATOM     17  C   UNL     1       4.701   3.423  19.326  0.00  0.00    +0.000 A 
ATOM     18  C   UNL     1       3.438   3.519  19.902  0.00  0.00    +0.000 A 
ATOM     19  C   UNL     1       2.714   4.714  19.816  0.00  0.00    +0.000 A 
ATOM     20 CL   UNL     1       1.172   4.759  20.593  0.00  0.00    +0.000 Cl
ATOM     21  C   UNL     1       3.245   5.817  19.132  0.00  0.00    +0.000 A 
ATOM     22 CL   UNL     1       2.387   7.322  19.047  0.00  0.00    +0.000 Cl
ENDBRANCH  13  15
ENDBRANCH   1  13
TORSDOF 4
ENDMDL
