MODEL 1
REMARK VINA RESULT:      -7.7      0.000      0.000
REMARK  Name = 
REMARK  8 active torsions:
REMARK  status: ('A' for Active; 'I' for Inactive)
REMARK    1  A    between atoms: C_2  and  O_3
REMARK    2  A    between atoms: C_2  and  C_4
REMARK    3  A    between atoms: C_4  and  C_5
REMARK    4  A    between atoms: C_5  and  C_6
REMARK    5  A    between atoms: C_6  and  C_7
REMARK    6  A    between atoms: C_7  and  C_8
REMARK    7  A    between atoms: N_10  and  C_11
REMARK    8  A    between atoms: C_14  and  C_15
REMARK                            x       y       z     vdW  Elec       q    Type
REMARK                         _______ _______ _______ _____ _____    ______ ____
ROOT
ATOM      1  C   UNL     1       6.408   5.861  17.858  0.00  0.00    +0.000 A 
ATOM      2  C   UNL     1       6.099   7.029  17.152  0.00  0.00    +0.000 A 
ATOM      3  C   UNL     1       6.864   8.197  17.307  0.00  0.00    +0.000 A 
ATOM      4  C   UNL     1       7.953   8.214  18.180  0.00  0.00    +0.000 A 
ATOM      5  C   UNL     1       8.253   7.041  18.890  0.00  0.00    +0.000 A 
ATOM      6  C   UNL     1       7.489   5.882  18.741  0.00  0.00    +0.000 A 
ENDROOT
BRANCH   4   7
ATOM      7  C   UNL     1       8.751   9.411  18.465  0.00  0.00    +0.000 A 
ATOM      8  N   UNL     1       9.043  10.326  17.562  0.00  0.00    +0.000 NA
ATOM      9  C   UNL     1       9.821  11.256  18.185  0.00  0.00    +0.000 A 
ATOM     10  C   UNL     1      10.409  12.406  17.652  0.00  0.00    +0.000 A 
ATOM     11  C   UNL     1      11.176  13.192  18.503  0.00  0.00    +0.000 A 
ATOM     12  F   UNL     1      11.760  14.296  18.015  0.00  0.00    +0.000 F 
ATOM     13  C   UNL     1      11.356  12.862  19.845  0.00  0.00    +0.000 A 
ATOM     14  C   UNL     1      10.765  11.716  20.397  0.00  0.00    +0.000 A 
ATOM     15  C   UNL     1      10.001  10.931  19.526  0.00  0.00    +0.000 A 
ATOM     16  N   UNL     1       9.290   9.763  19.684  0.00  0.00    +0.000 N 
ATOM     17  H   UNL     1       9.168   9.259  20.550  0.00  0.00    +0.000 HD
ENDBRANCH   4   7
BRANCH   1  20
ATOM     18  C   UNL     1       4.398   4.430  18.230  0.00  0.00    +0.000 C 
ATOM     19  O   UNL     1       3.663   5.259  18.760  0.00  0.00    +0.000 OA
ATOM     20  N   UNL     1       5.675   4.657  17.755  0.00  0.00    +0.000 N 
ATOM     21  H   UNL     1       6.106   3.919  17.212  0.00  0.00    +0.000 HD
BRANCH  18  22
ATOM     22  C   UNL     1       3.925   2.998  18.060  0.00  0.00    +0.000 C 
BRANCH  22  23
ATOM     23  C   UNL     1       2.531   2.890  17.442  0.00  0.00    +0.000 C 
BRANCH  23  24
ATOM     24  C   UNL     1       1.432   2.672  18.490  0.00  0.00    +0.000 C 
BRANCH  24  25
ATOM     25  C   UNL     1       1.972   2.149  19.820  0.00  0.00    +0.000 C 
BRANCH  25  27
ATOM     26  O   UNL     1       1.499   2.592  22.141  0.00  0.00    +0.000 OA
ATOM     27  C   UNL     1       1.603   3.014  20.999  0.00  0.00    +0.000 C 
BRANCH  27  28
ATOM     28  O   UNL     1       1.390   4.309  20.685  0.00  0.00    +0.000 OA
ATOM     29  H   UNL     1       1.903   4.947  21.217  0.00  0.00    +0.000 HD
ENDBRANCH  27  28
ENDBRANCH  25  27
ENDBRANCH  24  25
ENDBRANCH  23  24
ENDBRANCH  22  23
ENDBRANCH  18  22
ENDBRANCH   1  20
TORSDOF 8
ENDMDL
MODEL 2
REMARK VINA RESULT:      -7.7      6.288      8.504
REMARK  Name = 
REMARK  8 active torsions:
REMARK  status: ('A' for Active; 'I' for Inactive)
REMARK    1  A    between atoms: C_2  and  O_3
REMARK    2  A    between atoms: C_2  and  C_4
REMARK    3  A    between atoms: C_4  and  C_5
REMARK    4  A    between atoms: C_5  and  C_6
REMARK    5  A    between atoms: C_6  and  C_7
REMARK    6  A    between atoms: C_7  and  C_8
REMARK    7  A    between atoms: N_10  and  C_11
REMARK    8  A    between atoms: C_14  and  C_15
REMARK                            x       y       z     vdW  Elec       q    Type
REMARK                         _______ _______ _______ _____ _____    ______ ____
ROOT
ATOM      1  C   UNL     1       4.064   5.807  18.153  0.00  0.00    +0.000 A 
ATOM      2  C   UNL     1       3.547   5.405  19.390  0.00  0.00    +0.000 A 
ATOM      3  C   UNL     1       2.638   6.211  20.096  0.00  0.00    +0.000 A 
ATOM      4  C   UNL     1       2.236   7.441  19.573  0.00  0.00    +0.000 A 
ATOM      5  C   UNL     1       2.763   7.841  18.335  0.00  0.00    +0.000 A 
ATOM      6  C   UNL     1       3.671   7.043  17.637  0.00  0.00    +0.000 A 
ENDROOT
BRANCH   4   7
ATOM      7  C   UNL     1       1.360   8.380  20.281  0.00  0.00    +0.000 A 
ATOM      8  N   UNL     1       0.774   9.411  19.703  0.00  0.00    +0.000 NA
ATOM      9  C   UNL     1       0.079  10.062  20.678  0.00  0.00    +0.000 A 
ATOM     10  C   UNL     1      -0.685  11.228  20.579  0.00  0.00    +0.000 A 
ATOM     11  C   UNL     1      -1.292  11.702  21.735  0.00  0.00    +0.000 A 
ATOM     12  F   UNL     1      -2.022  12.825  21.671  0.00  0.00    +0.000 F 
ATOM     13  C   UNL     1      -1.159  11.044  22.957  0.00  0.00    +0.000 A 
ATOM     14  C   UNL     1      -0.404   9.868  23.070  0.00  0.00    +0.000 A 
ATOM     15  C   UNL     1       0.207   9.407  21.898  0.00  0.00    +0.000 A 
ATOM     16  N   UNL     1       1.010   8.325  21.614  0.00  0.00    +0.000 N 
ATOM     17  H   UNL     1       1.282   7.604  22.265  0.00  0.00    +0.000 HD
ENDBRANCH   4   7
BRANCH   1  20
ATOM     18  C   UNL     1       6.273   5.421  17.060  0.00  0.00    +0.000 C 
ATOM     19  O   UNL     1       6.851   6.442  17.422  0.00  0.00    +0.000 OA
ATOM     20  N   UNL     1       4.986   5.049  17.397  0.00  0.00    +0.000 N 
ATOM     21  H   UNL     1       4.693   4.112  17.147  0.00  0.00    +0.000 HD
BRANCH  18  22
ATOM     22  C   UNL     1       6.978   4.434  16.146  0.00  0.00    +0.000 C 
BRANCH  22  23
ATOM     23  C   UNL     1       6.889   4.809  14.667  0.00  0.00    +0.000 C 
BRANCH  23  24
ATOM     24  C   UNL     1       5.900   3.930  13.891  0.00  0.00    +0.000 C 
BRANCH  24  25
ATOM     25  C   UNL     1       6.355   3.640  12.462  0.00  0.00    +0.000 C 
BRANCH  25  27
ATOM     26  O   UNL     1       4.361   2.905  11.325  0.00  0.00    +0.000 OA
ATOM     27  C   UNL     1       5.478   2.643  11.744  0.00  0.00    +0.000 C 
BRANCH  27  28
ATOM     28  O   UNL     1       6.036   1.423  11.603  0.00  0.00    +0.000 OA
ATOM     29  H   UNL     1       6.459   1.073  12.411  0.00  0.00    +0.000 HD
ENDBRANCH  27  28
ENDBRANCH  25  27
ENDBRANCH  24  25
ENDBRANCH  23  24
ENDBRANCH  22  23
ENDBRANCH  18  22
ENDBRANCH   1  20
TORSDOF 8
ENDMDL
MODEL 3
REMARK VINA RESULT:      -7.5      6.802      8.016
REMARK  Name = 
REMARK  8 active torsions:
REMARK  status: ('A' for Active; 'I' for Inactive)
REMARK    1  A    between atoms: C_2  and  O_3
REMARK    2  A    between atoms: C_2  and  C_4
REMARK    3  A    between atoms: C_4  and  C_5
REMARK    4  A    between atoms: C_5  and  C_6
REMARK    5  A    between atoms: C_6  and  C_7
REMARK    6  A    between atoms: C_7  and  C_8
REMARK    7  A    between atoms: N_10  and  C_11
REMARK    8  A    between atoms: C_14  and  C_15
REMARK                            x       y       z     vdW  Elec       q    Type
REMARK                         _______ _______ _______ _____ _____    ______ ____
ROOT
ATOM      1  C   UNL     1       2.559   6.924  18.597  0.00  0.00    +0.000 A 
ATOM      2  C   UNL     1       2.248   8.061  17.843  0.00  0.00    +0.000 A 
ATOM      3  C   UNL     1       1.574   9.153  18.416  0.00  0.00    +0.000 A 
ATOM      4  C   UNL     1       1.195   9.119  19.759  0.00  0.00    +0.000 A 
ATOM      5  C   UNL     1       1.506   7.973  20.508  0.00  0.00    +0.000 A 
ATOM      6  C   UNL     1       2.170   6.886  19.937  0.00  0.00    +0.000 A 
ENDROOT
BRANCH   4   7
ATOM      7  C   UNL     1       0.417  10.175  20.413  0.00  0.00    +0.000 A 
ATOM      8  N   UNL     1      -0.021  10.098  21.654  0.00  0.00    +0.000 NA
ATOM      9  C   UNL     1      -0.726  11.241  21.891  0.00  0.00    +0.000 A 
ATOM     10  C   UNL     1      -1.411  11.624  23.048  0.00  0.00    +0.000 A 
ATOM     11  C   UNL     1      -2.069  12.847  23.032  0.00  0.00    +0.000 A 
ATOM     12  F   UNL     1      -2.743  13.235  24.125  0.00  0.00    +0.000 F 
ATOM     13  C   UNL     1      -2.051  13.677  21.912  0.00  0.00    +0.000 A 
ATOM     14  C   UNL     1      -1.360  13.311  20.748  0.00  0.00    +0.000 A 
ATOM     15  C   UNL     1      -0.708  12.073  20.777  0.00  0.00    +0.000 A 
ATOM     16  N   UNL     1       0.047  11.381  19.856  0.00  0.00    +0.000 N 
ATOM     17  H   UNL     1       0.301  11.708  18.936  0.00  0.00    +0.000 HD
ENDBRANCH   4   7
BRANCH   1  20
ATOM     18  C   UNL     1       2.636   4.638  17.602  0.00  0.00    +0.000 C 
ATOM     19  O   UNL     1       1.431   4.436  17.482  0.00  0.00    +0.000 OA
ATOM     20  N   UNL     1       3.227   5.791  18.081  0.00  0.00    +0.000 N 
ATOM     21  H   UNL     1       4.232   5.871  17.986  0.00  0.00    +0.000 HD
BRANCH  18  22
ATOM     22  C   UNL     1       3.627   3.554  17.215  0.00  0.00    +0.000 C 
BRANCH  22  23
ATOM     23  C   UNL     1       3.343   2.208  17.881  0.00  0.00    +0.000 C 
BRANCH  23  24
ATOM     24  C   UNL     1       3.324   2.295  19.412  0.00  0.00    +0.000 C 
BRANCH  24  25
ATOM     25  C   UNL     1       1.951   1.993  20.009  0.00  0.00    +0.000 C 
BRANCH  25  27
ATOM     26  O   UNL     1       1.873   3.165  22.114  0.00  0.00    +0.000 OA
ATOM     27  C   UNL     1       1.467   3.054  20.967  0.00  0.00    +0.000 C 
BRANCH  27  28
ATOM     28  O   UNL     1       0.535   3.878  20.446  0.00  0.00    +0.000 OA
ATOM     29  H   UNL     1      -0.337   3.834  20.883  0.00  0.00    +0.000 HD
ENDBRANCH  27  28
ENDBRANCH  25  27
ENDBRANCH  24  25
ENDBRANCH  23  24
ENDBRANCH  22  23
ENDBRANCH  18  22
ENDBRANCH   1  20
TORSDOF 8
ENDMDL
MODEL 4
REMARK VINA RESULT:      -7.3      0.687      1.635
REMARK  Name = 
REMARK  8 active torsions:
REMARK  status: ('A' for Active; 'I' for Inactive)
REMARK    1  A    between atoms: C_2  and  O_3
REMARK    2  A    between atoms: C_2  and  C_4
REMARK    3  A    between atoms: C_4  and  C_5
REMARK    4  A    between atoms: C_5  and  C_6
REMARK    5  A    between atoms: C_6  and  C_7
REMARK    6  A    between atoms: C_7  and  C_8
REMARK    7  A    between atoms: N_10  and  C_11
REMARK    8  A    between atoms: C_14  and  C_15
REMARK                            x       y       z     vdW  Elec       q    Type
REMARK                         _______ _______ _______ _____ _____    ______ ____
ROOT
ATOM      1  C   UNL     1       6.500   5.827  17.744  0.00  0.00    +0.000 A 
ATOM      2  C   UNL     1       7.597   5.810  18.612  0.00  0.00    +0.000 A 
ATOM      3  C   UNL     1       8.327   6.979  18.885  0.00  0.00    +0.000 A 
ATOM      4  C   UNL     1       7.970   8.188  18.284  0.00  0.00    +0.000 A 
ATOM      5  C   UNL     1       6.872   8.195  17.409  0.00  0.00    +0.000 A 
ATOM      6  C   UNL     1       6.151   7.032  17.134  0.00  0.00    +0.000 A 
ENDROOT
BRANCH   4   7
ATOM      7  C   UNL     1       8.727   9.433  18.446  0.00  0.00    +0.000 A 
ATOM      8  N   UNL     1       9.257   9.822  19.588  0.00  0.00    +0.000 NA
ATOM      9  C   UNL     1       9.843  11.032  19.355  0.00  0.00    +0.000 A 
ATOM     10  C   UNL     1      10.513  11.867  20.252  0.00  0.00    +0.000 A 
ATOM     11  C   UNL     1      11.015  13.067  19.763  0.00  0.00    +0.000 A 
ATOM     12  F   UNL     1      11.654  13.894  20.604  0.00  0.00    +0.000 F 
ATOM     13  C   UNL     1      10.868  13.435  18.426  0.00  0.00    +0.000 A 
ATOM     14  C   UNL     1      10.207  12.602  17.513  0.00  0.00    +0.000 A 
ATOM     15  C   UNL     1       9.701  11.401  18.021  0.00  0.00    +0.000 A 
ATOM     16  N   UNL     1       9.005  10.354  17.458  0.00  0.00    +0.000 N 
ATOM     17  H   UNL     1       8.758  10.267  16.484  0.00  0.00    +0.000 HD
ENDBRANCH   4   7
BRANCH   1  20
ATOM     18  C   UNL     1       4.424   4.444  17.803  0.00  0.00    +0.000 C 
ATOM     19  O   UNL     1       3.696   5.211  18.427  0.00  0.00    +0.000 OA
ATOM     20  N   UNL     1       5.729   4.687  17.421  0.00  0.00    +0.000 N 
ATOM     21  H   UNL     1       6.157   4.025  16.785  0.00  0.00    +0.000 HD
BRANCH  18  22
ATOM     22  C   UNL     1       3.907   3.078  17.388  0.00  0.00    +0.000 C 
BRANCH  22  23
ATOM     23  C   UNL     1       2.430   2.864  17.718  0.00  0.00    +0.000 C 
BRANCH  23  24
ATOM     24  C   UNL     1       2.218   2.125  19.045  0.00  0.00    +0.000 C 
BRANCH  24  25
ATOM     25  C   UNL     1       1.214   2.820  19.961  0.00  0.00    +0.000 C 
BRANCH  25  27
ATOM     26  O   UNL     1       2.060   3.015  22.210  0.00  0.00    +0.000 OA
ATOM     27  C   UNL     1       1.857   3.536  21.123  0.00  0.00    +0.000 C 
BRANCH  27  28
ATOM     28  O   UNL     1       2.191   4.817  20.862  0.00  0.00    +0.000 OA
ATOM     29  H   UNL     1       1.526   5.476  21.138  0.00  0.00    +0.000 HD
ENDBRANCH  27  28
ENDBRANCH  25  27
ENDBRANCH  24  25
ENDBRANCH  23  24
ENDBRANCH  22  23
ENDBRANCH  18  22
ENDBRANCH   1  20
TORSDOF 8
ENDMDL
MODEL 5
REMARK VINA RESULT:      -7.3      0.860      1.384
REMARK  Name = 
REMARK  8 active torsions:
REMARK  status: ('A' for Active; 'I' for Inactive)
REMARK    1  A    between atoms: C_2  and  O_3
REMARK    2  A    between atoms: C_2  and  C_4
REMARK    3  A    between atoms: C_4  and  C_5
REMARK    4  A    between atoms: C_5  and  C_6
REMARK    5  A    between atoms: C_6  and  C_7
REMARK    6  A    between atoms: C_7  and  C_8
REMARK    7  A    between atoms: N_10  and  C_11
REMARK    8  A    between atoms: C_14  and  C_15
REMARK                            x       y       z     vdW  Elec       q    Type
REMARK                         _______ _______ _______ _____ _____    ______ ____
ROOT
ATOM      1  C   UNL     1       6.448   5.502  17.878  0.00  0.00    +0.000 A 
ATOM      2  C   UNL     1       6.036   6.584  17.093  0.00  0.00    +0.000 A 
ATOM      3  C   UNL     1       6.686   7.828  17.169  0.00  0.00    +0.000 A 
ATOM      4  C   UNL     1       7.762   8.007  18.041  0.00  0.00    +0.000 A 
ATOM      5  C   UNL     1       8.165   6.918  18.829  0.00  0.00    +0.000 A 
ATOM      6  C   UNL     1       7.515   5.684  18.758  0.00  0.00    +0.000 A 
ENDROOT
BRANCH   4   7
ATOM      7  C   UNL     1       8.441   9.290  18.244  0.00  0.00    +0.000 A 
ATOM      8  N   UNL     1       9.325   9.506  19.198  0.00  0.00    +0.000 NA
ATOM      9  C   UNL     1       9.704  10.811  19.092  0.00  0.00    +0.000 A 
ATOM     10  C   UNL     1      10.599  11.531  19.888  0.00  0.00    +0.000 A 
ATOM     11  C   UNL     1      10.807  12.869  19.576  0.00  0.00    +0.000 A 
ATOM     12  F   UNL     1      11.653  13.586  20.330  0.00  0.00    +0.000 F 
ATOM     13  C   UNL     1      10.158  13.483  18.506  0.00  0.00    +0.000 A 
ATOM     14  C   UNL     1       9.264  12.772  17.693  0.00  0.00    +0.000 A 
ATOM     15  C   UNL     1       9.060  11.427  18.024  0.00  0.00    +0.000 A 
ATOM     16  N   UNL     1       8.278  10.430  17.485  0.00  0.00    +0.000 N 
ATOM     17  H   UNL     1       7.698  10.513  16.664  0.00  0.00    +0.000 HD
ENDBRANCH   4   7
BRANCH   1  20
ATOM     18  C   UNL     1       4.496   3.968  17.629  0.00  0.00    +0.000 C 
ATOM     19  O   UNL     1       3.633   4.794  17.342  0.00  0.00    +0.000 OA
ATOM     20  N   UNL     1       5.833   4.229  17.855  0.00  0.00    +0.000 N 
ATOM     21  H   UNL     1       6.453   3.433  17.938  0.00  0.00    +0.000 HD
BRANCH  18  22
ATOM     22  C   UNL     1       4.122   2.504  17.777  0.00  0.00    +0.000 C 
BRANCH  22  23
ATOM     23  C   UNL     1       2.645   2.225  17.499  0.00  0.00    +0.000 C 
BRANCH  23  24
ATOM     24  C   UNL     1       1.803   2.155  18.779  0.00  0.00    +0.000 C 
BRANCH  24  25
ATOM     25  C   UNL     1       2.635   2.315  20.050  0.00  0.00    +0.000 C 
BRANCH  25  27
ATOM     26  O   UNL     1       2.322   3.055  22.322  0.00  0.00    +0.000 OA
ATOM     27  C   UNL     1       1.871   2.936  21.193  0.00  0.00    +0.000 C 
BRANCH  27  28
ATOM     28  O   UNL     1       0.631   3.354  20.862  0.00  0.00    +0.000 OA
ATOM     29  H   UNL     1       0.196   3.911  21.535  0.00  0.00    +0.000 HD
ENDBRANCH  27  28
ENDBRANCH  25  27
ENDBRANCH  24  25
ENDBRANCH  23  24
ENDBRANCH  22  23
ENDBRANCH  18  22
ENDBRANCH   1  20
TORSDOF 8
ENDMDL
MODEL 6
REMARK VINA RESULT:      -7.2      6.568      8.636
REMARK  Name = 
REMARK  8 active torsions:
REMARK  status: ('A' for Active; 'I' for Inactive)
REMARK    1  A    between atoms: C_2  and  O_3
REMARK    2  A    between atoms: C_2  and  C_4
REMARK    3  A    between atoms: C_4  and  C_5
REMARK    4  A    between atoms: C_5  and  C_6
REMARK    5  A    between atoms: C_6  and  C_7
REMARK    6  A    between atoms: C_7  and  C_8
REMARK    7  A    between atoms: N_10  and  C_11
REMARK    8  A    between atoms: C_14  and  C_15
REMARK                            x       y       z     vdW  Elec       q    Type
REMARK                         _______ _______ _______ _____ _____    ______ ____
ROOT
ATOM      1  C   UNL     1       3.657   6.428  18.052  0.00  0.00    +0.000 A 
ATOM      2  C   UNL     1       3.335   7.693  17.547  0.00  0.00    +0.000 A 
ATOM      3  C   UNL     1       2.504   8.573  18.261  0.00  0.00    +0.000 A 
ATOM      4  C   UNL     1       1.977   8.194  19.497  0.00  0.00    +0.000 A 
ATOM      5  C   UNL     1       2.299   6.921  19.995  0.00  0.00    +0.000 A 
ATOM      6  C   UNL     1       3.119   6.045  19.282  0.00  0.00    +0.000 A 
ENDROOT
BRANCH   4   7
ATOM      7  C   UNL     1       1.037   9.013  20.267  0.00  0.00    +0.000 A 
ATOM      8  N   UNL     1       0.391  10.049  19.768  0.00  0.00    +0.000 NA
ATOM      9  C   UNL     1      -0.353  10.572  20.784  0.00  0.00    +0.000 A 
ATOM     10  C   UNL     1      -1.189  11.692  20.771  0.00  0.00    +0.000 A 
ATOM     11  C   UNL     1      -1.835  12.029  21.954  0.00  0.00    +0.000 A 
ATOM     12  F   UNL     1      -2.636  13.105  21.972  0.00  0.00    +0.000 F 
ATOM     13  C   UNL     1      -1.669  11.282  23.120  0.00  0.00    +0.000 A 
ATOM     14  C   UNL     1      -0.841  10.151  23.146  0.00  0.00    +0.000 A 
ATOM     15  C   UNL     1      -0.193   9.828  21.948  0.00  0.00    +0.000 A 
ATOM     16  N   UNL     1       0.681   8.826  21.587  0.00  0.00    +0.000 N 
ATOM     17  H   UNL     1       0.993   8.073  22.180  0.00  0.00    +0.000 HD
ENDBRANCH   4   7
BRANCH   1  20
ATOM     18  C   UNL     1       5.823   5.274  17.607  0.00  0.00    +0.000 C 
ATOM     19  O   UNL     1       6.510   5.805  18.475  0.00  0.00    +0.000 OA
ATOM     20  N   UNL     1       4.478   5.494  17.381  0.00  0.00    +0.000 N 
ATOM     21  H   UNL     1       4.010   4.878  16.727  0.00  0.00    +0.000 HD
BRANCH  18  22
ATOM     22  C   UNL     1       6.451   4.277  16.648  0.00  0.00    +0.000 C 
BRANCH  22  23
ATOM     23  C   UNL     1       6.446   4.750  15.194  0.00  0.00    +0.000 C 
BRANCH  23  24
ATOM     24  C   UNL     1       5.690   3.794  14.262  0.00  0.00    +0.000 C 
BRANCH  24  25
ATOM     25  C   UNL     1       6.282   3.741  12.856  0.00  0.00    +0.000 C 
BRANCH  25  27
ATOM     26  O   UNL     1       4.450   3.031  11.459  0.00  0.00    +0.000 OA
ATOM     27  C   UNL     1       5.552   2.797  11.932  0.00  0.00    +0.000 C 
BRANCH  27  28
ATOM     28  O   UNL     1       6.224   1.656  11.670  0.00  0.00    +0.000 OA
ATOM     29  H   UNL     1       6.497   1.154  12.461  0.00  0.00    +0.000 HD
ENDBRANCH  27  28
ENDBRANCH  25  27
ENDBRANCH  24  25
ENDBRANCH  23  24
ENDBRANCH  22  23
ENDBRANCH  18  22
ENDBRANCH   1  20
TORSDOF 8
ENDMDL
MODEL 7
REMARK VINA RESULT:      -7.2      6.361      8.468
REMARK  Name = 
REMARK  8 active torsions:
REMARK  status: ('A' for Active; 'I' for Inactive)
REMARK    1  A    between atoms: C_2  and  O_3
REMARK    2  A    between atoms: C_2  and  C_4
REMARK    3  A    between atoms: C_4  and  C_5
REMARK    4  A    between atoms: C_5  and  C_6
REMARK    5  A    between atoms: C_6  and  C_7
REMARK    6  A    between atoms: C_7  and  C_8
REMARK    7  A    between atoms: N_10  and  C_11
REMARK    8  A    between atoms: C_14  and  C_15
REMARK                            x       y       z     vdW  Elec       q    Type
REMARK                         _______ _______ _______ _____ _____    ______ ____
ROOT
ATOM      1  C   UNL     1       4.035   5.602  17.324  0.00  0.00    +0.000 A 
ATOM      2  C   UNL     1       4.009   6.979  17.078  0.00  0.00    +0.000 A 
ATOM      3  C   UNL     1       3.289   7.853  17.910  0.00  0.00    +0.000 A 
ATOM      4  C   UNL     1       2.577   7.357  19.004  0.00  0.00    +0.000 A 
ATOM      5  C   UNL     1       2.604   5.974  19.241  0.00  0.00    +0.000 A 
ATOM      6  C   UNL     1       3.314   5.105  18.410  0.00  0.00    +0.000 A 
ENDROOT
BRANCH   4   7
ATOM      7  C   UNL     1       1.734   8.185  19.871  0.00  0.00    +0.000 A 
ATOM      8  N   UNL     1       1.063   9.239  19.448  0.00  0.00    +0.000 NA
ATOM      9  C   UNL     1       0.433   9.764  20.537  0.00  0.00    +0.000 A 
ATOM     10  C   UNL     1      -0.378  10.899  20.617  0.00  0.00    +0.000 A 
ATOM     11  C   UNL     1      -0.897  11.234  21.862  0.00  0.00    +0.000 A 
ATOM     12  F   UNL     1      -1.670  12.325  21.969  0.00  0.00    +0.000 F 
ATOM     13  C   UNL     1      -0.632  10.471  22.998  0.00  0.00    +0.000 A 
ATOM     14  C   UNL     1       0.171   9.324  22.931  0.00  0.00    +0.000 A 
ATOM     15  C   UNL     1       0.692   9.003  21.673  0.00  0.00    +0.000 A 
ATOM     16  N   UNL     1       1.506   7.990  21.217  0.00  0.00    +0.000 N 
ATOM     17  H   UNL     1       1.860   7.223  21.770  0.00  0.00    +0.000 HD
ENDBRANCH   4   7
BRANCH   1  20
ATOM     18  C   UNL     1       5.844   4.923  15.745  0.00  0.00    +0.000 C 
ATOM     19  O   UNL     1       6.453   5.988  15.677  0.00  0.00    +0.000 OA
ATOM     20  N   UNL     1       4.731   4.669  16.523  0.00  0.00    +0.000 N 
ATOM     21  H   UNL     1       4.423   3.706  16.591  0.00  0.00    +0.000 HD
BRANCH  18  22
ATOM     22  C   UNL     1       6.298   3.736  14.914  0.00  0.00    +0.000 C 
BRANCH  22  23
ATOM     23  C   UNL     1       6.227   3.990  13.408  0.00  0.00    +0.000 C 
BRANCH  23  24
ATOM     24  C   UNL     1       5.071   3.241  12.733  0.00  0.00    +0.000 C 
BRANCH  24  25
ATOM     25  C   UNL     1       5.407   2.778  11.317  0.00  0.00    +0.000 C 
BRANCH  25  27
ATOM     26  O   UNL     1       7.649   1.941  11.030  0.00  0.00    +0.000 OA
ATOM     27  C   UNL     1       6.473   1.712  11.271  0.00  0.00    +0.000 C 
BRANCH  27  28
ATOM     28  O   UNL     1       6.016   0.467  11.520  0.00  0.00    +0.000 OA
ATOM     29  H   UNL     1       5.056   0.412  11.690  0.00  0.00    +0.000 HD
ENDBRANCH  27  28
ENDBRANCH  25  27
ENDBRANCH  24  25
ENDBRANCH  23  24
ENDBRANCH  22  23
ENDBRANCH  18  22
ENDBRANCH   1  20
TORSDOF 8
ENDMDL
MODEL 8
REMARK VINA RESULT:      -7.2      6.806      7.839
REMARK  Name = 
REMARK  8 active torsions:
REMARK  status: ('A' for Active; 'I' for Inactive)
REMARK    1  A    between atoms: C_2  and  O_3
REMARK    2  A    between atoms: C_2  and  C_4
REMARK    3  A    between atoms: C_4  and  C_5
REMARK    4  A    between atoms: C_5  and  C_6
REMARK    5  A    between atoms: C_6  and  C_7
REMARK    6  A    between atoms: C_7  and  C_8
REMARK    7  A    between atoms: N_10  and  C_11
REMARK    8  A    between atoms: C_14  and  C_15
REMARK                            x       y       z     vdW  Elec       q    Type
REMARK                         _______ _______ _______ _____ _____    ______ ____
ROOT
ATOM      1  C   UNL     1       2.323   6.945  18.662  0.00  0.00    +0.000 A 
ATOM      2  C   UNL     1       2.067   8.125  17.955  0.00  0.00    +0.000 A 
ATOM      3  C   UNL     1       1.565   9.267  18.602  0.00  0.00    +0.000 A 
ATOM      4  C   UNL     1       1.307   9.242  19.974  0.00  0.00    +0.000 A 
ATOM      5  C   UNL     1       1.561   8.052  20.675  0.00  0.00    +0.000 A 
ATOM      6  C   UNL     1       2.053   6.916  20.031  0.00  0.00    +0.000 A 
ENDROOT
BRANCH   4   7
ATOM      7  C   UNL     1       0.706  10.357  20.711  0.00  0.00    +0.000 A 
ATOM      8  N   UNL     1      -0.235  10.209  21.622  0.00  0.00    +0.000 NA
ATOM      9  C   UNL     1      -0.562  11.460  22.054  0.00  0.00    +0.000 A 
ATOM     10  C   UNL     1      -1.524  11.838  22.994  0.00  0.00    +0.000 A 
ATOM     11  C   UNL     1      -1.674  13.195  23.253  0.00  0.00    +0.000 A 
ATOM     12  F   UNL     1      -2.597  13.588  24.143  0.00  0.00    +0.000 F 
ATOM     13  C   UNL     1      -0.895  14.156  22.610  0.00  0.00    +0.000 A 
ATOM     14  C   UNL     1       0.081  13.791  21.672  0.00  0.00    +0.000 A 
ATOM     15  C   UNL     1       0.215  12.422  21.417  0.00  0.00    +0.000 A 
ATOM     16  N   UNL     1       1.032  11.691  20.583  0.00  0.00    +0.000 N 
ATOM     17  H   UNL     1       1.758  12.066  19.991  0.00  0.00    +0.000 HD
ENDBRANCH   4   7
BRANCH   1  20
ATOM     18  C   UNL     1       4.123   5.517  17.691  0.00  0.00    +0.000 C 
ATOM     19  O   UNL     1       5.082   6.264  17.868  0.00  0.00    +0.000 OA
ATOM     20  N   UNL     1       2.818   5.761  18.071  0.00  0.00    +0.000 N 
ATOM     21  H   UNL     1       2.161   4.994  17.991  0.00  0.00    +0.000 HD
BRANCH  18  22
ATOM     22  C   UNL     1       4.320   4.188  16.984  0.00  0.00    +0.000 C 
BRANCH  22  23
ATOM     23  C   UNL     1       3.083   3.291  17.025  0.00  0.00    +0.000 C 
BRANCH  23  24
ATOM     24  C   UNL     1       3.283   2.042  17.893  0.00  0.00    +0.000 C 
BRANCH  24  25
ATOM     25  C   UNL     1       2.552   2.123  19.231  0.00  0.00    +0.000 C 
BRANCH  25  27
ATOM     26  O   UNL     1       0.799   3.738  19.592  0.00  0.00    +0.000 OA
ATOM     27  C   UNL     1       1.149   2.668  19.116  0.00  0.00    +0.000 C 
BRANCH  27  28
ATOM     28  O   UNL     1       0.302   1.867  18.437  0.00  0.00    +0.000 OA
ATOM     29  H   UNL     1      -0.317   2.336  17.846  0.00  0.00    +0.000 HD
ENDBRANCH  27  28
ENDBRANCH  25  27
ENDBRANCH  24  25
ENDBRANCH  23  24
ENDBRANCH  22  23
ENDBRANCH  18  22
ENDBRANCH   1  20
TORSDOF 8
ENDMDL
MODEL 9
REMARK VINA RESULT:      -7.1      6.768      8.402
REMARK  Name = 
REMARK  8 active torsions:
REMARK  status: ('A' for Active; 'I' for Inactive)
REMARK    1  A    between atoms: C_2  and  O_3
REMARK    2  A    between atoms: C_2  and  C_4
REMARK    3  A    between atoms: C_4  and  C_5
REMARK    4  A    between atoms: C_5  and  C_6
REMARK    5  A    between atoms: C_6  and  C_7
REMARK    6  A    between atoms: C_7  and  C_8
REMARK    7  A    between atoms: N_10  and  C_11
REMARK    8  A    between atoms: C_14  and  C_15
REMARK                            x       y       z     vdW  Elec       q    Type
REMARK                         _______ _______ _______ _____ _____    ______ ____
ROOT
ATOM      1  C   UNL     1       2.342   6.322  19.189  0.00  0.00    +0.000 A 
ATOM      2  C   UNL     1       1.804   6.292  20.480  0.00  0.00    +0.000 A 
ATOM      3  C   UNL     1       1.241   7.441  21.062  0.00  0.00    +0.000 A 
ATOM      4  C   UNL     1       1.213   8.644  20.355  0.00  0.00    +0.000 A 
ATOM      5  C   UNL     1       1.759   8.668  19.062  0.00  0.00    +0.000 A 
ATOM      6  C   UNL     1       2.325   7.528  18.487  0.00  0.00    +0.000 A 
ENDROOT
BRANCH   4   7
ATOM      7  C   UNL     1       0.722   9.907  20.915  0.00  0.00    +0.000 A 
ATOM      8  N   UNL     1      -0.168   9.979  21.885  0.00  0.00    +0.000 NA
ATOM      9  C   UNL     1      -0.397  11.305  22.108  0.00  0.00    +0.000 A 
ATOM     10  C   UNL     1      -1.276  11.901  23.015  0.00  0.00    +0.000 A 
ATOM     11  C   UNL     1      -1.333  13.289  23.040  0.00  0.00    +0.000 A 
ATOM     12  F   UNL     1      -2.176  13.889  23.894  0.00  0.00    +0.000 F 
ATOM     13  C   UNL     1      -0.542  14.072  22.200  0.00  0.00    +0.000 A 
ATOM     14  C   UNL     1       0.351  13.488  21.292  0.00  0.00    +0.000 A 
ATOM     15  C   UNL     1       0.393  12.089  21.274  0.00  0.00    +0.000 A 
ATOM     16  N   UNL     1       1.114  11.175  20.539  0.00  0.00    +0.000 N 
ATOM     17  H   UNL     1       1.822  11.394  19.854  0.00  0.00    +0.000 HD
ENDBRANCH   4   7
BRANCH   1  20
ATOM     18  C   UNL     1       2.285   4.287  17.747  0.00  0.00    +0.000 C 
ATOM     19  O   UNL     1       1.108   4.327  17.399  0.00  0.00    +0.000 OA
ATOM     20  N   UNL     1       2.930   5.206  18.551  0.00  0.00    +0.000 N 
ATOM     21  H   UNL     1       3.936   5.124  18.635  0.00  0.00    +0.000 HD
BRANCH  18  22
ATOM     22  C   UNL     1       3.169   3.138  17.296  0.00  0.00    +0.000 C 
BRANCH  22  23
ATOM     23  C   UNL     1       4.630   3.541  17.093  0.00  0.00    +0.000 C 
BRANCH  23  24
ATOM     24  C   UNL     1       4.870   4.248  15.753  0.00  0.00    +0.000 C 
BRANCH  24  25
ATOM     25  C   UNL     1       5.803   5.451  15.872  0.00  0.00    +0.000 C 
BRANCH  25  27
ATOM     26  O   UNL     1       7.777   5.410  14.490  0.00  0.00    +0.000 OA
ATOM     27  C   UNL     1       7.241   5.129  15.551  0.00  0.00    +0.000 C 
BRANCH  27  28
ATOM     28  O   UNL     1       7.896   4.494  16.545  0.00  0.00    +0.000 OA
ATOM     29  H   UNL     1       8.011   3.534  16.410  0.00  0.00    +0.000 HD
ENDBRANCH  27  28
ENDBRANCH  25  27
ENDBRANCH  24  25
ENDBRANCH  23  24
ENDBRANCH  22  23
ENDBRANCH  18  22
ENDBRANCH   1  20
TORSDOF 8
ENDMDL
