MODEL 1
REMARK VINA RESULT:      -5.9      0.000      0.000
REMARK  Name = 
REMARK  2 active torsions:
REMARK  status: ('A' for Active; 'I' for Inactive)
REMARK    1  A    between atoms: C_1  and  C_2
REMARK    2  A    between atoms: C_6  and  C_7
REMARK                            x       y       z     vdW  Elec       q    Type
REMARK                         _______ _______ _______ _____ _____    ______ ____
ROOT
ATOM      1  C   UNL     1       2.223   3.665  21.640  0.00  0.00    +0.000 C 
ATOM      2  C   UNL     1       1.364   4.093  20.455  0.00  0.00    +0.000 C 
ATOM      3  N   UNL     1       0.461   2.982  20.062  0.00  0.00    +0.000 NA
ATOM      4  C   UNL     1       0.889   2.559  18.727  0.00  0.00    +0.000 C 
ATOM      5  C   UNL     1       1.389   3.821  18.057  0.00  0.00    +0.000 C 
ATOM      6  C   UNL     1       2.098   4.571  19.183  0.00  0.00    +0.000 C 
ATOM      7  H   UNL     1      -0.485   3.358  19.991  0.00  0.00    +0.000 HD
ENDROOT
BRANCH   6   8
ATOM      8  C   UNL     1       3.585   4.402  19.163  0.00  0.00    +0.000 A 
ATOM      9  C   UNL     1       4.359   3.292  18.891  0.00  0.00    +0.000 A 
ATOM     10  N   UNL     1       5.655   3.720  18.964  0.00  0.00    +0.000 N 
ATOM     11  C   UNL     1       5.632   5.048  19.283  0.00  0.00    +0.000 A 
ATOM     12  N   UNL     1       4.400   5.487  19.410  0.00  0.00    +0.000 NA
ATOM     13  H   UNL     1       6.484   3.168  18.799  0.00  0.00    +0.000 HD
ENDBRANCH   6   8
TORSDOF 1
ENDMDL
MODEL 2
REMARK VINA RESULT:      -5.2      1.100      1.191
REMARK  Name = 
REMARK  2 active torsions:
REMARK  status: ('A' for Active; 'I' for Inactive)
REMARK    1  A    between atoms: C_1  and  C_2
REMARK    2  A    between atoms: C_6  and  C_7
REMARK                            x       y       z     vdW  Elec       q    Type
REMARK                         _______ _______ _______ _____ _____    ______ ____
ROOT
ATOM      1  C   UNL     1       2.096   5.319  20.549  0.00  0.00    +0.000 C 
ATOM      2  C   UNL     1       1.362   4.475  19.514  0.00  0.00    +0.000 C 
ATOM      3  N   UNL     1       0.671   3.344  20.184  0.00  0.00    +0.000 NA
ATOM      4  C   UNL     1       1.331   2.124  19.714  0.00  0.00    +0.000 C 
ATOM      5  C   UNL     1       1.754   2.429  18.293  0.00  0.00    +0.000 C 
ATOM      6  C   UNL     1       2.198   3.890  18.354  0.00  0.00    +0.000 C 
ATOM      7  H   UNL     1      -0.296   3.332  19.859  0.00  0.00    +0.000 HD
ENDROOT
BRANCH   6   8
ATOM      8  C   UNL     1       3.683   4.054  18.448  0.00  0.00    +0.000 A 
ATOM      9  C   UNL     1       4.621   3.343  19.170  0.00  0.00    +0.000 A 
ATOM     10  N   UNL     1       5.830   3.889  18.841  0.00  0.00    +0.000 N 
ATOM     11  C   UNL     1       5.595   4.903  17.956  0.00  0.00    +0.000 A 
ATOM     12  N   UNL     1       4.312   5.027  17.701  0.00  0.00    +0.000 NA
ATOM     13  H   UNL     1       6.736   3.594  19.173  0.00  0.00    +0.000 HD
ENDBRANCH   6   8
TORSDOF 1
ENDMDL
MODEL 3
REMARK VINA RESULT:      -5.2      1.725      2.335
REMARK  Name = 
REMARK  2 active torsions:
REMARK  status: ('A' for Active; 'I' for Inactive)
REMARK    1  A    between atoms: C_1  and  C_2
REMARK    2  A    between atoms: C_6  and  C_7
REMARK                            x       y       z     vdW  Elec       q    Type
REMARK                         _______ _______ _______ _____ _____    ______ ____
ROOT
ATOM      1  C   UNL     1       2.320   5.701  18.238  0.00  0.00    +0.000 C 
ATOM      2  C   UNL     1       1.909   4.335  17.702  0.00  0.00    +0.000 C 
ATOM      3  N   UNL     1       1.091   3.622  18.715  0.00  0.00    +0.000 NA
ATOM      4  C   UNL     1       1.881   2.463  19.138  0.00  0.00    +0.000 C 
ATOM      5  C   UNL     1       2.660   2.050  17.908  0.00  0.00    +0.000 C 
ATOM      6  C   UNL     1       3.038   3.379  17.256  0.00  0.00    +0.000 C 
ATOM      7  H   UNL     1       0.246   3.284  18.253  0.00  0.00    +0.000 HD
ENDROOT
BRANCH   6   8
ATOM      8  C   UNL     1       4.440   3.810  17.558  0.00  0.00    +0.000 A 
ATOM      9  C   UNL     1       5.148   3.796  18.743  0.00  0.00    +0.000 A 
ATOM     10  N   UNL     1       6.397   4.251  18.430  0.00  0.00    +0.000 N 
ATOM     11  C   UNL     1       6.409   4.534  17.093  0.00  0.00    +0.000 A 
ATOM     12  N   UNL     1       5.244   4.279  16.541  0.00  0.00    +0.000 NA
ATOM     13  H   UNL     1       7.180   4.349  19.060  0.00  0.00    +0.000 HD
ENDBRANCH   6   8
TORSDOF 1
ENDMDL
MODEL 4
REMARK VINA RESULT:      -5.1      1.644      3.773
REMARK  Name = 
REMARK  2 active torsions:
REMARK  status: ('A' for Active; 'I' for Inactive)
REMARK    1  A    between atoms: C_1  and  C_2
REMARK    2  A    between atoms: C_6  and  C_7
REMARK                            x       y       z     vdW  Elec       q    Type
REMARK                         _______ _______ _______ _____ _____    ______ ____
ROOT
ATOM      1  C   UNL     1       3.642   2.494  17.798  0.00  0.00    +0.000 C 
ATOM      2  C   UNL     1       3.098   3.813  17.261  0.00  0.00    +0.000 C 
ATOM      3  N   UNL     1       4.214   4.768  17.046  0.00  0.00    +0.000 NA
ATOM      4  C   UNL     1       4.011   5.858  18.004  0.00  0.00    +0.000 C 
ATOM      5  C   UNL     1       2.509   5.980  18.146  0.00  0.00    +0.000 C 
ATOM      6  C   UNL     1       2.022   4.533  18.105  0.00  0.00    +0.000 C 
ATOM      7  H   UNL     1       4.123   5.148  16.104  0.00  0.00    +0.000 HD
ENDROOT
BRANCH   6   8
ATOM      8  C   UNL     1       1.742   3.964  19.460  0.00  0.00    +0.000 A 
ATOM      9  C   UNL     1       0.793   3.050  19.872  0.00  0.00    +0.000 A 
ATOM     10  N   UNL     1       1.023   2.853  21.204  0.00  0.00    +0.000 N 
ATOM     11  C   UNL     1       2.078   3.646  21.559  0.00  0.00    +0.000 A 
ATOM     12  N   UNL     1       2.531   4.327  20.531  0.00  0.00    +0.000 NA
ATOM     13  H   UNL     1       0.524   2.227  21.818  0.00  0.00    +0.000 HD
ENDBRANCH   6   8
TORSDOF 1
ENDMDL
MODEL 5
REMARK VINA RESULT:      -5.1      1.063      2.231
REMARK  Name = 
REMARK  2 active torsions:
REMARK  status: ('A' for Active; 'I' for Inactive)
REMARK    1  A    between atoms: C_1  and  C_2
REMARK    2  A    between atoms: C_6  and  C_7
REMARK                            x       y       z     vdW  Elec       q    Type
REMARK                         _______ _______ _______ _____ _____    ______ ____
ROOT
ATOM      1  C   UNL     1       2.269   2.438  17.889  0.00  0.00    +0.000 C 
ATOM      2  C   UNL     1       2.072   2.416  19.401  0.00  0.00    +0.000 C 
ATOM      3  N   UNL     1       0.702   2.880  19.737  0.00  0.00    +0.000 NA
ATOM      4  C   UNL     1       0.864   4.143  20.460  0.00  0.00    +0.000 C 
ATOM      5  C   UNL     1       2.162   3.994  21.225  0.00  0.00    +0.000 C 
ATOM      6  C   UNL     1       3.065   3.231  20.257  0.00  0.00    +0.000 C 
ATOM      7  H   UNL     1       0.288   2.197  20.372  0.00  0.00    +0.000 HD
ENDROOT
BRANCH   6   8
ATOM      8  C   UNL     1       4.022   4.114  19.518  0.00  0.00    +0.000 A 
ATOM      9  C   UNL     1       3.872   5.401  19.044  0.00  0.00    +0.000 A 
ATOM     10  N   UNL     1       5.078   5.735  18.497  0.00  0.00    +0.000 N 
ATOM     11  C   UNL     1       5.907   4.658  18.641  0.00  0.00    +0.000 A 
ATOM     12  N   UNL     1       5.298   3.666  19.251  0.00  0.00    +0.000 NA
ATOM     13  H   UNL     1       5.327   6.618  18.076  0.00  0.00    +0.000 HD
ENDBRANCH   6   8
TORSDOF 1
ENDMDL
MODEL 6
REMARK VINA RESULT:      -5.1      1.340      3.970
REMARK  Name = 
REMARK  2 active torsions:
REMARK  status: ('A' for Active; 'I' for Inactive)
REMARK    1  A    between atoms: C_1  and  C_2
REMARK    2  A    between atoms: C_6  and  C_7
REMARK                            x       y       z     vdW  Elec       q    Type
REMARK                         _______ _______ _______ _____ _____    ______ ____
ROOT
ATOM      1  C   UNL     1       3.549   1.875  17.903  0.00  0.00    +0.000 C 
ATOM      2  C   UNL     1       3.803   3.357  17.651  0.00  0.00    +0.000 C 
ATOM      3  N   UNL     1       5.251   3.650  17.794  0.00  0.00    +0.000 NA
ATOM      4  C   UNL     1       5.379   4.524  18.962  0.00  0.00    +0.000 C 
ATOM      5  C   UNL     1       4.113   5.353  18.974  0.00  0.00    +0.000 C 
ATOM      6  C   UNL     1       3.033   4.368  18.530  0.00  0.00    +0.000 C 
ATOM      7  H   UNL     1       5.547   4.173  16.968  0.00  0.00    +0.000 HD
ENDROOT
BRANCH   6   8
ATOM      8  C   UNL     1       2.243   3.802  19.669  0.00  0.00    +0.000 A 
ATOM      9  C   UNL     1       0.913   3.443  19.749  0.00  0.00    +0.000 A 
ATOM     10  N   UNL     1       0.743   2.936  21.006  0.00  0.00    +0.000 N 
ATOM     11  C   UNL     1       1.948   3.011  21.645  0.00  0.00    +0.000 A 
ATOM     12  N   UNL     1       2.871   3.528  20.866  0.00  0.00    +0.000 NA
ATOM     13  H   UNL     1      -0.108   2.558  21.395  0.00  0.00    +0.000 HD
ENDBRANCH   6   8
TORSDOF 1
ENDMDL
MODEL 7
REMARK VINA RESULT:      -5.1      1.815      3.781
REMARK  Name = 
REMARK  2 active torsions:
REMARK  status: ('A' for Active; 'I' for Inactive)
REMARK    1  A    between atoms: C_1  and  C_2
REMARK    2  A    between atoms: C_6  and  C_7
REMARK                            x       y       z     vdW  Elec       q    Type
REMARK                         _______ _______ _______ _____ _____    ______ ____
ROOT
ATOM      1  C   UNL     1       3.527   2.084  17.966  0.00  0.00    +0.000 C 
ATOM      2  C   UNL     1       2.858   3.325  17.385  0.00  0.00    +0.000 C 
ATOM      3  N   UNL     1       3.889   4.246  16.844  0.00  0.00    +0.000 NA
ATOM      4  C   UNL     1       3.846   5.447  17.682  0.00  0.00    +0.000 C 
ATOM      5  C   UNL     1       2.396   5.586  18.094  0.00  0.00    +0.000 C 
ATOM      6  C   UNL     1       1.947   4.144  18.326  0.00  0.00    +0.000 C 
ATOM      7  H   UNL     1       3.610   4.504  15.897  0.00  0.00    +0.000 HD
ENDROOT
BRANCH   6   8
ATOM      8  C   UNL     1       1.945   3.749  19.770  0.00  0.00    +0.000 A 
ATOM      9  C   UNL     1       2.628   4.278  20.846  0.00  0.00    +0.000 A 
ATOM     10  N   UNL     1       2.209   3.566  21.934  0.00  0.00    +0.000 N 
ATOM     11  C   UNL     1       1.310   2.635  21.495  0.00  0.00    +0.000 A 
ATOM     12  N   UNL     1       1.131   2.721  20.196  0.00  0.00    +0.000 NA
ATOM     13  H   UNL     1       2.493   3.704  22.893  0.00  0.00    +0.000 HD
ENDBRANCH   6   8
TORSDOF 1
ENDMDL
MODEL 8
REMARK VINA RESULT:      -5.0      2.951      5.122
REMARK  Name = 
REMARK  2 active torsions:
REMARK  status: ('A' for Active; 'I' for Inactive)
REMARK    1  A    between atoms: C_1  and  C_2
REMARK    2  A    between atoms: C_6  and  C_7
REMARK                            x       y       z     vdW  Elec       q    Type
REMARK                         _______ _______ _______ _____ _____    ______ ____
ROOT
ATOM      1  C   UNL     1       7.328   6.669  17.659  0.00  0.00    +0.000 C 
ATOM      2  C   UNL     1       7.198   5.329  16.942  0.00  0.00    +0.000 C 
ATOM      3  N   UNL     1       7.258   5.537  15.473  0.00  0.00    +0.000 NA
ATOM      4  C   UNL     1       5.939   5.172  14.953  0.00  0.00    +0.000 C 
ATOM      5  C   UNL     1       5.453   4.060  15.858  0.00  0.00    +0.000 C 
ATOM      6  C   UNL     1       5.941   4.483  17.243  0.00  0.00    +0.000 C 
ATOM      7  H   UNL     1       7.945   4.884  15.094  0.00  0.00    +0.000 HD
ENDROOT
BRANCH   6   8
ATOM      8  C   UNL     1       4.877   5.133  18.072  0.00  0.00    +0.000 A 
ATOM      9  C   UNL     1       4.665   5.115  19.435  0.00  0.00    +0.000 A 
ATOM     10  N   UNL     1       3.582   5.920  19.651  0.00  0.00    +0.000 N 
ATOM     11  C   UNL     1       3.168   6.386  18.434  0.00  0.00    +0.000 A 
ATOM     12  N   UNL     1       3.928   5.929  17.465  0.00  0.00    +0.000 NA
ATOM     13  H   UNL     1       3.167   6.148  20.542  0.00  0.00    +0.000 HD
ENDBRANCH   6   8
TORSDOF 1
ENDMDL
MODEL 9
REMARK VINA RESULT:      -5.0      2.184      3.302
REMARK  Name = 
REMARK  2 active torsions:
REMARK  status: ('A' for Active; 'I' for Inactive)
REMARK    1  A    between atoms: C_1  and  C_2
REMARK    2  A    between atoms: C_6  and  C_7
REMARK                            x       y       z     vdW  Elec       q    Type
REMARK                         _______ _______ _______ _____ _____    ______ ____
ROOT
ATOM      1  C   UNL     1       3.935   6.622  17.632  0.00  0.00    +0.000 C 
ATOM      2  C   UNL     1       3.278   5.249  17.715  0.00  0.00    +0.000 C 
ATOM      3  N   UNL     1       2.704   5.046  19.069  0.00  0.00    +0.000 NA
ATOM      4  C   UNL     1       3.474   3.963  19.683  0.00  0.00    +0.000 C 
ATOM      5  C   UNL     1       3.857   3.053  18.535  0.00  0.00    +0.000 C 
ATOM      6  C   UNL     1       4.159   4.021  17.393  0.00  0.00    +0.000 C 
ATOM      7  H   UNL     1       1.740   4.730  18.955  0.00  0.00    +0.000 HD
ENDROOT
BRANCH   6   8
ATOM      8  C   UNL     1       5.622   4.276  17.204  0.00  0.00    +0.000 A 
ATOM      9  C   UNL     1       6.368   4.417  16.052  0.00  0.00    +0.000 A 
ATOM     10  N   UNL     1       7.641   4.687  16.467  0.00  0.00    +0.000 N 
ATOM     11  C   UNL     1       7.635   4.691  17.834  0.00  0.00    +0.000 A 
ATOM     12  N   UNL     1       6.434   4.445  18.306  0.00  0.00    +0.000 NA
ATOM     13  H   UNL     1       8.442   4.868  15.881  0.00  0.00    +0.000 HD
ENDBRANCH   6   8
TORSDOF 1
ENDMDL
