MODEL 1
REMARK VINA RESULT:      -7.7      0.000      0.000
REMARK  Name = 
REMARK  5 active torsions:
REMARK  status: ('A' for Active; 'I' for Inactive)
REMARK    1  A    between atoms: C_1  and  C_2
REMARK    2  A    between atoms: C_5  and  O_6
REMARK    3  A    between atoms: O_6  and  C_7
REMARK    4  A    between atoms: N_13  and  C_14
REMARK    5  A    between atoms: C_19  and  C_20
REMARK                            x       y       z     vdW  Elec       q    Type
REMARK                         _______ _______ _______ _____ _____    ______ ____
ROOT
ATOM      1  C   UNL     1       0.559  10.836  21.542  0.00  0.00    +0.000 C 
ATOM      2  C   UNL     1       0.767  11.213  20.073  0.00  0.00    +0.000 C 
ATOM      3  C   UNL     1       0.632  10.054  19.096  0.00  0.00    +0.000 C 
ATOM      4  N   UNL     1       1.388   8.882  19.516  0.00  0.00    +0.000 N 
ATOM      5  C   UNL     1       2.104   8.196  18.535  0.00  0.00    +0.000 C 
ATOM      6  O   UNL     1       2.250   8.659  17.405  0.00  0.00    +0.000 OA
ATOM      7  N   UNL     1       2.598   6.960  18.905  0.00  0.00    +0.000 N 
ATOM      8  C   UNL     1       1.083   8.409  20.861  0.00  0.00    +0.000 C 
ATOM      9  C   UNL     1       1.240   9.507  21.908  0.00  0.00    +0.000 C 
ATOM     10  H   UNL     1       2.020   6.451  19.550  0.00  0.00    +0.000 HD
ENDROOT
BRANCH   7  11
ATOM     11  C   UNL     1       3.408   6.170  18.046  0.00  0.00    +0.000 A 
ATOM     12  C   UNL     1       4.629   6.664  17.567  0.00  0.00    +0.000 A 
ATOM     13  C   UNL     1       5.430   5.894  16.722  0.00  0.00    +0.000 A 
ATOM     14  C   UNL     1       5.020   4.618  16.350  0.00  0.00    +0.000 A 
ATOM     15  C   UNL     1       3.812   4.111  16.828  0.00  0.00    +0.000 A 
ATOM     16  C   UNL     1       2.992   4.876  17.678  0.00  0.00    +0.000 A 
ATOM     17  C   UNL     1       1.674   4.305  18.118  0.00  0.00    +0.000 C 
ENDBRANCH   7  11
BRANCH   1  18
ATOM     18  O   UNL     1      -0.849  10.802  21.857  0.00  0.00    +0.000 OA
BRANCH  18  23
ATOM     19  C   UNL     1      -2.445  15.271  24.838  0.00  0.00    +0.000 C 
ATOM     20  C   UNL     1      -2.092  14.086  23.994  0.00  0.00    +0.000 A 
ATOM     21  C   UNL     1      -3.035  13.140  23.612  0.00  0.00    +0.000 A 
ATOM     22  C   UNL     1      -2.618  12.037  22.868  0.00  0.00    +0.000 A 
ATOM     23  C   UNL     1      -1.275  11.928  22.554  0.00  0.00    +0.000 A 
ATOM     24  N   UNL     1      -0.380  12.853  22.951  0.00  0.00    +0.000 NA
ATOM     25  N   UNL     1      -0.791  13.943  23.677  0.00  0.00    +0.000 NA
ENDBRANCH  18  23
ENDBRANCH   1  18
TORSDOF 3
ENDMDL
MODEL 2
REMARK VINA RESULT:      -7.7      3.292     10.033
REMARK  Name = 
REMARK  5 active torsions:
REMARK  status: ('A' for Active; 'I' for Inactive)
REMARK    1  A    between atoms: C_1  and  C_2
REMARK    2  A    between atoms: C_5  and  O_6
REMARK    3  A    between atoms: O_6  and  C_7
REMARK    4  A    between atoms: N_13  and  C_14
REMARK    5  A    between atoms: C_19  and  C_20
REMARK                            x       y       z     vdW  Elec       q    Type
REMARK                         _______ _______ _______ _____ _____    ______ ____
ROOT
ATOM      1  C   UNL     1       5.426   4.473  18.081  0.00  0.00    +0.000 C 
ATOM      2  C   UNL     1       4.588   3.939  19.246  0.00  0.00    +0.000 C 
ATOM      3  C   UNL     1       3.160   4.461  19.291  0.00  0.00    +0.000 C 
ATOM      4  N   UNL     1       3.092   5.908  19.132  0.00  0.00    +0.000 N 
ATOM      5  C   UNL     1       2.213   6.604  19.962  0.00  0.00    +0.000 C 
ATOM      6  O   UNL     1       1.660   6.055  20.914  0.00  0.00    +0.000 OA
ATOM      7  N   UNL     1       1.982   7.922  19.623  0.00  0.00    +0.000 N 
ATOM      8  C   UNL     1       3.750   6.421  17.936  0.00  0.00    +0.000 C 
ATOM      9  C   UNL     1       5.204   5.976  17.842  0.00  0.00    +0.000 C 
ATOM     10  H   UNL     1       1.994   8.112  18.636  0.00  0.00    +0.000 HD
ENDROOT
BRANCH   7  11
ATOM     11  C   UNL     1       1.171   8.785  20.407  0.00  0.00    +0.000 A 
ATOM     12  C   UNL     1       1.186   8.698  21.806  0.00  0.00    +0.000 A 
ATOM     13  C   UNL     1       0.392   9.542  22.584  0.00  0.00    +0.000 A 
ATOM     14  C   UNL     1      -0.426  10.486  21.970  0.00  0.00    +0.000 A 
ATOM     15  C   UNL     1      -0.442  10.589  20.580  0.00  0.00    +0.000 A 
ATOM     16  C   UNL     1       0.351   9.743  19.782  0.00  0.00    +0.000 A 
ATOM     17  C   UNL     1       0.252   9.858  18.287  0.00  0.00    +0.000 C 
ENDBRANCH   7  11
BRANCH   1  18
ATOM     18  O   UNL     1       5.164   3.711  16.884  0.00  0.00    +0.000 OA
BRANCH  18  23
ATOM     19  C   UNL     1       8.205   5.584  12.566  0.00  0.00    +0.000 C 
ATOM     20  C   UNL     1       7.384   5.007  13.677  0.00  0.00    +0.000 A 
ATOM     21  C   UNL     1       6.261   4.224  13.440  0.00  0.00    +0.000 A 
ATOM     22  C   UNL     1       5.520   3.766  14.529  0.00  0.00    +0.000 A 
ATOM     23  C   UNL     1       5.932   4.125  15.800  0.00  0.00    +0.000 A 
ATOM     24  N   UNL     1       7.016   4.898  15.999  0.00  0.00    +0.000 NA
ATOM     25  N   UNL     1       7.751   5.343  14.928  0.00  0.00    +0.000 NA
ENDBRANCH  18  23
ENDBRANCH   1  18
TORSDOF 3
ENDMDL
MODEL 3
REMARK VINA RESULT:      -7.5      2.910      9.822
REMARK  Name = 
REMARK  5 active torsions:
REMARK  status: ('A' for Active; 'I' for Inactive)
REMARK    1  A    between atoms: C_1  and  C_2
REMARK    2  A    between atoms: C_5  and  O_6
REMARK    3  A    between atoms: O_6  and  C_7
REMARK    4  A    between atoms: N_13  and  C_14
REMARK    5  A    between atoms: C_19  and  C_20
REMARK                            x       y       z     vdW  Elec       q    Type
REMARK                         _______ _______ _______ _____ _____    ______ ____
ROOT
ATOM      1  C   UNL     1       5.076   5.618  18.268  0.00  0.00    +0.000 C 
ATOM      2  C   UNL     1       4.353   5.347  19.590  0.00  0.00    +0.000 C 
ATOM      3  C   UNL     1       2.885   5.745  19.602  0.00  0.00    +0.000 C 
ATOM      4  N   UNL     1       2.667   7.086  19.075  0.00  0.00    +0.000 N 
ATOM      5  C   UNL     1       1.767   7.904  19.756  0.00  0.00    +0.000 C 
ATOM      6  O   UNL     1       1.316   7.587  20.857  0.00  0.00    +0.000 OA
ATOM      7  N   UNL     1       1.391   9.061  19.102  0.00  0.00    +0.000 N 
ATOM      8  C   UNL     1       3.212   7.313  17.742  0.00  0.00    +0.000 C 
ATOM      9  C   UNL     1       4.697   6.978  17.661  0.00  0.00    +0.000 C 
ATOM     10  H   UNL     1       1.336   8.980  18.102  0.00  0.00    +0.000 HD
ENDROOT
BRANCH   7  11
ATOM     11  C   UNL     1       0.539  10.033  19.691  0.00  0.00    +0.000 A 
ATOM     12  C   UNL     1       0.849  10.587  20.940  0.00  0.00    +0.000 A 
ATOM     13  C   UNL     1       0.016  11.542  21.526  0.00  0.00    +0.000 A 
ATOM     14  C   UNL     1      -1.136  11.957  20.865  0.00  0.00    +0.000 A 
ATOM     15  C   UNL     1      -1.450  11.420  19.617  0.00  0.00    +0.000 A 
ATOM     16  C   UNL     1      -0.622  10.454  19.015  0.00  0.00    +0.000 A 
ATOM     17  C   UNL     1      -1.037   9.867  17.696  0.00  0.00    +0.000 C 
ENDBRANCH   7  11
BRANCH   1  18
ATOM     18  O   UNL     1       4.832   4.545  17.334  0.00  0.00    +0.000 OA
BRANCH  18  23
ATOM     19  C   UNL     1       7.976   5.129  12.733  0.00  0.00    +0.000 C 
ATOM     20  C   UNL     1       7.113   4.893  13.933  0.00  0.00    +0.000 A 
ATOM     21  C   UNL     1       5.860   4.299  13.841  0.00  0.00    +0.000 A 
ATOM     22  C   UNL     1       5.095   4.161  14.998  0.00  0.00    +0.000 A 
ATOM     23  C   UNL     1       5.616   4.635  16.188  0.00  0.00    +0.000 A 
ATOM     24  N   UNL     1       6.826   5.221  16.245  0.00  0.00    +0.000 NA
ATOM     25  N   UNL     1       7.584   5.351  15.108  0.00  0.00    +0.000 NA
ENDBRANCH  18  23
ENDBRANCH   1  18
TORSDOF 3
ENDMDL
MODEL 4
REMARK VINA RESULT:      -7.5      1.220      2.111
REMARK  Name = 
REMARK  5 active torsions:
REMARK  status: ('A' for Active; 'I' for Inactive)
REMARK    1  A    between atoms: C_1  and  C_2
REMARK    2  A    between atoms: C_5  and  O_6
REMARK    3  A    between atoms: O_6  and  C_7
REMARK    4  A    between atoms: N_13  and  C_14
REMARK    5  A    between atoms: C_19  and  C_20
REMARK                            x       y       z     vdW  Elec       q    Type
REMARK                         _______ _______ _______ _____ _____    ______ ____
ROOT
ATOM      1  C   UNL     1      -0.378  10.487  21.182  0.00  0.00    +0.000 C 
ATOM      2  C   UNL     1       0.029   9.308  22.070  0.00  0.00    +0.000 C 
ATOM      3  C   UNL     1       1.350   8.655  21.690  0.00  0.00    +0.000 C 
ATOM      4  N   UNL     1       1.443   8.377  20.263  0.00  0.00    +0.000 N 
ATOM      5  C   UNL     1       1.979   7.148  19.883  0.00  0.00    +0.000 C 
ATOM      6  O   UNL     1       2.190   6.257  20.706  0.00  0.00    +0.000 OA
ATOM      7  N   UNL     1       2.289   7.014  18.543  0.00  0.00    +0.000 N 
ATOM      8  C   UNL     1       1.216   9.532  19.401  0.00  0.00    +0.000 C 
ATOM      9  C   UNL     1      -0.115  10.216  19.692  0.00  0.00    +0.000 C 
ATOM     10  H   UNL     1       2.605   7.857  18.098  0.00  0.00    +0.000 HD
ENDROOT
BRANCH   7  11
ATOM     11  C   UNL     1       2.774   5.802  17.986  0.00  0.00    +0.000 A 
ATOM     12  C   UNL     1       1.973   4.651  17.980  0.00  0.00    +0.000 A 
ATOM     13  C   UNL     1       2.443   3.455  17.434  0.00  0.00    +0.000 A 
ATOM     14  C   UNL     1       3.720   3.398  16.883  0.00  0.00    +0.000 A 
ATOM     15  C   UNL     1       4.522   4.539  16.874  0.00  0.00    +0.000 A 
ATOM     16  C   UNL     1       4.064   5.751  17.423  0.00  0.00    +0.000 A 
ATOM     17  C   UNL     1       4.989   6.934  17.439  0.00  0.00    +0.000 C 
ENDBRANCH   7  11
BRANCH   1  18
ATOM     18  O   UNL     1       0.284  11.694  21.616  0.00  0.00    +0.000 OA
BRANCH  18  23
ATOM     19  C   UNL     1      -2.951  15.062  24.713  0.00  0.00    +0.000 C 
ATOM     20  C   UNL     1      -2.155  14.149  23.833  0.00  0.00    +0.000 A 
ATOM     21  C   UNL     1      -2.681  12.967  23.324  0.00  0.00    +0.000 A 
ATOM     22  C   UNL     1      -1.860  12.144  22.553  0.00  0.00    +0.000 A 
ATOM     23  C   UNL     1      -0.551  12.539  22.341  0.00  0.00    +0.000 A 
ATOM     24  N   UNL     1      -0.065  13.681  22.860  0.00  0.00    +0.000 NA
ATOM     25  N   UNL     1      -0.874  14.496  23.613  0.00  0.00    +0.000 NA
ENDBRANCH  18  23
ENDBRANCH   1  18
TORSDOF 3
ENDMDL
MODEL 5
REMARK VINA RESULT:      -7.3      0.900      1.038
REMARK  Name = 
REMARK  5 active torsions:
REMARK  status: ('A' for Active; 'I' for Inactive)
REMARK    1  A    between atoms: C_1  and  C_2
REMARK    2  A    between atoms: C_5  and  O_6
REMARK    3  A    between atoms: O_6  and  C_7
REMARK    4  A    between atoms: N_13  and  C_14
REMARK    5  A    between atoms: C_19  and  C_20
REMARK                            x       y       z     vdW  Elec       q    Type
REMARK                         _______ _______ _______ _____ _____    ______ ____
ROOT
ATOM      1  C   UNL     1       0.258  11.165  21.297  0.00  0.00    +0.000 C 
ATOM      2  C   UNL     1       0.489  11.494  19.820  0.00  0.00    +0.000 C 
ATOM      3  C   UNL     1       0.413  10.297  18.884  0.00  0.00    +0.000 C 
ATOM      4  N   UNL     1       1.196   9.166  19.364  0.00  0.00    +0.000 N 
ATOM      5  C   UNL     1       1.956   8.468  18.426  0.00  0.00    +0.000 C 
ATOM      6  O   UNL     1       2.114   8.895  17.283  0.00  0.00    +0.000 OA
ATOM      7  N   UNL     1       2.480   7.263  18.852  0.00  0.00    +0.000 N 
ATOM      8  C   UNL     1       0.874   8.733  20.719  0.00  0.00    +0.000 C 
ATOM      9  C   UNL     1       0.972   9.873  21.727  0.00  0.00    +0.000 C 
ATOM     10  H   UNL     1       1.903   6.760  19.503  0.00  0.00    +0.000 HD
ENDROOT
BRANCH   7  11
ATOM     11  C   UNL     1       3.334   6.469  18.042  0.00  0.00    +0.000 A 
ATOM     12  C   UNL     1       4.493   7.020  17.477  0.00  0.00    +0.000 A 
ATOM     13  C   UNL     1       5.337   6.246  16.679  0.00  0.00    +0.000 A 
ATOM     14  C   UNL     1       5.033   4.909  16.440  0.00  0.00    +0.000 A 
ATOM     15  C   UNL     1       3.889   4.347  17.004  0.00  0.00    +0.000 A 
ATOM     16  C   UNL     1       3.026   5.115  17.808  0.00  0.00    +0.000 A 
ATOM     17  C   UNL     1       1.777   4.476  18.345  0.00  0.00    +0.000 C 
ENDBRANCH   7  11
BRANCH   1  18
ATOM     18  O   UNL     1      -1.155  11.097  21.581  0.00  0.00    +0.000 OA
BRANCH  18  23
ATOM     19  C   UNL     1      -3.029  15.150  24.967  0.00  0.00    +0.000 C 
ATOM     20  C   UNL     1      -2.449  14.077  24.099  0.00  0.00    +0.000 A 
ATOM     21  C   UNL     1      -1.197  14.197  23.509  0.00  0.00    +0.000 A 
ATOM     22  C   UNL     1      -0.748  13.176  22.672  0.00  0.00    +0.000 A 
ATOM     23  C   UNL     1      -1.580  12.092  22.457  0.00  0.00    +0.000 A 
ATOM     24  N   UNL     1      -2.795  12.010  23.030  0.00  0.00    +0.000 NA
ATOM     25  N   UNL     1      -3.235  13.011  23.860  0.00  0.00    +0.000 NA
ENDBRANCH  18  23
ENDBRANCH   1  18
TORSDOF 3
ENDMDL
MODEL 6
REMARK VINA RESULT:      -7.3      1.985      2.841
REMARK  Name = 
REMARK  5 active torsions:
REMARK  status: ('A' for Active; 'I' for Inactive)
REMARK    1  A    between atoms: C_1  and  C_2
REMARK    2  A    between atoms: C_5  and  O_6
REMARK    3  A    between atoms: O_6  and  C_7
REMARK    4  A    between atoms: N_13  and  C_14
REMARK    5  A    between atoms: C_19  and  C_20
REMARK                            x       y       z     vdW  Elec       q    Type
REMARK                         _______ _______ _______ _____ _____    ______ ____
ROOT
ATOM      1  C   UNL     1       0.335  10.453  19.553  0.00  0.00    +0.000 C 
ATOM      2  C   UNL     1       0.298   9.523  20.768  0.00  0.00    +0.000 C 
ATOM      3  C   UNL     1       1.481   8.573  20.875  0.00  0.00    +0.000 C 
ATOM      4  N   UNL     1       1.761   7.890  19.619  0.00  0.00    +0.000 N 
ATOM      5  C   UNL     1       2.062   6.530  19.682  0.00  0.00    +0.000 C 
ATOM      6  O   UNL     1       1.915   5.887  20.721  0.00  0.00    +0.000 OA
ATOM      7  N   UNL     1       2.567   5.970  18.525  0.00  0.00    +0.000 N 
ATOM      8  C   UNL     1       1.961   8.773  18.476  0.00  0.00    +0.000 C 
ATOM      9  C   UNL     1       0.791   9.730  18.275  0.00  0.00    +0.000 C 
ATOM     10  H   UNL     1       3.142   6.585  17.976  0.00  0.00    +0.000 HD
ENDROOT
BRANCH   7  11
ATOM     11  C   UNL     1       2.855   4.585  18.404  0.00  0.00    +0.000 A 
ATOM     12  C   UNL     1       1.857   3.683  18.010  0.00  0.00    +0.000 A 
ATOM     13  C   UNL     1       2.132   2.320  17.890  0.00  0.00    +0.000 A 
ATOM     14  C   UNL     1       3.411   1.843  18.160  0.00  0.00    +0.000 A 
ATOM     15  C   UNL     1       4.415   2.732  18.543  0.00  0.00    +0.000 A 
ATOM     16  C   UNL     1       4.152   4.109  18.672  0.00  0.00    +0.000 A 
ATOM     17  C   UNL     1       5.255   5.014  19.143  0.00  0.00    +0.000 C 
ENDBRANCH   7  11
BRANCH   1  18
ATOM     18  O   UNL     1       1.167  11.602  19.825  0.00  0.00    +0.000 OA
BRANCH  18  23
ATOM     19  C   UNL     1      -1.435  15.413  23.004  0.00  0.00    +0.000 C 
ATOM     20  C   UNL     1      -0.784  14.426  22.086  0.00  0.00    +0.000 A 
ATOM     21  C   UNL     1      -1.491  13.760  21.092  0.00  0.00    +0.000 A 
ATOM     22  C   UNL     1      -0.824  12.817  20.310  0.00  0.00    +0.000 A 
ATOM     23  C   UNL     1       0.514  12.579  20.570  0.00  0.00    +0.000 A 
ATOM     24  N   UNL     1       1.169  13.228  21.550  0.00  0.00    +0.000 NA
ATOM     25  N   UNL     1       0.516  14.161  22.316  0.00  0.00    +0.000 NA
ENDBRANCH  18  23
ENDBRANCH   1  18
TORSDOF 3
ENDMDL
MODEL 7
REMARK VINA RESULT:      -7.1      1.323      1.763
REMARK  Name = 
REMARK  5 active torsions:
REMARK  status: ('A' for Active; 'I' for Inactive)
REMARK    1  A    between atoms: C_1  and  C_2
REMARK    2  A    between atoms: C_5  and  O_6
REMARK    3  A    between atoms: O_6  and  C_7
REMARK    4  A    between atoms: N_13  and  C_14
REMARK    5  A    between atoms: C_19  and  C_20
REMARK                            x       y       z     vdW  Elec       q    Type
REMARK                         _______ _______ _______ _____ _____    ______ ____
ROOT
ATOM      1  C   UNL     1      -0.545  10.349  19.863  0.00  0.00    +0.000 C 
ATOM      2  C   UNL     1      -0.143   9.324  20.927  0.00  0.00    +0.000 C 
ATOM      3  C   UNL     1       1.290   8.827  20.819  0.00  0.00    +0.000 C 
ATOM      4  N   UNL     1       1.642   8.434  19.460  0.00  0.00    +0.000 N 
ATOM      5  C   UNL     1       2.377   7.260  19.303  0.00  0.00    +0.000 C 
ATOM      6  O   UNL     1       2.562   6.486  20.242  0.00  0.00    +0.000 OA
ATOM      7  N   UNL     1       2.909   7.047  18.046  0.00  0.00    +0.000 N 
ATOM      8  C   UNL     1       1.416   9.462  18.451  0.00  0.00    +0.000 C 
ATOM      9  C   UNL     1      -0.017   9.981  18.466  0.00  0.00    +0.000 C 
ATOM     10  H   UNL     1       3.188   7.881  17.560  0.00  0.00    +0.000 HD
ENDROOT
BRANCH   7  11
ATOM     11  C   UNL     1       3.620   5.866  17.704  0.00  0.00    +0.000 A 
ATOM     12  C   UNL     1       5.012   5.897  17.540  0.00  0.00    +0.000 A 
ATOM     13  C   UNL     1       5.719   4.741  17.203  0.00  0.00    +0.000 A 
ATOM     14  C   UNL     1       5.040   3.538  17.030  0.00  0.00    +0.000 A 
ATOM     15  C   UNL     1       3.656   3.493  17.201  0.00  0.00    +0.000 A 
ATOM     16  C   UNL     1       2.930   4.651  17.537  0.00  0.00    +0.000 A 
ATOM     17  C   UNL     1       1.435   4.558  17.653  0.00  0.00    +0.000 C 
ENDBRANCH   7  11
BRANCH   1  18
ATOM     18  O   UNL     1      -0.112  11.670  20.250  0.00  0.00    +0.000 OA
BRANCH  18  23
ATOM     19  C   UNL     1      -3.337  13.789  24.313  0.00  0.00    +0.000 C 
ATOM     20  C   UNL     1      -2.519  13.273  23.170  0.00  0.00    +0.000 A 
ATOM     21  C   UNL     1      -3.082  12.952  21.941  0.00  0.00    +0.000 A 
ATOM     22  C   UNL     1      -2.261  12.429  20.943  0.00  0.00    +0.000 A 
ATOM     23  C   UNL     1      -0.921  12.241  21.228  0.00  0.00    +0.000 A 
ATOM     24  N   UNL     1      -0.406  12.546  22.434  0.00  0.00    +0.000 NA
ATOM     25  N   UNL     1      -1.211  13.068  23.415  0.00  0.00    +0.000 NA
ENDBRANCH  18  23
ENDBRANCH   1  18
TORSDOF 3
ENDMDL
MODEL 8
REMARK VINA RESULT:      -7.1      1.125      1.170
REMARK  Name = 
REMARK  5 active torsions:
REMARK  status: ('A' for Active; 'I' for Inactive)
REMARK    1  A    between atoms: C_1  and  C_2
REMARK    2  A    between atoms: C_5  and  O_6
REMARK    3  A    between atoms: O_6  and  C_7
REMARK    4  A    between atoms: N_13  and  C_14
REMARK    5  A    between atoms: C_19  and  C_20
REMARK                            x       y       z     vdW  Elec       q    Type
REMARK                         _______ _______ _______ _____ _____    ______ ____
ROOT
ATOM      1  C   UNL     1       0.507  10.802  21.200  0.00  0.00    +0.000 C 
ATOM      2  C   UNL     1       0.801  11.156  19.740  0.00  0.00    +0.000 C 
ATOM      3  C   UNL     1       0.732   9.981  18.776  0.00  0.00    +0.000 C 
ATOM      4  N   UNL     1       1.467   8.820  19.260  0.00  0.00    +0.000 N 
ATOM      5  C   UNL     1       2.245   8.123  18.336  0.00  0.00    +0.000 C 
ATOM      6  O   UNL     1       2.457   8.569  17.209  0.00  0.00    +0.000 OA
ATOM      7  N   UNL     1       2.722   6.896  18.755  0.00  0.00    +0.000 N 
ATOM      8  C   UNL     1       1.084   8.368  20.592  0.00  0.00    +0.000 C 
ATOM      9  C   UNL     1       1.171   9.483  21.628  0.00  0.00    +0.000 C 
ATOM     10  H   UNL     1       2.109   6.395  19.372  0.00  0.00    +0.000 HD
ENDROOT
BRANCH   7  11
ATOM     11  C   UNL     1       3.587   6.098  17.960  0.00  0.00    +0.000 A 
ATOM     12  C   UNL     1       4.845   6.580  17.573  0.00  0.00    +0.000 A 
ATOM     13  C   UNL     1       5.700   5.802  16.791  0.00  0.00    +0.000 A 
ATOM     14  C   UNL     1       5.307   4.528  16.391  0.00  0.00    +0.000 A 
ATOM     15  C   UNL     1       4.062   4.033  16.778  0.00  0.00    +0.000 A 
ATOM     16  C   UNL     1       3.188   4.807  17.563  0.00  0.00    +0.000 A 
ATOM     17  C   UNL     1       1.836   4.249  17.904  0.00  0.00    +0.000 C 
ENDBRANCH   7  11
BRANCH   1  18
ATOM     18  O   UNL     1      -0.918  10.765  21.429  0.00  0.00    +0.000 OA
BRANCH  18  23
ATOM     19  C   UNL     1      -2.921  15.861  22.619  0.00  0.00    +0.000 C 
ATOM     20  C   UNL     1      -2.403  14.475  22.384  0.00  0.00    +0.000 A 
ATOM     21  C   UNL     1      -1.619  13.809  23.317  0.00  0.00    +0.000 A 
ATOM     22  C   UNL     1      -1.133  12.540  23.002  0.00  0.00    +0.000 A 
ATOM     23  C   UNL     1      -1.445  12.007  21.765  0.00  0.00    +0.000 A 
ATOM     24  N   UNL     1      -2.195  12.683  20.874  0.00  0.00    +0.000 NA
ATOM     25  N   UNL     1      -2.680  13.929  21.185  0.00  0.00    +0.000 NA
ENDBRANCH  18  23
ENDBRANCH   1  18
TORSDOF 3
ENDMDL
MODEL 9
REMARK VINA RESULT:      -7.1      3.116      3.915
REMARK  Name = 
REMARK  5 active torsions:
REMARK  status: ('A' for Active; 'I' for Inactive)
REMARK    1  A    between atoms: C_1  and  C_2
REMARK    2  A    between atoms: C_5  and  O_6
REMARK    3  A    between atoms: O_6  and  C_7
REMARK    4  A    between atoms: N_13  and  C_14
REMARK    5  A    between atoms: C_19  and  C_20
REMARK                            x       y       z     vdW  Elec       q    Type
REMARK                         _______ _______ _______ _____ _____    ______ ____
ROOT
ATOM      1  C   UNL     1       0.650  10.570  19.444  0.00  0.00    +0.000 C 
ATOM      2  C   UNL     1       0.394   9.671  20.657  0.00  0.00    +0.000 C 
ATOM      3  C   UNL     1       1.462   8.616  20.901  0.00  0.00    +0.000 C 
ATOM      4  N   UNL     1       1.809   7.885  19.688  0.00  0.00    +0.000 N 
ATOM      5  C   UNL     1       1.971   6.504  19.796  0.00  0.00    +0.000 C 
ATOM      6  O   UNL     1       1.651   5.898  20.818  0.00  0.00    +0.000 OA
ATOM      7  N   UNL     1       2.542   5.878  18.705  0.00  0.00    +0.000 N 
ATOM      8  C   UNL     1       2.215   8.724  18.567  0.00  0.00    +0.000 C 
ATOM      9  C   UNL     1       1.170   9.783  18.231  0.00  0.00    +0.000 C 
ATOM     10  H   UNL     1       3.228   6.426  18.217  0.00  0.00    +0.000 HD
ENDROOT
BRANCH   7  11
ATOM     11  C   UNL     1       2.707   4.470  18.628  0.00  0.00    +0.000 A 
ATOM     12  C   UNL     1       1.629   3.645  18.277  0.00  0.00    +0.000 A 
ATOM     13  C   UNL     1       1.784   2.260  18.200  0.00  0.00    +0.000 A 
ATOM     14  C   UNL     1       3.021   1.684  18.472  0.00  0.00    +0.000 A 
ATOM     15  C   UNL     1       4.103   2.494  18.813  0.00  0.00    +0.000 A 
ATOM     16  C   UNL     1       3.962   3.892  18.897  0.00  0.00    +0.000 A 
ATOM     17  C   UNL     1       5.145   4.713  19.325  0.00  0.00    +0.000 C 
ENDBRANCH   7  11
BRANCH   1  18
ATOM     18  O   UNL     1       1.553  11.640  19.796  0.00  0.00    +0.000 OA
BRANCH  18  23
ATOM     19  C   UNL     1      -0.663  16.640  18.576  0.00  0.00    +0.000 C 
ATOM     20  C   UNL     1      -0.010  15.345  18.951  0.00  0.00    +0.000 A 
ATOM     21  C   UNL     1       1.371  15.194  18.987  0.00  0.00    +0.000 A 
ATOM     22  C   UNL     1       1.902  13.942  19.295  0.00  0.00    +0.000 A 
ATOM     23  C   UNL     1       1.025  12.901  19.540  0.00  0.00    +0.000 A 
ATOM     24  N   UNL     1      -0.309  13.073  19.482  0.00  0.00    +0.000 NA
ATOM     25  N   UNL     1      -0.833  14.306  19.186  0.00  0.00    +0.000 NA
ENDBRANCH  18  23
ENDBRANCH   1  18
TORSDOF 3
ENDMDL
