MODEL 1
REMARK VINA RESULT:      -7.8      0.000      0.000
REMARK  Name = 
REMARK  4 active torsions:
REMARK  status: ('A' for Active; 'I' for Inactive)
REMARK    1  A    between atoms: C_1  and  C_2
REMARK    2  A    between atoms: C_5  and  C_6
REMARK    3  A    between atoms: C_6  and  S_7
REMARK    4  A    between atoms: S_7  and  C_8
REMARK                            x       y       z     vdW  Elec       q    Type
REMARK                         _______ _______ _______ _____ _____    ______ ____
ROOT
ATOM      1  C   UNL     1       1.165   8.367  20.725  0.00  0.00    +0.000 A 
ATOM      2  N   UNL     1       1.105   7.222  21.428  0.00  0.00    +0.000 NA
ATOM      3  N   UNL     1       1.846   6.347  20.778  0.00  0.00    +0.000 N 
ATOM      4  C   UNL     1       2.351   6.959  19.692  0.00  0.00    +0.000 A 
ATOM      5  N   UNL     1       3.200   6.291  18.735  0.00  0.00    +0.000 N 
ATOM      6 SE   UNL     1       3.562   4.531  18.908  0.00  0.00    +0.000 Se
ATOM      7  C   UNL     1       4.498   4.682  17.374  0.00  0.00    +0.000 A 
ATOM      8  C   UNL     1       5.159   3.631  16.738  0.00  0.00    +0.000 A 
ATOM      9  C   UNL     1       5.851   3.887  15.549  0.00  0.00    +0.000 A 
ATOM     10  C   UNL     1       5.878   5.186  15.015  0.00  0.00    +0.000 A 
ATOM     11  C   UNL     1       5.207   6.236  15.666  0.00  0.00    +0.000 A 
ATOM     12  C   UNL     1       4.511   5.962  16.855  0.00  0.00    +0.000 A 
ATOM     13  C   UNL     1       3.781   6.850  17.627  0.00  0.00    +0.000 A 
ATOM     14  O   UNL     1       3.654   8.029  17.343  0.00  0.00    +0.000 OA
ATOM     15  N   UNL     1       1.951   8.250  19.625  0.00  0.00    +0.000 NA
ATOM     16  H   UNL     1       1.995   5.362  21.087  0.00  0.00    +0.000 HD
ENDROOT
BRANCH   1  17
ATOM     17  S   UNL     1       0.347   9.861  21.306  0.00  0.00    +0.000 S 
BRANCH  17  18
ATOM     18  C   UNL     1       0.577  10.932  19.843  0.00  0.00    +0.000 C 
BRANCH  18  23
ATOM     19  C   UNL     1      -4.348  10.969  16.708  0.00  0.00    +0.000 C 
ATOM     20  C   UNL     1      -3.084  10.953  17.517  0.00  0.00    +0.000 A 
ATOM     21  C   UNL     1      -2.007  10.135  17.147  0.00  0.00    +0.000 A 
ATOM     22  C   UNL     1      -0.834  10.125  17.907  0.00  0.00    +0.000 A 
ATOM     23  C   UNL     1      -0.708  10.941  19.045  0.00  0.00    +0.000 A 
ATOM     24  C   UNL     1      -1.791  11.762  19.413  0.00  0.00    +0.000 A 
ATOM     25  C   UNL     1      -2.969  11.765  18.656  0.00  0.00    +0.000 A 
ENDBRANCH  18  23
ENDBRANCH  17  18
ENDBRANCH   1  17
TORSDOF 3
ENDMDL
MODEL 2
REMARK VINA RESULT:      -7.8      2.483      3.559
REMARK  Name = 
REMARK  4 active torsions:
REMARK  status: ('A' for Active; 'I' for Inactive)
REMARK    1  A    between atoms: C_1  and  C_2
REMARK    2  A    between atoms: C_5  and  C_6
REMARK    3  A    between atoms: C_6  and  S_7
REMARK    4  A    between atoms: S_7  and  C_8
REMARK                            x       y       z     vdW  Elec       q    Type
REMARK                         _______ _______ _______ _____ _____    ______ ____
ROOT
ATOM      1  C   UNL     1       1.272  10.222  18.837  0.00  0.00    +0.000 A 
ATOM      2  N   UNL     1       2.026  10.104  17.730  0.00  0.00    +0.000 NA
ATOM      3  N   UNL     1       2.508   8.877  17.738  0.00  0.00    +0.000 N 
ATOM      4  C   UNL     1       2.046   8.259  18.839  0.00  0.00    +0.000 A 
ATOM      5  N   UNL     1       2.389   6.899  19.181  0.00  0.00    +0.000 N 
ATOM      6 SE   UNL     1       3.555   5.968  18.165  0.00  0.00    +0.000 Se
ATOM      7  C   UNL     1       3.354   4.626  19.353  0.00  0.00    +0.000 A 
ATOM      8  C   UNL     1       4.016   3.400  19.286  0.00  0.00    +0.000 A 
ATOM      9  C   UNL     1       3.767   2.443  20.277  0.00  0.00    +0.000 A 
ATOM     10  C   UNL     1       2.860   2.721  21.313  0.00  0.00    +0.000 A 
ATOM     11  C   UNL     1       2.201   3.961  21.367  0.00  0.00    +0.000 A 
ATOM     12  C   UNL     1       2.466   4.914  20.371  0.00  0.00    +0.000 A 
ATOM     13  C   UNL     1       1.935   6.188  20.260  0.00  0.00    +0.000 A 
ATOM     14  O   UNL     1       1.138   6.647  21.062  0.00  0.00    +0.000 OA
ATOM     15  N   UNL     1       1.246   9.076  19.562  0.00  0.00    +0.000 NA
ATOM     16  H   UNL     1       3.131   8.489  16.997  0.00  0.00    +0.000 HD
ENDROOT
BRANCH   1  17
ATOM     17  S   UNL     1       0.355  11.732  19.183  0.00  0.00    +0.000 S 
BRANCH  17  18
ATOM     18  C   UNL     1      -1.302  11.027  19.492  0.00  0.00    +0.000 C 
BRANCH  18  23
ATOM     19  C   UNL     1      -4.001  10.155  14.389  0.00  0.00    +0.000 C 
ATOM     20  C   UNL     1      -3.304  10.385  15.699  0.00  0.00    +0.000 A 
ATOM     21  C   UNL     1      -3.764  11.362  16.593  0.00  0.00    +0.000 A 
ATOM     22  C   UNL     1      -3.108  11.571  17.809  0.00  0.00    +0.000 A 
ATOM     23  C   UNL     1      -1.987  10.800  18.163  0.00  0.00    +0.000 A 
ATOM     24  C   UNL     1      -1.528   9.819  17.263  0.00  0.00    +0.000 A 
ATOM     25  C   UNL     1      -2.181   9.616  16.040  0.00  0.00    +0.000 A 
ENDBRANCH  18  23
ENDBRANCH  17  18
ENDBRANCH   1  17
TORSDOF 3
ENDMDL
MODEL 3
REMARK VINA RESULT:      -7.8      0.285      1.028
REMARK  Name = 
REMARK  4 active torsions:
REMARK  status: ('A' for Active; 'I' for Inactive)
REMARK    1  A    between atoms: C_1  and  C_2
REMARK    2  A    between atoms: C_5  and  C_6
REMARK    3  A    between atoms: C_6  and  S_7
REMARK    4  A    between atoms: S_7  and  C_8
REMARK                            x       y       z     vdW  Elec       q    Type
REMARK                         _______ _______ _______ _____ _____    ______ ____
ROOT
ATOM      1  C   UNL     1       1.241   8.006  20.672  0.00  0.00    +0.000 A 
ATOM      2  N   UNL     1       1.207   6.836  21.335  0.00  0.00    +0.000 NA
ATOM      3  N   UNL     1       1.970   6.002  20.656  0.00  0.00    +0.000 N 
ATOM      4  C   UNL     1       2.462   6.664  19.594  0.00  0.00    +0.000 A 
ATOM      5  N   UNL     1       3.328   6.049  18.616  0.00  0.00    +0.000 N 
ATOM      6 SE   UNL     1       3.732   4.294  18.728  0.00  0.00    +0.000 Se
ATOM      7  C   UNL     1       4.666   4.521  17.203  0.00  0.00    +0.000 A 
ATOM      8  C   UNL     1       5.353   3.508  16.533  0.00  0.00    +0.000 A 
ATOM      9  C   UNL     1       6.041   3.822  15.355  0.00  0.00    +0.000 A 
ATOM     10  C   UNL     1       6.038   5.140  14.867  0.00  0.00    +0.000 A 
ATOM     11  C   UNL     1       5.341   6.150  15.553  0.00  0.00    +0.000 A 
ATOM     12  C   UNL     1       4.650   5.818  16.729  0.00  0.00    +0.000 A 
ATOM     13  C   UNL     1       3.898   6.660  17.531  0.00  0.00    +0.000 A 
ATOM     14  O   UNL     1       3.744   7.846  17.287  0.00  0.00    +0.000 OA
ATOM     15  N   UNL     1       2.031   7.947  19.572  0.00  0.00    +0.000 NA
ATOM     16  H   UNL     1       2.141   5.010  20.931  0.00  0.00    +0.000 HD
ENDROOT
BRANCH   1  17
ATOM     17  S   UNL     1       0.387   9.459  21.303  0.00  0.00    +0.000 S 
BRANCH  17  18
ATOM     18  C   UNL     1       0.689  10.621  19.926  0.00  0.00    +0.000 C 
BRANCH  18  23
ATOM     19  C   UNL     1      -4.246  11.117  16.846  0.00  0.00    +0.000 C 
ATOM     20  C   UNL     1      -2.974  10.996  17.635  0.00  0.00    +0.000 A 
ATOM     21  C   UNL     1      -2.782  11.747  18.803  0.00  0.00    +0.000 A 
ATOM     22  C   UNL     1      -1.595  11.629  19.531  0.00  0.00    +0.000 A 
ATOM     23  C   UNL     1      -0.581  10.749  19.114  0.00  0.00    +0.000 A 
ATOM     24  C   UNL     1      -0.777   9.997  17.941  0.00  0.00    +0.000 A 
ATOM     25  C   UNL     1      -1.963  10.121  17.207  0.00  0.00    +0.000 A 
ENDBRANCH  18  23
ENDBRANCH  17  18
ENDBRANCH   1  17
TORSDOF 3
ENDMDL
MODEL 4
REMARK VINA RESULT:      -7.7      2.382      8.690
REMARK  Name = 
REMARK  4 active torsions:
REMARK  status: ('A' for Active; 'I' for Inactive)
REMARK    1  A    between atoms: C_1  and  C_2
REMARK    2  A    between atoms: C_5  and  C_6
REMARK    3  A    between atoms: C_6  and  S_7
REMARK    4  A    between atoms: S_7  and  C_8
REMARK                            x       y       z     vdW  Elec       q    Type
REMARK                         _______ _______ _______ _____ _____    ______ ____
ROOT
ATOM      1  C   UNL     1       2.909   6.420  19.184  0.00  0.00    +0.000 A 
ATOM      2  N   UNL     1       2.890   7.082  18.014  0.00  0.00    +0.000 NA
ATOM      3  N   UNL     1       2.184   8.176  18.217  0.00  0.00    +0.000 N 
ATOM      4  C   UNL     1       1.782   8.176  19.501  0.00  0.00    +0.000 A 
ATOM      5  N   UNL     1       0.966   9.222  20.071  0.00  0.00    +0.000 N 
ATOM      6 SE   UNL     1       0.359  10.571  19.039  0.00  0.00    +0.000 Se
ATOM      7  C   UNL     1      -0.487  11.176  20.512  0.00  0.00    +0.000 A 
ATOM      8  C   UNL     1      -1.295  12.312  20.556  0.00  0.00    +0.000 A 
ATOM      9  C   UNL     1      -1.893  12.670  21.770  0.00  0.00    +0.000 A 
ATOM     10  C   UNL     1      -1.672  11.895  22.920  0.00  0.00    +0.000 A 
ATOM     11  C   UNL     1      -0.856  10.752  22.861  0.00  0.00    +0.000 A 
ATOM     12  C   UNL     1      -0.269  10.401  21.635  0.00  0.00    +0.000 A 
ATOM     13  C   UNL     1       0.546   9.313  21.372  0.00  0.00    +0.000 A 
ATOM     14  O   UNL     1       0.857   8.495  22.222  0.00  0.00    +0.000 OA
ATOM     15  N   UNL     1       2.231   7.080  20.156  0.00  0.00    +0.000 NA
ATOM     16  H   UNL     1       1.996   8.896  17.486  0.00  0.00    +0.000 HD
ENDROOT
BRANCH   1  17
ATOM     17  S   UNL     1       3.840   4.891  19.374  0.00  0.00    +0.000 S 
BRANCH  17  18
ATOM     18  C   UNL     1       5.497   5.470  18.866  0.00  0.00    +0.000 C 
BRANCH  18  23
ATOM     19  C   UNL     1       6.388   3.837  13.332  0.00  0.00    +0.000 C 
ATOM     20  C   UNL     1       6.154   4.261  14.753  0.00  0.00    +0.000 A 
ATOM     21  C   UNL     1       5.013   3.837  15.449  0.00  0.00    +0.000 A 
ATOM     22  C   UNL     1       4.802   4.238  16.770  0.00  0.00    +0.000 A 
ATOM     23  C   UNL     1       5.733   5.062  17.429  0.00  0.00    +0.000 A 
ATOM     24  C   UNL     1       6.877   5.486  16.727  0.00  0.00    +0.000 A 
ATOM     25  C   UNL     1       7.083   5.091  15.399  0.00  0.00    +0.000 A 
ENDBRANCH  18  23
ENDBRANCH  17  18
ENDBRANCH   1  17
TORSDOF 3
ENDMDL
MODEL 5
REMARK VINA RESULT:      -7.7      1.740      2.422
REMARK  Name = 
REMARK  4 active torsions:
REMARK  status: ('A' for Active; 'I' for Inactive)
REMARK    1  A    between atoms: C_1  and  C_2
REMARK    2  A    between atoms: C_5  and  C_6
REMARK    3  A    between atoms: C_6  and  S_7
REMARK    4  A    between atoms: S_7  and  C_8
REMARK                            x       y       z     vdW  Elec       q    Type
REMARK                         _______ _______ _______ _____ _____    ______ ____
ROOT
ATOM      1  C   UNL     1       1.089   9.592  20.331  0.00  0.00    +0.000 A 
ATOM      2  N   UNL     1       0.921   9.108  21.574  0.00  0.00    +0.000 NA
ATOM      3  N   UNL     1       1.306   7.849  21.539  0.00  0.00    +0.000 N 
ATOM      4  C   UNL     1       1.705   7.574  20.284  0.00  0.00    +0.000 A 
ATOM      5  N   UNL     1       2.177   6.273  19.875  0.00  0.00    +0.000 N 
ATOM      6 SE   UNL     1       2.171   4.892  21.037  0.00  0.00    +0.000 Se
ATOM      7  C   UNL     1       2.791   3.883  19.676  0.00  0.00    +0.000 A 
ATOM      8  C   UNL     1       3.063   2.517  19.759  0.00  0.00    +0.000 A 
ATOM      9  C   UNL     1       3.542   1.854  18.624  0.00  0.00    +0.000 A 
ATOM     10  C   UNL     1       3.747   2.561  17.427  0.00  0.00    +0.000 A 
ATOM     11  C   UNL     1       3.467   3.938  17.359  0.00  0.00    +0.000 A 
ATOM     12  C   UNL     1       2.980   4.588  18.504  0.00  0.00    +0.000 A 
ATOM     13  C   UNL     1       2.633   5.923  18.631  0.00  0.00    +0.000 A 
ATOM     14  O   UNL     1       2.714   6.720  17.712  0.00  0.00    +0.000 OA
ATOM     15  N   UNL     1       1.593   8.660  19.484  0.00  0.00    +0.000 NA
ATOM     16  H   UNL     1       1.293   7.209  22.363  0.00  0.00    +0.000 HD
ENDROOT
BRANCH   1  17
ATOM     17  S   UNL     1       0.752  11.318  19.950  0.00  0.00    +0.000 S 
BRANCH  17  18
ATOM     18  C   UNL     1      -1.057  11.346  20.197  0.00  0.00    +0.000 C 
BRANCH  18  23
ATOM     19  C   UNL     1      -3.713  10.266  15.111  0.00  0.00    +0.000 C 
ATOM     20  C   UNL     1      -3.028  10.550  16.416  0.00  0.00    +0.000 A 
ATOM     21  C   UNL     1      -3.581  11.454  17.334  0.00  0.00    +0.000 A 
ATOM     22  C   UNL     1      -2.936  11.714  18.546  0.00  0.00    +0.000 A 
ATOM     23  C   UNL     1      -1.731  11.067  18.872  0.00  0.00    +0.000 A 
ATOM     24  C   UNL     1      -1.178  10.160  17.948  0.00  0.00    +0.000 A 
ATOM     25  C   UNL     1      -1.821   9.906  16.730  0.00  0.00    +0.000 A 
ENDBRANCH  18  23
ENDBRANCH  17  18
ENDBRANCH   1  17
TORSDOF 3
ENDMDL
MODEL 6
REMARK VINA RESULT:      -7.7      2.422      8.050
REMARK  Name = 
REMARK  4 active torsions:
REMARK  status: ('A' for Active; 'I' for Inactive)
REMARK    1  A    between atoms: C_1  and  C_2
REMARK    2  A    between atoms: C_5  and  C_6
REMARK    3  A    between atoms: C_6  and  S_7
REMARK    4  A    between atoms: S_7  and  C_8
REMARK                            x       y       z     vdW  Elec       q    Type
REMARK                         _______ _______ _______ _____ _____    ______ ____
ROOT
ATOM      1  C   UNL     1       3.737   5.397  18.158  0.00  0.00    +0.000 A 
ATOM      2  N   UNL     1       3.507   4.924  19.396  0.00  0.00    +0.000 NA
ATOM      3  N   UNL     1       2.800   5.844  20.021  0.00  0.00    +0.000 N 
ATOM      4  C   UNL     1       2.603   6.864  19.167  0.00  0.00    +0.000 A 
ATOM      5  N   UNL     1       1.878   8.061  19.523  0.00  0.00    +0.000 N 
ATOM      6 SE   UNL     1       1.262   8.288  21.204  0.00  0.00    +0.000 Se
ATOM      7  C   UNL     1       0.673   9.902  20.656  0.00  0.00    +0.000 A 
ATOM      8  C   UNL     1       0.018  10.828  21.468  0.00  0.00    +0.000 A 
ATOM      9  C   UNL     1      -0.387  12.047  20.913  0.00  0.00    +0.000 A 
ATOM     10  C   UNL     1      -0.139  12.322  19.558  0.00  0.00    +0.000 A 
ATOM     11  C   UNL     1       0.523  11.379  18.751  0.00  0.00    +0.000 A 
ATOM     12  C   UNL     1       0.930  10.164  19.324  0.00  0.00    +0.000 A 
ATOM     13  C   UNL     1       1.604   9.124  18.705  0.00  0.00    +0.000 A 
ATOM     14  O   UNL     1       1.938   9.155  17.532  0.00  0.00    +0.000 OA
ATOM     15  N   UNL     1       3.174   6.616  17.965  0.00  0.00    +0.000 NA
ATOM     16  H   UNL     1       2.465   5.757  21.005  0.00  0.00    +0.000 HD
ENDROOT
BRANCH   1  17
ATOM     17  S   UNL     1       4.613   4.413  16.933  0.00  0.00    +0.000 S 
BRANCH  17  18
ATOM     18  C   UNL     1       6.225   4.232  17.772  0.00  0.00    +0.000 C 
BRANCH  18  23
ATOM     19  C   UNL     1       8.687   9.508  18.205  0.00  0.00    +0.000 C 
ATOM     20  C   UNL     1       8.048   8.155  18.096  0.00  0.00    +0.000 A 
ATOM     21  C   UNL     1       7.175   7.857  17.040  0.00  0.00    +0.000 A 
ATOM     22  C   UNL     1       6.583   6.595  16.947  0.00  0.00    +0.000 A 
ATOM     23  C   UNL     1       6.860   5.599  17.900  0.00  0.00    +0.000 A 
ATOM     24  C   UNL     1       7.737   5.901  18.959  0.00  0.00    +0.000 A 
ATOM     25  C   UNL     1       8.323   7.169  19.057  0.00  0.00    +0.000 A 
ENDBRANCH  18  23
ENDBRANCH  17  18
ENDBRANCH   1  17
TORSDOF 3
ENDMDL
MODEL 7
REMARK VINA RESULT:      -7.7      2.276      8.040
REMARK  Name = 
REMARK  4 active torsions:
REMARK  status: ('A' for Active; 'I' for Inactive)
REMARK    1  A    between atoms: C_1  and  C_2
REMARK    2  A    between atoms: C_5  and  C_6
REMARK    3  A    between atoms: C_6  and  S_7
REMARK    4  A    between atoms: S_7  and  C_8
REMARK                            x       y       z     vdW  Elec       q    Type
REMARK                         _______ _______ _______ _____ _____    ______ ____
ROOT
ATOM      1  C   UNL     1       3.353   5.422  18.516  0.00  0.00    +0.000 A 
ATOM      2  N   UNL     1       3.234   5.070  19.809  0.00  0.00    +0.000 NA
ATOM      3  N   UNL     1       2.599   6.058  20.406  0.00  0.00    +0.000 N 
ATOM      4  C   UNL     1       2.335   6.999  19.482  0.00  0.00    +0.000 A 
ATOM      5  N   UNL     1       1.661   8.237  19.790  0.00  0.00    +0.000 N 
ATOM      6 SE   UNL     1       1.206   8.632  21.492  0.00  0.00    +0.000 Se
ATOM      7  C   UNL     1       0.589  10.200  20.851  0.00  0.00    +0.000 A 
ATOM      8  C   UNL     1       0.023  11.210  21.629  0.00  0.00    +0.000 A 
ATOM      9  C   UNL     1      -0.418  12.381  21.002  0.00  0.00    +0.000 A 
ATOM     10  C   UNL     1      -0.293  12.524  19.609  0.00  0.00    +0.000 A 
ATOM     11  C   UNL     1       0.280  11.498  18.838  0.00  0.00    +0.000 A 
ATOM     12  C   UNL     1       0.724  10.332  19.483  0.00  0.00    +0.000 A 
ATOM     13  C   UNL     1       1.324   9.227  18.904  0.00  0.00    +0.000 A 
ATOM     14  O   UNL     1       1.548   9.142  17.708  0.00  0.00    +0.000 OA
ATOM     15  N   UNL     1       2.789   6.629  18.262  0.00  0.00    +0.000 NA
ATOM     16  H   UNL     1       2.357   6.069  21.421  0.00  0.00    +0.000 HD
ENDROOT
BRANCH   1  17
ATOM     17  S   UNL     1       4.099   4.312  17.313  0.00  0.00    +0.000 S 
BRANCH  17  18
ATOM     18  C   UNL     1       5.753   4.106  18.062  0.00  0.00    +0.000 C 
BRANCH  18  23
ATOM     19  C   UNL     1       8.530   9.241  17.949  0.00  0.00    +0.000 C 
ATOM     20  C   UNL     1       7.822   7.918  17.975  0.00  0.00    +0.000 A 
ATOM     21  C   UNL     1       8.164   6.940  18.920  0.00  0.00    +0.000 A 
ATOM     22  C   UNL     1       7.501   5.711  18.936  0.00  0.00    +0.000 A 
ATOM     23  C   UNL     1       6.473   5.436  18.016  0.00  0.00    +0.000 A 
ATOM     24  C   UNL     1       6.132   6.419  17.068  0.00  0.00    +0.000 A 
ATOM     25  C   UNL     1       6.803   7.648  17.047  0.00  0.00    +0.000 A 
ENDBRANCH  18  23
ENDBRANCH  17  18
ENDBRANCH   1  17
TORSDOF 3
ENDMDL
MODEL 8
REMARK VINA RESULT:      -7.6      5.556      8.368
REMARK  Name = 
REMARK  4 active torsions:
REMARK  status: ('A' for Active; 'I' for Inactive)
REMARK    1  A    between atoms: C_1  and  C_2
REMARK    2  A    between atoms: C_5  and  C_6
REMARK    3  A    between atoms: C_6  and  S_7
REMARK    4  A    between atoms: S_7  and  C_8
REMARK                            x       y       z     vdW  Elec       q    Type
REMARK                         _______ _______ _______ _____ _____    ______ ____
ROOT
ATOM      1  C   UNL     1       7.154   7.621  17.297  0.00  0.00    +0.000 A 
ATOM      2  N   UNL     1       7.646   6.619  16.547  0.00  0.00    +0.000 NA
ATOM      3  N   UNL     1       6.792   5.621  16.654  0.00  0.00    +0.000 N 
ATOM      4  C   UNL     1       5.791   6.017  17.460  0.00  0.00    +0.000 A 
ATOM      5  N   UNL     1       4.682   5.165  17.815  0.00  0.00    +0.000 N 
ATOM      6 SE   UNL     1       4.629   3.451  17.250  0.00  0.00    +0.000 Se
ATOM      7  C   UNL     1       3.095   3.302  18.186  0.00  0.00    +0.000 A 
ATOM      8  C   UNL     1       2.338   2.135  18.293  0.00  0.00    +0.000 A 
ATOM      9  C   UNL     1       1.164   2.157  19.053  0.00  0.00    +0.000 A 
ATOM     10  C   UNL     1       0.760   3.342  19.691  0.00  0.00    +0.000 A 
ATOM     11  C   UNL     1       1.533   4.511  19.576  0.00  0.00    +0.000 A 
ATOM     12  C   UNL     1       2.712   4.470  18.815  0.00  0.00    +0.000 A 
ATOM     13  C   UNL     1       3.610   5.503  18.598  0.00  0.00    +0.000 A 
ATOM     14  O   UNL     1       3.467   6.618  19.071  0.00  0.00    +0.000 OA
ATOM     15  N   UNL     1       5.976   7.289  17.883  0.00  0.00    +0.000 NA
ATOM     16  H   UNL     1       6.906   4.700  16.176  0.00  0.00    +0.000 HD
ENDROOT
BRANCH   1  17
ATOM     17  S   UNL     1       7.977   9.219  17.373  0.00  0.00    +0.000 S 
BRANCH  17  18
ATOM     18  C   UNL     1       8.761   9.089  19.018  0.00  0.00    +0.000 C 
BRANCH  18  23
ATOM     19  C   UNL     1      11.317  14.181  20.292  0.00  0.00    +0.000 C 
ATOM     20  C   UNL     1      10.666  12.868  19.967  0.00  0.00    +0.000 A 
ATOM     21  C   UNL     1      10.080  12.090  20.975  0.00  0.00    +0.000 A 
ATOM     22  C   UNL     1       9.476  10.869  20.665  0.00  0.00    +0.000 A 
ATOM     23  C   UNL     1       9.435  10.404  19.338  0.00  0.00    +0.000 A 
ATOM     24  C   UNL     1      10.025  11.188  18.328  0.00  0.00    +0.000 A 
ATOM     25  C   UNL     1      10.637  12.408  18.642  0.00  0.00    +0.000 A 
ENDBRANCH  18  23
ENDBRANCH  17  18
ENDBRANCH   1  17
TORSDOF 3
ENDMDL
MODEL 9
REMARK VINA RESULT:      -7.6      6.283      8.592
REMARK  Name = 
REMARK  4 active torsions:
REMARK  status: ('A' for Active; 'I' for Inactive)
REMARK    1  A    between atoms: C_1  and  C_2
REMARK    2  A    between atoms: C_5  and  C_6
REMARK    3  A    between atoms: C_6  and  S_7
REMARK    4  A    between atoms: S_7  and  C_8
REMARK                            x       y       z     vdW  Elec       q    Type
REMARK                         _______ _______ _______ _____ _____    ______ ____
ROOT
ATOM      1  C   UNL     1       7.446   7.566  17.544  0.00  0.00    +0.000 A 
ATOM      2  N   UNL     1       8.165   7.104  18.582  0.00  0.00    +0.000 NA
ATOM      3  N   UNL     1       8.790   8.146  19.094  0.00  0.00    +0.000 N 
ATOM      4  C   UNL     1       8.449   9.228  18.372  0.00  0.00    +0.000 A 
ATOM      5  N   UNL     1       8.965  10.549  18.641  0.00  0.00    +0.000 N 
ATOM      6 SE   UNL     1      10.193  10.803  19.939  0.00  0.00    +0.000 Se
ATOM      7  C   UNL     1      10.201  12.537  19.445  0.00  0.00    +0.000 A 
ATOM      8  C   UNL     1      11.001  13.524  20.021  0.00  0.00    +0.000 A 
ATOM      9  C   UNL     1      10.907  14.835  19.541  0.00  0.00    +0.000 A 
ATOM     10  C   UNL     1      10.015  15.143  18.500  0.00  0.00    +0.000 A 
ATOM     11  C   UNL     1       9.215  14.137  17.929  0.00  0.00    +0.000 A 
ATOM     12  C   UNL     1       9.326  12.825  18.417  0.00  0.00    +0.000 A 
ATOM     13  C   UNL     1       8.642  11.703  17.979  0.00  0.00    +0.000 A 
ATOM     14  O   UNL     1       7.828  11.734  17.070  0.00  0.00    +0.000 OA
ATOM     15  N   UNL     1       7.586   8.905  17.381  0.00  0.00    +0.000 NA
ATOM     16  H   UNL     1       9.426   8.099  19.920  0.00  0.00    +0.000 HD
ENDROOT
BRANCH   1  17
ATOM     17  S   UNL     1       6.370   6.476  16.599  0.00  0.00    +0.000 S 
BRANCH  17  18
ATOM     18  C   UNL     1       4.744   7.011  17.239  0.00  0.00    +0.000 C 
BRANCH  18  23
ATOM     19  C   UNL     1       1.569   2.244  18.372  0.00  0.00    +0.000 C 
ATOM     20  C   UNL     1       2.390   3.468  18.087  0.00  0.00    +0.000 A 
ATOM     21  C   UNL     1       3.655   3.360  17.493  0.00  0.00    +0.000 A 
ATOM     22  C   UNL     1       4.413   4.504  17.232  0.00  0.00    +0.000 A 
ATOM     23  C   UNL     1       3.918   5.782  17.547  0.00  0.00    +0.000 A 
ATOM     24  C   UNL     1       2.647   5.887  18.143  0.00  0.00    +0.000 A 
ATOM     25  C   UNL     1       1.891   4.739  18.412  0.00  0.00    +0.000 A 
ENDBRANCH  18  23
ENDBRANCH  17  18
ENDBRANCH   1  17
TORSDOF 3
ENDMDL
