MODEL 1
REMARK VINA RESULT:      -7.9      0.000      0.000
REMARK  Name = 
REMARK  5 active torsions:
REMARK  status: ('A' for Active; 'I' for Inactive)
REMARK    1  A    between atoms: C_1  and  C_2
REMARK    2  A    between atoms: C_2  and  C_3
REMARK    3  A    between atoms: C_2  and  C_4
REMARK    4  A    between atoms: C_2  and  N_5
REMARK    5  A    between atoms: N_8  and  C_9
REMARK                            x       y       z     vdW  Elec       q    Type
REMARK                         _______ _______ _______ _____ _____    ______ ____
ROOT
ATOM      1  N   UNL     1       3.305   4.033  18.732  0.00  0.00    +0.000 N 
ATOM      2  C   UNL     1       2.271   4.982  18.976  0.00  0.00    +0.000 A 
ATOM      3  O   UNL     1       1.211   4.784  19.554  0.00  0.00    +0.000 OA
ATOM      4  N   UNL     1       2.698   6.216  18.435  0.00  0.00    +0.000 N 
ATOM      5  C   UNL     1       3.987   6.047  17.891  0.00  0.00    +0.000 A 
ATOM      6  N   UNL     1       4.788   7.004  17.383  0.00  0.00    +0.000 NA
ATOM      7  C   UNL     1       6.029   6.608  17.041  0.00  0.00    +0.000 A 
ATOM      8  C   UNL     1       6.493   5.306  17.196  0.00  0.00    +0.000 A 
ATOM      9  C   UNL     1       5.636   4.331  17.719  0.00  0.00    +0.000 A 
ATOM     10  C   UNL     1       4.361   4.721  18.084  0.00  0.00    +0.000 A 
ENDROOT
BRANCH   4  11
ATOM     11  C   UNL     1       2.259   7.498  18.826  0.00  0.00    +0.000 A 
ATOM     12  C   UNL     1       1.914   8.444  17.831  0.00  0.00    +0.000 A 
ATOM     13  C   UNL     1       1.162   9.577  18.146  0.00  0.00    +0.000 A 
ATOM     14  C   UNL     1       0.784   9.742  19.460  0.00  0.00    +0.000 A 
ATOM     15  C   UNL     1       1.212   8.885  20.447  0.00  0.00    +0.000 A 
ATOM     16  C   UNL     1       1.982   7.782  20.170  0.00  0.00    +0.000 A 
ATOM     17  O   UNL     1       0.698   9.206  21.666  0.00  0.00    +0.000 OA
ATOM     18  C   UNL     1      -0.307  10.155  21.261  0.00  0.00    +0.000 C 
ATOM     19  O   UNL     1      -0.076  10.681  19.937  0.00  0.00    +0.000 OA
ENDBRANCH   4  11
BRANCH   1  21
ATOM     20  C   UNL     1       1.964   2.173  19.794  0.00  0.00    +0.000 C 
ATOM     21  C   UNL     1       3.297   2.609  19.132  0.00  0.00    +0.000 C 
ATOM     22  C   UNL     1       4.389   2.304  20.178  0.00  0.00    +0.000 C 
ATOM     23  C   UNL     1       3.471   1.720  17.886  0.00  0.00    +0.000 C 
ENDBRANCH   1  21
TORSDOF 2
ENDMDL
MODEL 2
REMARK VINA RESULT:      -7.7      0.653      1.196
REMARK  Name = 
REMARK  5 active torsions:
REMARK  status: ('A' for Active; 'I' for Inactive)
REMARK    1  A    between atoms: C_1  and  C_2
REMARK    2  A    between atoms: C_2  and  C_3
REMARK    3  A    between atoms: C_2  and  C_4
REMARK    4  A    between atoms: C_2  and  N_5
REMARK    5  A    between atoms: N_8  and  C_9
REMARK                            x       y       z     vdW  Elec       q    Type
REMARK                         _______ _______ _______ _____ _____    ______ ____
ROOT
ATOM      1  N   UNL     1       3.139   4.124  19.428  0.00  0.00    +0.000 N 
ATOM      2  C   UNL     1       2.125   5.122  19.507  0.00  0.00    +0.000 A 
ATOM      3  O   UNL     1       1.046   5.032  20.074  0.00  0.00    +0.000 OA
ATOM      4  N   UNL     1       2.601   6.258  18.813  0.00  0.00    +0.000 N 
ATOM      5  C   UNL     1       3.899   5.985  18.337  0.00  0.00    +0.000 A 
ATOM      6  N   UNL     1       4.739   6.842  17.726  0.00  0.00    +0.000 NA
ATOM      7  C   UNL     1       5.978   6.373  17.481  0.00  0.00    +0.000 A 
ATOM      8  C   UNL     1       6.401   5.093  17.828  0.00  0.00    +0.000 A 
ATOM      9  C   UNL     1       5.503   4.222  18.455  0.00  0.00    +0.000 A 
ATOM     10  C   UNL     1       4.231   4.689  18.723  0.00  0.00    +0.000 A 
ENDROOT
BRANCH   4  11
ATOM     11  C   UNL     1       2.188   7.593  19.009  0.00  0.00    +0.000 A 
ATOM     12  C   UNL     1       1.958   8.418  17.882  0.00  0.00    +0.000 A 
ATOM     13  C   UNL     1       1.232   9.604  17.996  0.00  0.00    +0.000 A 
ATOM     14  C   UNL     1       0.764   9.944  19.247  0.00  0.00    +0.000 A 
ATOM     15  C   UNL     1       1.081   9.203  20.361  0.00  0.00    +0.000 A 
ATOM     16  C   UNL     1       1.822   8.050  20.283  0.00  0.00    +0.000 A 
ATOM     17  O   UNL     1       0.490   9.689  21.488  0.00  0.00    +0.000 OA
ATOM     18  C   UNL     1      -0.441  10.613  20.892  0.00  0.00    +0.000 C 
ATOM     19  O   UNL     1      -0.090  10.962  19.536  0.00  0.00    +0.000 OA
ENDBRANCH   4  11
BRANCH   1  21
ATOM     20  C   UNL     1       4.468   2.085  20.107  0.00  0.00    +0.000 C 
ATOM     21  C   UNL     1       3.080   2.770  20.020  0.00  0.00    +0.000 C 
ATOM     22  C   UNL     1       2.209   1.817  19.175  0.00  0.00    +0.000 C 
ATOM     23  C   UNL     1       2.549   2.857  21.464  0.00  0.00    +0.000 C 
ENDBRANCH   1  21
TORSDOF 2
ENDMDL
MODEL 3
REMARK VINA RESULT:      -7.7      1.692      3.529
REMARK  Name = 
REMARK  5 active torsions:
REMARK  status: ('A' for Active; 'I' for Inactive)
REMARK    1  A    between atoms: C_1  and  C_2
REMARK    2  A    between atoms: C_2  and  C_3
REMARK    3  A    between atoms: C_2  and  C_4
REMARK    4  A    between atoms: C_2  and  N_5
REMARK    5  A    between atoms: N_8  and  C_9
REMARK                            x       y       z     vdW  Elec       q    Type
REMARK                         _______ _______ _______ _____ _____    ______ ____
ROOT
ATOM      1  N   UNL     1       4.638   5.038  17.237  0.00  0.00    +0.000 N 
ATOM      2  C   UNL     1       4.354   6.303  17.828  0.00  0.00    +0.000 A 
ATOM      3  O   UNL     1       4.958   7.350  17.650  0.00  0.00    +0.000 OA
ATOM      4  N   UNL     1       3.223   6.132  18.659  0.00  0.00    +0.000 N 
ATOM      5  C   UNL     1       2.792   4.794  18.565  0.00  0.00    +0.000 A 
ATOM      6  N   UNL     1       1.686   4.255  19.113  0.00  0.00    +0.000 NA
ATOM      7  C   UNL     1       1.426   2.979  18.770  0.00  0.00    +0.000 A 
ATOM      8  C   UNL     1       2.221   2.235  17.904  0.00  0.00    +0.000 A 
ATOM      9  C   UNL     1       3.368   2.819  17.357  0.00  0.00    +0.000 A 
ATOM     10  C   UNL     1       3.647   4.131  17.690  0.00  0.00    +0.000 A 
ENDROOT
BRANCH   4  11
ATOM     11  C   UNL     1       2.319   7.139  19.059  0.00  0.00    +0.000 A 
ATOM     12  C   UNL     1       1.916   7.208  20.414  0.00  0.00    +0.000 A 
ATOM     13  C   UNL     1       1.317   8.359  20.928  0.00  0.00    +0.000 A 
ATOM     14  C   UNL     1       1.120   9.412  20.063  0.00  0.00    +0.000 A 
ATOM     15  C   UNL     1       1.408   9.308  18.722  0.00  0.00    +0.000 A 
ATOM     16  C   UNL     1       1.967   8.175  18.183  0.00  0.00    +0.000 A 
ATOM     17  O   UNL     1       1.175  10.470  18.053  0.00  0.00    +0.000 OA
ATOM     18  C   UNL     1       1.001  11.361  19.172  0.00  0.00    +0.000 C 
ATOM     19  O   UNL     1       0.706  10.663  20.401  0.00  0.00    +0.000 OA
ENDBRANCH   4  11
BRANCH   1  21
ATOM     20  C   UNL     1       5.639   3.321  15.677  0.00  0.00    +0.000 C 
ATOM     21  C   UNL     1       5.733   4.743  16.288  0.00  0.00    +0.000 C 
ATOM     22  C   UNL     1       7.113   4.799  16.976  0.00  0.00    +0.000 C 
ATOM     23  C   UNL     1       5.672   5.727  15.104  0.00  0.00    +0.000 C 
ENDBRANCH   1  21
TORSDOF 2
ENDMDL
MODEL 4
REMARK VINA RESULT:      -7.5      3.449      6.272
REMARK  Name = 
REMARK  5 active torsions:
REMARK  status: ('A' for Active; 'I' for Inactive)
REMARK    1  A    between atoms: C_1  and  C_2
REMARK    2  A    between atoms: C_2  and  C_3
REMARK    3  A    between atoms: C_2  and  C_4
REMARK    4  A    between atoms: C_2  and  N_5
REMARK    5  A    between atoms: N_8  and  C_9
REMARK                            x       y       z     vdW  Elec       q    Type
REMARK                         _______ _______ _______ _____ _____    ______ ____
ROOT
ATOM      1  N   UNL     1       2.960   4.057  18.776  0.00  0.00    +0.000 N 
ATOM      2  C   UNL     1       3.986   3.394  18.042  0.00  0.00    +0.000 A 
ATOM      3  O   UNL     1       4.217   2.193  18.022  0.00  0.00    +0.000 OA
ATOM      4  N   UNL     1       4.692   4.383  17.322  0.00  0.00    +0.000 N 
ATOM      5  C   UNL     1       4.100   5.636  17.577  0.00  0.00    +0.000 A 
ATOM      6  N   UNL     1       4.404   6.813  16.998  0.00  0.00    +0.000 NA
ATOM      7  C   UNL     1       3.604   7.848  17.320  0.00  0.00    +0.000 A 
ATOM      8  C   UNL     1       2.520   7.745  18.186  0.00  0.00    +0.000 A 
ATOM      9  C   UNL     1       2.233   6.510  18.778  0.00  0.00    +0.000 A 
ATOM     10  C   UNL     1       3.037   5.435  18.453  0.00  0.00    +0.000 A 
ENDROOT
BRANCH   4  11
ATOM     11  C   UNL     1       5.445   4.185  16.145  0.00  0.00    +0.000 A 
ATOM     12  C   UNL     1       4.845   3.534  15.041  0.00  0.00    +0.000 A 
ATOM     13  C   UNL     1       5.405   3.617  13.766  0.00  0.00    +0.000 A 
ATOM     14  C   UNL     1       6.568   4.343  13.630  0.00  0.00    +0.000 A 
ATOM     15  C   UNL     1       7.213   4.882  14.718  0.00  0.00    +0.000 A 
ATOM     16  C   UNL     1       6.702   4.786  15.990  0.00  0.00    +0.000 A 
ATOM     17  O   UNL     1       8.321   5.588  14.362  0.00  0.00    +0.000 OA
ATOM     18  C   UNL     1       8.111   5.664  12.940  0.00  0.00    +0.000 C 
ATOM     19  O   UNL     1       7.175   4.676  12.460  0.00  0.00    +0.000 OA
ENDBRANCH   4  11
BRANCH   1  21
ATOM     20  C   UNL     1       1.052   4.437  20.388  0.00  0.00    +0.000 C 
ATOM     21  C   UNL     1       1.968   3.415  19.666  0.00  0.00    +0.000 C 
ATOM     22  C   UNL     1       2.651   2.614  20.794  0.00  0.00    +0.000 C 
ATOM     23  C   UNL     1       1.038   2.509  18.838  0.00  0.00    +0.000 C 
ENDBRANCH   1  21
TORSDOF 2
ENDMDL
MODEL 5
REMARK VINA RESULT:      -7.4      3.349      6.313
REMARK  Name = 
REMARK  5 active torsions:
REMARK  status: ('A' for Active; 'I' for Inactive)
REMARK    1  A    between atoms: C_1  and  C_2
REMARK    2  A    between atoms: C_2  and  C_3
REMARK    3  A    between atoms: C_2  and  C_4
REMARK    4  A    between atoms: C_2  and  N_5
REMARK    5  A    between atoms: N_8  and  C_9
REMARK                            x       y       z     vdW  Elec       q    Type
REMARK                         _______ _______ _______ _____ _____    ______ ____
ROOT
ATOM      1  N   UNL     1       2.992   4.169  18.877  0.00  0.00    +0.000 N 
ATOM      2  C   UNL     1       4.013   3.720  17.990  0.00  0.00    +0.000 A 
ATOM      3  O   UNL     1       4.358   2.564  17.789  0.00  0.00    +0.000 OA
ATOM      4  N   UNL     1       4.558   4.865  17.366  0.00  0.00    +0.000 N 
ATOM      5  C   UNL     1       3.869   6.003  17.830  0.00  0.00    +0.000 A 
ATOM      6  N   UNL     1       4.008   7.271  17.399  0.00  0.00    +0.000 NA
ATOM      7  C   UNL     1       3.140   8.164  17.915  0.00  0.00    +0.000 A 
ATOM      8  C   UNL     1       2.146   7.832  18.830  0.00  0.00    +0.000 A 
ATOM      9  C   UNL     1       2.031   6.508  19.266  0.00  0.00    +0.000 A 
ATOM     10  C   UNL     1       2.907   5.577  18.741  0.00  0.00    +0.000 A 
ENDROOT
BRANCH   4  11
ATOM     11  C   UNL     1       5.226   4.903  16.124  0.00  0.00    +0.000 A 
ATOM     12  C   UNL     1       6.619   5.154  16.095  0.00  0.00    +0.000 A 
ATOM     13  C   UNL     1       7.379   4.865  14.961  0.00  0.00    +0.000 A 
ATOM     14  C   UNL     1       6.717   4.344  13.871  0.00  0.00    +0.000 A 
ATOM     15  C   UNL     1       5.349   4.204  13.856  0.00  0.00    +0.000 A 
ATOM     16  C   UNL     1       4.573   4.512  14.947  0.00  0.00    +0.000 A 
ATOM     17  O   UNL     1       4.902   3.639  12.701  0.00  0.00    +0.000 OA
ATOM     18  C   UNL     1       6.155   3.187  12.154  0.00  0.00    +0.000 C 
ATOM     19  O   UNL     1       7.293   3.851  12.742  0.00  0.00    +0.000 OA
ENDBRANCH   4  11
BRANCH   1  21
ATOM     20  C   UNL     1       1.017   4.103  20.452  0.00  0.00    +0.000 C 
ATOM     21  C   UNL     1       2.144   3.314  19.736  0.00  0.00    +0.000 C 
ATOM     22  C   UNL     1       2.961   2.657  20.869  0.00  0.00    +0.000 C 
ATOM     23  C   UNL     1       1.444   2.244  18.876  0.00  0.00    +0.000 C 
ENDBRANCH   1  21
TORSDOF 2
ENDMDL
MODEL 6
REMARK VINA RESULT:      -7.4      1.663      3.218
REMARK  Name = 
REMARK  5 active torsions:
REMARK  status: ('A' for Active; 'I' for Inactive)
REMARK    1  A    between atoms: C_1  and  C_2
REMARK    2  A    between atoms: C_2  and  C_3
REMARK    3  A    between atoms: C_2  and  C_4
REMARK    4  A    between atoms: C_2  and  N_5
REMARK    5  A    between atoms: N_8  and  C_9
REMARK                            x       y       z     vdW  Elec       q    Type
REMARK                         _______ _______ _______ _____ _____    ______ ____
ROOT
ATOM      1  N   UNL     1       4.723   5.069  17.089  0.00  0.00    +0.000 N 
ATOM      2  C   UNL     1       4.614   6.398  17.593  0.00  0.00    +0.000 A 
ATOM      3  O   UNL     1       5.350   7.342  17.343  0.00  0.00    +0.000 OA
ATOM      4  N   UNL     1       3.481   6.434  18.436  0.00  0.00    +0.000 N 
ATOM      5  C   UNL     1       2.876   5.161  18.434  0.00  0.00    +0.000 A 
ATOM      6  N   UNL     1       1.715   4.810  19.019  0.00  0.00    +0.000 NA
ATOM      7  C   UNL     1       1.285   3.559  18.764  0.00  0.00    +0.000 A 
ATOM      8  C   UNL     1       1.966   2.661  17.948  0.00  0.00    +0.000 A 
ATOM      9  C   UNL     1       3.174   3.051  17.360  0.00  0.00    +0.000 A 
ATOM     10  C   UNL     1       3.626   4.334  17.603  0.00  0.00    +0.000 A 
ENDROOT
BRANCH   4  11
ATOM     11  C   UNL     1       2.721   7.575  18.769  0.00  0.00    +0.000 A 
ATOM     12  C   UNL     1       2.249   8.419  17.735  0.00  0.00    +0.000 A 
ATOM     13  C   UNL     1       1.228   9.341  17.970  0.00  0.00    +0.000 A 
ATOM     14  C   UNL     1       0.713   9.406  19.245  0.00  0.00    +0.000 A 
ATOM     15  C   UNL     1       1.246   8.669  20.277  0.00  0.00    +0.000 A 
ATOM     16  C   UNL     1       2.273   7.778  20.082  0.00  0.00    +0.000 A 
ATOM     17  O   UNL     1       0.570   8.853  21.444  0.00  0.00    +0.000 OA
ATOM     18  C   UNL     1      -0.592   9.542  20.943  0.00  0.00    +0.000 C 
ATOM     19  O   UNL     1      -0.381  10.114  19.635  0.00  0.00    +0.000 OA
ENDBRANCH   4  11
BRANCH   1  21
ATOM     20  C   UNL     1       5.545   3.090  15.751  0.00  0.00    +0.000 C 
ATOM     21  C   UNL     1       5.760   4.570  16.159  0.00  0.00    +0.000 C 
ATOM     22  C   UNL     1       7.165   4.616  16.795  0.00  0.00    +0.000 C 
ATOM     23  C   UNL     1       5.724   5.388  14.854  0.00  0.00    +0.000 C 
ENDBRANCH   1  21
TORSDOF 2
ENDMDL
MODEL 7
REMARK VINA RESULT:      -6.8      1.579      3.456
REMARK  Name = 
REMARK  5 active torsions:
REMARK  status: ('A' for Active; 'I' for Inactive)
REMARK    1  A    between atoms: C_1  and  C_2
REMARK    2  A    between atoms: C_2  and  C_3
REMARK    3  A    between atoms: C_2  and  C_4
REMARK    4  A    between atoms: C_2  and  N_5
REMARK    5  A    between atoms: N_8  and  C_9
REMARK                            x       y       z     vdW  Elec       q    Type
REMARK                         _______ _______ _______ _____ _____    ______ ____
ROOT
ATOM      1  N   UNL     1       4.590   5.221  17.821  0.00  0.00    +0.000 N 
ATOM      2  C   UNL     1       4.094   6.541  18.027  0.00  0.00    +0.000 A 
ATOM      3  O   UNL     1       4.323   7.528  17.342  0.00  0.00    +0.000 OA
ATOM      4  N   UNL     1       3.269   6.504  19.174  0.00  0.00    +0.000 N 
ATOM      5  C   UNL     1       3.226   5.182  19.657  0.00  0.00    +0.000 A 
ATOM      6  N   UNL     1       2.467   4.706  20.662  0.00  0.00    +0.000 NA
ATOM      7  C   UNL     1       2.511   3.373  20.849  0.00  0.00    +0.000 A 
ATOM      8  C   UNL     1       3.276   2.510  20.070  0.00  0.00    +0.000 A 
ATOM      9  C   UNL     1       4.061   3.034  19.038  0.00  0.00    +0.000 A 
ATOM     10  C   UNL     1       4.021   4.398  18.825  0.00  0.00    +0.000 A 
ENDROOT
BRANCH   4  11
ATOM     11  C   UNL     1       2.227   7.403  19.484  0.00  0.00    +0.000 A 
ATOM     12  C   UNL     1       1.714   7.440  20.803  0.00  0.00    +0.000 A 
ATOM     13  C   UNL     1       0.948   8.518  21.247  0.00  0.00    +0.000 A 
ATOM     14  C   UNL     1       0.700   9.532  20.349  0.00  0.00    +0.000 A 
ATOM     15  C   UNL     1       1.101   9.447  19.036  0.00  0.00    +0.000 A 
ATOM     16  C   UNL     1       1.827   8.382  18.563  0.00  0.00    +0.000 A 
ATOM     17  O   UNL     1       0.788  10.568  18.328  0.00  0.00    +0.000 OA
ATOM     18  C   UNL     1       0.427  11.444  19.413  0.00  0.00    +0.000 C 
ATOM     19  O   UNL     1       0.119  10.730  20.629  0.00  0.00    +0.000 OA
ENDBRANCH   4  11
BRANCH   1  21
ATOM     20  C   UNL     1       5.520   5.777  15.538  0.00  0.00    +0.000 C 
ATOM     21  C   UNL     1       5.489   4.786  16.730  0.00  0.00    +0.000 C 
ATOM     22  C   UNL     1       5.039   3.438  16.127  0.00  0.00    +0.000 C 
ATOM     23  C   UNL     1       6.935   4.694  17.254  0.00  0.00    +0.000 C 
ENDBRANCH   1  21
TORSDOF 2
ENDMDL
MODEL 8
REMARK VINA RESULT:      -6.8      3.192      5.804
REMARK  Name = 
REMARK  5 active torsions:
REMARK  status: ('A' for Active; 'I' for Inactive)
REMARK    1  A    between atoms: C_1  and  C_2
REMARK    2  A    between atoms: C_2  and  C_3
REMARK    3  A    between atoms: C_2  and  C_4
REMARK    4  A    between atoms: C_2  and  N_5
REMARK    5  A    between atoms: N_8  and  C_9
REMARK                            x       y       z     vdW  Elec       q    Type
REMARK                         _______ _______ _______ _____ _____    ______ ____
ROOT
ATOM      1  N   UNL     1       3.094   3.799  20.151  0.00  0.00    +0.000 N 
ATOM      2  C   UNL     1       4.262   3.772  19.334  0.00  0.00    +0.000 A 
ATOM      3  O   UNL     1       4.944   2.796  19.058  0.00  0.00    +0.000 OA
ATOM      4  N   UNL     1       4.487   5.092  18.882  0.00  0.00    +0.000 N 
ATOM      5  C   UNL     1       3.464   5.921  19.382  0.00  0.00    +0.000 A 
ATOM      6  N   UNL     1       3.253   7.219  19.093  0.00  0.00    +0.000 NA
ATOM      7  C   UNL     1       2.128   7.758  19.601  0.00  0.00    +0.000 A 
ATOM      8  C   UNL     1       1.214   7.048  20.374  0.00  0.00    +0.000 A 
ATOM      9  C   UNL     1       1.464   5.703  20.665  0.00  0.00    +0.000 A 
ATOM     10  C   UNL     1       2.609   5.131  20.144  0.00  0.00    +0.000 A 
ENDROOT
BRANCH   4  11
ATOM     11  C   UNL     1       5.200   5.471  17.725  0.00  0.00    +0.000 A 
ATOM     12  C   UNL     1       6.440   6.140  17.864  0.00  0.00    +0.000 A 
ATOM     13  C   UNL     1       7.334   6.226  16.795  0.00  0.00    +0.000 A 
ATOM     14  C   UNL     1       6.955   5.649  15.603  0.00  0.00    +0.000 A 
ATOM     15  C   UNL     1       5.706   5.097  15.433  0.00  0.00    +0.000 A 
ATOM     16  C   UNL     1       4.794   5.029  16.458  0.00  0.00    +0.000 A 
ATOM     17  O   UNL     1       5.549   4.552  14.196  0.00  0.00    +0.000 OA
ATOM     18  C   UNL     1       6.918   4.571  13.748  0.00  0.00    +0.000 C 
ATOM     19  O   UNL     1       7.740   5.485  14.505  0.00  0.00    +0.000 OA
ENDBRANCH   4  11
BRANCH   1  21
ATOM     20  C   UNL     1       1.702   1.710  19.864  0.00  0.00    +0.000 C 
ATOM     21  C   UNL     1       2.478   2.640  20.832  0.00  0.00    +0.000 C 
ATOM     22  C   UNL     1       1.441   3.085  21.886  0.00  0.00    +0.000 C 
ATOM     23  C   UNL     1       3.575   1.774  21.479  0.00  0.00    +0.000 C 
ENDBRANCH   1  21
TORSDOF 2
ENDMDL
MODEL 9
REMARK VINA RESULT:      -6.7      2.720      6.440
REMARK  Name = 
REMARK  5 active torsions:
REMARK  status: ('A' for Active; 'I' for Inactive)
REMARK    1  A    between atoms: C_1  and  C_2
REMARK    2  A    between atoms: C_2  and  C_3
REMARK    3  A    between atoms: C_2  and  C_4
REMARK    4  A    between atoms: C_2  and  N_5
REMARK    5  A    between atoms: N_8  and  C_9
REMARK                            x       y       z     vdW  Elec       q    Type
REMARK                         _______ _______ _______ _____ _____    ______ ____
ROOT
ATOM      1  N   UNL     1       1.928   7.400  19.813  0.00  0.00    +0.000 N 
ATOM      2  C   UNL     1       2.799   7.667  18.717  0.00  0.00    +0.000 A 
ATOM      3  O   UNL     1       3.006   8.749  18.189  0.00  0.00    +0.000 OA
ATOM      4  N   UNL     1       3.399   6.441  18.352  0.00  0.00    +0.000 N 
ATOM      5  C   UNL     1       2.936   5.434  19.222  0.00  0.00    +0.000 A 
ATOM      6  N   UNL     1       3.350   4.154  19.280  0.00  0.00    +0.000 NA
ATOM      7  C   UNL     1       2.842   3.419  20.289  0.00  0.00    +0.000 A 
ATOM      8  C   UNL     1       1.951   3.918  21.233  0.00  0.00    +0.000 A 
ATOM      9  C   UNL     1       1.532   5.250  21.143  0.00  0.00    +0.000 A 
ATOM     10  C   UNL     1       2.050   6.022  20.120  0.00  0.00    +0.000 A 
ENDROOT
BRANCH   4  11
ATOM     11  C   UNL     1       4.627   6.279  17.675  0.00  0.00    +0.000 A 
ATOM     12  C   UNL     1       5.784   5.935  18.414  0.00  0.00    +0.000 A 
ATOM     13  C   UNL     1       6.920   5.432  17.778  0.00  0.00    +0.000 A 
ATOM     14  C   UNL     1       6.873   5.299  16.408  0.00  0.00    +0.000 A 
ATOM     15  C   UNL     1       5.793   5.736  15.677  0.00  0.00    +0.000 A 
ATOM     16  C   UNL     1       4.676   6.266  16.274  0.00  0.00    +0.000 A 
ATOM     17  O   UNL     1       5.933   5.479  14.347  0.00  0.00    +0.000 OA
ATOM     18  C   UNL     1       7.063   4.587  14.393  0.00  0.00    +0.000 C 
ATOM     19  O   UNL     1       7.803   4.685  15.628  0.00  0.00    +0.000 OA
ENDBRANCH   4  11
BRANCH   1  21
ATOM     20  C   UNL     1      -0.262   7.812  21.004  0.00  0.00    +0.000 C 
ATOM     21  C   UNL     1       1.095   8.391  20.529  0.00  0.00    +0.000 C 
ATOM     22  C   UNL     1       0.733   9.589  19.626  0.00  0.00    +0.000 C 
ATOM     23  C   UNL     1       1.830   8.867  21.797  0.00  0.00    +0.000 C 
ENDBRANCH   1  21
TORSDOF 2
ENDMDL
