MODEL 1
REMARK VINA RESULT:      -7.9      0.000      0.000
REMARK  Name = 
REMARK  7 active torsions:
REMARK  status: ('A' for Active; 'I' for Inactive)
REMARK    1  A    between atoms: C_1  and  C_2
REMARK    2  A    between atoms: C_7  and  C_8
REMARK    3  A    between atoms: C_8  and  N_9
REMARK    4  A    between atoms: C_12  and  C_13
REMARK    5  A    between atoms: C_13  and  C_14
REMARK    6  A    between atoms: C_14  and  C_15
REMARK    7  A    between atoms: N_17  and  O_18
REMARK                            x       y       z     vdW  Elec       q    Type
REMARK                         _______ _______ _______ _____ _____    ______ ____
ROOT
ATOM      1  N   UNL     1       3.693   6.461  18.640  0.00  0.00    +0.000 N 
ATOM      2  C   UNL     1       3.629   7.282  17.466  0.00  0.00    +0.000 C 
ATOM      3  C   UNL     1       4.742   6.711  16.659  0.00  0.00    +0.000 C 
ATOM      4  C   UNL     1       5.418   5.747  17.299  0.00  0.00    +0.000 C 
ATOM      5  C   UNL     1       4.756   5.582  18.613  0.00  0.00    +0.000 C 
ATOM      6  O   UNL     1       5.071   4.759  19.452  0.00  0.00    +0.000 OA
ENDROOT
BRANCH   1   7
ATOM      7  C   UNL     1       2.614   6.401  19.611  0.00  0.00    +0.000 C 
BRANCH   7  14
ATOM      8  C   UNL     1       1.410   4.495  17.543  0.00  0.00    +0.000 C 
ATOM      9  C   UNL     1       1.580   4.123  18.991  0.00  0.00    +0.000 A 
ATOM     10  C   UNL     1       1.170   2.840  19.401  0.00  0.00    +0.000 A 
ATOM     11  C   UNL     1       1.354   2.410  20.714  0.00  0.00    +0.000 A 
ATOM     12  C   UNL     1       1.936   3.262  21.644  0.00  0.00    +0.000 A 
ATOM     13  C   UNL     1       2.312   4.551  21.264  0.00  0.00    +0.000 A 
ATOM     14  C   UNL     1       2.139   5.005  19.941  0.00  0.00    +0.000 A 
ENDBRANCH   7  14
ENDBRANCH   1   7
BRANCH   4  15
ATOM     15  C   UNL     1       6.576   4.930  16.830  0.00  0.00    +0.000 C 
BRANCH  15  16
ATOM     16  C   UNL     1       6.222   3.958  15.703  0.00  0.00    +0.000 C 
BRANCH  16  17
ATOM     17  C   UNL     1       6.802   4.390  14.374  0.00  0.00    +0.000 C 
ATOM     18  O   UNL     1       6.447   3.958  13.280  0.00  0.00    +0.000 OA
ATOM     19  N   UNL     1       7.804   5.326  14.498  0.00  0.00    +0.000 N 
ATOM     20  H   UNL     1       7.930   5.896  15.329  0.00  0.00    +0.000 HD
BRANCH  19  21
ATOM     21  O   UNL     1       8.311   5.854  13.287  0.00  0.00    +0.000 OA
ATOM     22  H   UNL     1       9.086   6.375  13.592  0.00  0.00    +0.000 HD
ENDBRANCH  19  21
ENDBRANCH  16  17
ENDBRANCH  15  16
ENDBRANCH   4  15
TORSDOF 6
ENDMDL
MODEL 2
REMARK VINA RESULT:      -7.7      2.773      5.605
REMARK  Name = 
REMARK  7 active torsions:
REMARK  status: ('A' for Active; 'I' for Inactive)
REMARK    1  A    between atoms: C_1  and  C_2
REMARK    2  A    between atoms: C_7  and  C_8
REMARK    3  A    between atoms: C_8  and  N_9
REMARK    4  A    between atoms: C_12  and  C_13
REMARK    5  A    between atoms: C_13  and  C_14
REMARK    6  A    between atoms: C_14  and  C_15
REMARK    7  A    between atoms: N_17  and  O_18
REMARK                            x       y       z     vdW  Elec       q    Type
REMARK                         _______ _______ _______ _____ _____    ______ ____
ROOT
ATOM      1  N   UNL     1       2.918   6.223  18.396  0.00  0.00    +0.000 N 
ATOM      2  C   UNL     1       2.607   6.890  19.626  0.00  0.00    +0.000 C 
ATOM      3  C   UNL     1       1.829   5.835  20.333  0.00  0.00    +0.000 C 
ATOM      4  C   UNL     1       1.638   4.734  19.593  0.00  0.00    +0.000 C 
ATOM      5  C   UNL     1       2.330   4.978  18.307  0.00  0.00    +0.000 C 
ATOM      6  O   UNL     1       2.410   4.174  17.396  0.00  0.00    +0.000 OA
ENDROOT
BRANCH   1   7
ATOM      7  C   UNL     1       3.935   6.708  17.480  0.00  0.00    +0.000 C 
BRANCH   7  14
ATOM      8  C   UNL     1       5.299   5.514  15.015  0.00  0.00    +0.000 C 
ATOM      9  C   UNL     1       5.875   5.398  16.400  0.00  0.00    +0.000 A 
ATOM     10  C   UNL     1       7.097   4.716  16.559  0.00  0.00    +0.000 A 
ATOM     11  C   UNL     1       7.716   4.625  17.804  0.00  0.00    +0.000 A 
ATOM     12  C   UNL     1       7.115   5.201  18.916  0.00  0.00    +0.000 A 
ATOM     13  C   UNL     1       5.886   5.846  18.785  0.00  0.00    +0.000 A 
ATOM     14  C   UNL     1       5.244   5.954  17.534  0.00  0.00    +0.000 A 
ENDBRANCH   7  14
ENDBRANCH   1   7
BRANCH   4  15
ATOM     15  C   UNL     1       0.931   3.467  19.943  0.00  0.00    +0.000 C 
BRANCH  15  16
ATOM     16  C   UNL     1       1.783   2.498  20.763  0.00  0.00    +0.000 C 
BRANCH  16  17
ATOM     17  C   UNL     1       3.039   2.081  20.029  0.00  0.00    +0.000 C 
ATOM     18  O   UNL     1       4.183   2.335  20.397  0.00  0.00    +0.000 OA
ATOM     19  N   UNL     1       2.783   1.383  18.870  0.00  0.00    +0.000 N 
ATOM     20  H   UNL     1       1.897   0.925  18.684  0.00  0.00    +0.000 HD
BRANCH  19  21
ATOM     21  O   UNL     1       3.915   0.867  18.197  0.00  0.00    +0.000 OA
ATOM     22  H   UNL     1       4.502   0.603  18.941  0.00  0.00    +0.000 HD
ENDBRANCH  19  21
ENDBRANCH  16  17
ENDBRANCH  15  16
ENDBRANCH   4  15
TORSDOF 6
ENDMDL
MODEL 3
REMARK VINA RESULT:      -7.6      2.354      2.833
REMARK  Name = 
REMARK  7 active torsions:
REMARK  status: ('A' for Active; 'I' for Inactive)
REMARK    1  A    between atoms: C_1  and  C_2
REMARK    2  A    between atoms: C_7  and  C_8
REMARK    3  A    between atoms: C_8  and  N_9
REMARK    4  A    between atoms: C_12  and  C_13
REMARK    5  A    between atoms: C_13  and  C_14
REMARK    6  A    between atoms: C_14  and  C_15
REMARK    7  A    between atoms: N_17  and  O_18
REMARK                            x       y       z     vdW  Elec       q    Type
REMARK                         _______ _______ _______ _____ _____    ______ ____
ROOT
ATOM      1  N   UNL     1       3.099   6.765  18.932  0.00  0.00    +0.000 N 
ATOM      2  C   UNL     1       2.828   7.670  17.853  0.00  0.00    +0.000 C 
ATOM      3  C   UNL     1       4.010   7.433  16.979  0.00  0.00    +0.000 C 
ATOM      4  C   UNL     1       4.893   6.572  17.505  0.00  0.00    +0.000 C 
ATOM      5  C   UNL     1       4.321   6.138  18.800  0.00  0.00    +0.000 C 
ATOM      6  O   UNL     1       4.828   5.318  19.544  0.00  0.00    +0.000 OA
ENDROOT
BRANCH   1   7
ATOM      7  C   UNL     1       2.089   6.380  19.901  0.00  0.00    +0.000 C 
BRANCH   7  14
ATOM      8  C   UNL     1       1.323   4.482  17.627  0.00  0.00    +0.000 C 
ATOM      9  C   UNL     1       1.566   4.009  19.034  0.00  0.00    +0.000 A 
ATOM     10  C   UNL     1       1.440   2.633  19.306  0.00  0.00    +0.000 A 
ATOM     11  C   UNL     1       1.709   2.121  20.574  0.00  0.00    +0.000 A 
ATOM     12  C   UNL     1       2.095   2.979  21.597  0.00  0.00    +0.000 A 
ATOM     13  C   UNL     1       2.186   4.349  21.355  0.00  0.00    +0.000 A 
ATOM     14  C   UNL     1       1.923   4.888  20.080  0.00  0.00    +0.000 A 
ENDBRANCH   7  14
ENDBRANCH   1   7
BRANCH   4  15
ATOM     15  C   UNL     1       6.180   6.070  16.941  0.00  0.00    +0.000 C 
BRANCH  15  16
ATOM     16  C   UNL     1       7.412   6.542  17.715  0.00  0.00    +0.000 C 
BRANCH  16  17
ATOM     17  C   UNL     1       7.893   5.507  18.709  0.00  0.00    +0.000 C 
ATOM     18  O   UNL     1       8.223   4.359  18.421  0.00  0.00    +0.000 OA
ATOM     19  N   UNL     1       7.914   5.970  20.005  0.00  0.00    +0.000 N 
ATOM     20  H   UNL     1       7.919   6.957  20.241  0.00  0.00    +0.000 HD
BRANCH  19  21
ATOM     21  O   UNL     1       8.461   5.088  20.967  0.00  0.00    +0.000 OA
ATOM     22  H   UNL     1       7.778   4.383  21.019  0.00  0.00    +0.000 HD
ENDBRANCH  19  21
ENDBRANCH  16  17
ENDBRANCH  15  16
ENDBRANCH   4  15
TORSDOF 6
ENDMDL
MODEL 4
REMARK VINA RESULT:      -7.6      1.852      2.531
REMARK  Name = 
REMARK  7 active torsions:
REMARK  status: ('A' for Active; 'I' for Inactive)
REMARK    1  A    between atoms: C_1  and  C_2
REMARK    2  A    between atoms: C_7  and  C_8
REMARK    3  A    between atoms: C_8  and  N_9
REMARK    4  A    between atoms: C_12  and  C_13
REMARK    5  A    between atoms: C_13  and  C_14
REMARK    6  A    between atoms: C_14  and  C_15
REMARK    7  A    between atoms: N_17  and  O_18
REMARK                            x       y       z     vdW  Elec       q    Type
REMARK                         _______ _______ _______ _____ _____    ______ ____
ROOT
ATOM      1  N   UNL     1       5.399   5.866  17.858  0.00  0.00    +0.000 N 
ATOM      2  C   UNL     1       4.602   6.756  17.065  0.00  0.00    +0.000 C 
ATOM      3  C   UNL     1       5.036   6.378  15.691  0.00  0.00    +0.000 C 
ATOM      4  C   UNL     1       6.008   5.456  15.679  0.00  0.00    +0.000 C 
ATOM      5  C   UNL     1       6.276   5.121  17.096  0.00  0.00    +0.000 C 
ATOM      6  O   UNL     1       7.073   4.282  17.474  0.00  0.00    +0.000 OA
ENDROOT
BRANCH   1   7
ATOM      7  C   UNL     1       5.124   5.611  19.261  0.00  0.00    +0.000 C 
BRANCH   7  14
ATOM      8  C   UNL     1       2.409   6.868  19.899  0.00  0.00    +0.000 C 
ATOM      9  C   UNL     1       2.618   5.380  19.820  0.00  0.00    +0.000 A 
ATOM     10  C   UNL     1       1.512   4.539  20.044  0.00  0.00    +0.000 A 
ATOM     11  C   UNL     1       1.623   3.155  19.927  0.00  0.00    +0.000 A 
ATOM     12  C   UNL     1       2.847   2.586  19.600  0.00  0.00    +0.000 A 
ATOM     13  C   UNL     1       3.963   3.402  19.413  0.00  0.00    +0.000 A 
ATOM     14  C   UNL     1       3.872   4.805  19.522  0.00  0.00    +0.000 A 
ENDBRANCH   7  14
ENDBRANCH   1   7
BRANCH   4  15
ATOM     15  C   UNL     1       6.692   4.816  14.517  0.00  0.00    +0.000 C 
BRANCH  15  16
ATOM     16  C   UNL     1       5.743   4.048  13.596  0.00  0.00    +0.000 C 
BRANCH  16  17
ATOM     17  C   UNL     1       6.455   3.483  12.385  0.00  0.00    +0.000 C 
ATOM     18  O   UNL     1       7.264   4.100  11.697  0.00  0.00    +0.000 OA
ATOM     19  N   UNL     1       6.096   2.184  12.103  0.00  0.00    +0.000 N 
ATOM     20  H   UNL     1       5.662   1.569  12.784  0.00  0.00    +0.000 HD
BRANCH  19  21
ATOM     21  O   UNL     1       6.808   1.562  11.051  0.00  0.00    +0.000 OA
ATOM     22  H   UNL     1       7.335   2.305  10.683  0.00  0.00    +0.000 HD
ENDBRANCH  19  21
ENDBRANCH  16  17
ENDBRANCH  15  16
ENDBRANCH   4  15
TORSDOF 6
ENDMDL
MODEL 5
REMARK VINA RESULT:      -7.6      0.779      1.072
REMARK  Name = 
REMARK  7 active torsions:
REMARK  status: ('A' for Active; 'I' for Inactive)
REMARK    1  A    between atoms: C_1  and  C_2
REMARK    2  A    between atoms: C_7  and  C_8
REMARK    3  A    between atoms: C_8  and  N_9
REMARK    4  A    between atoms: C_12  and  C_13
REMARK    5  A    between atoms: C_13  and  C_14
REMARK    6  A    between atoms: C_14  and  C_15
REMARK    7  A    between atoms: N_17  and  O_18
REMARK                            x       y       z     vdW  Elec       q    Type
REMARK                         _______ _______ _______ _____ _____    ______ ____
ROOT
ATOM      1  N   UNL     1       3.454   6.638  18.814  0.00  0.00    +0.000 N 
ATOM      2  C   UNL     1       3.288   7.381  17.598  0.00  0.00    +0.000 C 
ATOM      3  C   UNL     1       4.535   7.015  16.869  0.00  0.00    +0.000 C 
ATOM      4  C   UNL     1       5.356   6.234  17.586  0.00  0.00    +0.000 C 
ATOM      5  C   UNL     1       4.672   5.993  18.876  0.00  0.00    +0.000 C 
ATOM      6  O   UNL     1       5.101   5.285  19.769  0.00  0.00    +0.000 OA
ENDROOT
BRANCH   1   7
ATOM      7  C   UNL     1       2.360   6.401  19.739  0.00  0.00    +0.000 C 
BRANCH   7  14
ATOM      8  C   UNL     1       1.442   4.486  17.537  0.00  0.00    +0.000 C 
ATOM      9  C   UNL     1       1.616   4.057  18.969  0.00  0.00    +0.000 A 
ATOM     10  C   UNL     1       1.349   2.714  19.299  0.00  0.00    +0.000 A 
ATOM     11  C   UNL     1       1.547   2.236  20.592  0.00  0.00    +0.000 A 
ATOM     12  C   UNL     1       2.001   3.098  21.583  0.00  0.00    +0.000 A 
ATOM     13  C   UNL     1       2.233   4.440  21.284  0.00  0.00    +0.000 A 
ATOM     14  C   UNL     1       2.043   4.943  19.981  0.00  0.00    +0.000 A 
ENDBRANCH   7  14
ENDBRANCH   1   7
BRANCH   4  15
ATOM     15  C   UNL     1       6.676   5.650  17.209  0.00  0.00    +0.000 C 
BRANCH  15  16
ATOM     16  C   UNL     1       6.566   4.311  16.478  0.00  0.00    +0.000 C 
BRANCH  16  17
ATOM     17  C   UNL     1       6.853   4.444  14.998  0.00  0.00    +0.000 C 
ATOM     18  O   UNL     1       7.529   5.335  14.491  0.00  0.00    +0.000 OA
ATOM     19  N   UNL     1       6.261   3.457  14.241  0.00  0.00    +0.000 N 
ATOM     20  H   UNL     1       5.942   2.576  14.631  0.00  0.00    +0.000 HD
BRANCH  19  21
ATOM     21  O   UNL     1       6.582   3.459  12.863  0.00  0.00    +0.000 OA
ATOM     22  H   UNL     1       6.320   2.554  12.584  0.00  0.00    +0.000 HD
ENDBRANCH  19  21
ENDBRANCH  16  17
ENDBRANCH  15  16
ENDBRANCH   4  15
TORSDOF 6
ENDMDL
MODEL 6
REMARK VINA RESULT:      -7.5      2.032      3.864
REMARK  Name = 
REMARK  7 active torsions:
REMARK  status: ('A' for Active; 'I' for Inactive)
REMARK    1  A    between atoms: C_1  and  C_2
REMARK    2  A    between atoms: C_7  and  C_8
REMARK    3  A    between atoms: C_8  and  N_9
REMARK    4  A    between atoms: C_12  and  C_13
REMARK    5  A    between atoms: C_13  and  C_14
REMARK    6  A    between atoms: C_14  and  C_15
REMARK    7  A    between atoms: N_17  and  O_18
REMARK                            x       y       z     vdW  Elec       q    Type
REMARK                         _______ _______ _______ _____ _____    ______ ____
ROOT
ATOM      1  N   UNL     1       2.992   5.489  18.483  0.00  0.00    +0.000 N 
ATOM      2  C   UNL     1       2.104   4.464  18.018  0.00  0.00    +0.000 C 
ATOM      3  C   UNL     1       3.007   3.689  17.123  0.00  0.00    +0.000 C 
ATOM      4  C   UNL     1       4.230   4.227  17.012  0.00  0.00    +0.000 C 
ATOM      5  C   UNL     1       4.233   5.424  17.884  0.00  0.00    +0.000 C 
ATOM      6  O   UNL     1       5.196   6.146  18.071  0.00  0.00    +0.000 OA
ENDROOT
BRANCH   1   7
ATOM      7  C   UNL     1       2.687   6.325  19.630  0.00  0.00    +0.000 C 
BRANCH   7  14
ATOM      8  C   UNL     1       1.056   8.014  21.592  0.00  0.00    +0.000 C 
ATOM      9  C   UNL     1       1.360   8.463  20.189  0.00  0.00    +0.000 A 
ATOM     10  C   UNL     1       0.874   9.717  19.771  0.00  0.00    +0.000 A 
ATOM     11  C   UNL     1       1.170  10.220  18.505  0.00  0.00    +0.000 A 
ATOM     12  C   UNL     1       1.943   9.469  17.628  0.00  0.00    +0.000 A 
ATOM     13  C   UNL     1       2.398   8.207  18.011  0.00  0.00    +0.000 A 
ATOM     14  C   UNL     1       2.115   7.682  19.288  0.00  0.00    +0.000 A 
ENDBRANCH   7  14
ENDBRANCH   1   7
BRANCH   4  15
ATOM     15  C   UNL     1       5.409   3.749  16.232  0.00  0.00    +0.000 C 
BRANCH  15  16
ATOM     16  C   UNL     1       5.592   4.471  14.897  0.00  0.00    +0.000 C 
BRANCH  16  17
ATOM     17  C   UNL     1       6.918   5.197  14.817  0.00  0.00    +0.000 C 
ATOM     18  O   UNL     1       7.513   5.678  15.777  0.00  0.00    +0.000 OA
ATOM     19  N   UNL     1       7.409   5.288  13.533  0.00  0.00    +0.000 N 
ATOM     20  H   UNL     1       7.102   4.683  12.779  0.00  0.00    +0.000 HD
BRANCH  19  21
ATOM     21  O   UNL     1       8.699   5.855  13.404  0.00  0.00    +0.000 OA
ATOM     22  H   UNL     1       8.749   6.050  12.442  0.00  0.00    +0.000 HD
ENDBRANCH  19  21
ENDBRANCH  16  17
ENDBRANCH  15  16
ENDBRANCH   4  15
TORSDOF 6
ENDMDL
MODEL 7
REMARK VINA RESULT:      -7.5      3.596      4.264
REMARK  Name = 
REMARK  7 active torsions:
REMARK  status: ('A' for Active; 'I' for Inactive)
REMARK    1  A    between atoms: C_1  and  C_2
REMARK    2  A    between atoms: C_7  and  C_8
REMARK    3  A    between atoms: C_8  and  N_9
REMARK    4  A    between atoms: C_12  and  C_13
REMARK    5  A    between atoms: C_13  and  C_14
REMARK    6  A    between atoms: C_14  and  C_15
REMARK    7  A    between atoms: N_17  and  O_18
REMARK                            x       y       z     vdW  Elec       q    Type
REMARK                         _______ _______ _______ _____ _____    ______ ____
ROOT
ATOM      1  N   UNL     1       5.540   5.127  18.545  0.00  0.00    +0.000 N 
ATOM      2  C   UNL     1       5.051   5.762  17.357  0.00  0.00    +0.000 C 
ATOM      3  C   UNL     1       6.111   6.781  17.122  0.00  0.00    +0.000 C 
ATOM      4  C   UNL     1       7.048   6.799  18.079  0.00  0.00    +0.000 C 
ATOM      5  C   UNL     1       6.679   5.732  19.037  0.00  0.00    +0.000 C 
ATOM      6  O   UNL     1       7.328   5.424  20.019  0.00  0.00    +0.000 OA
ENDROOT
BRANCH   1   7
ATOM      7  C   UNL     1       5.032   3.850  19.015  0.00  0.00    +0.000 C 
BRANCH   7  14
ATOM      8  C   UNL     1       3.062   1.717  18.051  0.00  0.00    +0.000 C 
ATOM      9  C   UNL     1       2.650   2.868  18.928  0.00  0.00    +0.000 A 
ATOM     10  C   UNL     1       1.301   2.957  19.322  0.00  0.00    +0.000 A 
ATOM     11  C   UNL     1       0.865   3.964  20.181  0.00  0.00    +0.000 A 
ATOM     12  C   UNL     1       1.769   4.910  20.649  0.00  0.00    +0.000 A 
ATOM     13  C   UNL     1       3.100   4.861  20.238  0.00  0.00    +0.000 A 
ATOM     14  C   UNL     1       3.564   3.849  19.373  0.00  0.00    +0.000 A 
ENDBRANCH   7  14
ENDBRANCH   1   7
BRANCH   4  15
ATOM     15  C   UNL     1       8.266   7.654  18.198  0.00  0.00    +0.000 C 
BRANCH  15  16
ATOM     16  C   UNL     1       8.000   9.136  17.932  0.00  0.00    +0.000 C 
BRANCH  16  17
ATOM     17  C   UNL     1       8.994  10.031  18.641  0.00  0.00    +0.000 C 
ATOM     18  O   UNL     1       9.159  10.071  19.857  0.00  0.00    +0.000 OA
ATOM     19  N   UNL     1       9.711  10.832  17.781  0.00  0.00    +0.000 N 
ATOM     20  H   UNL     1       9.804  10.636  16.789  0.00  0.00    +0.000 HD
BRANCH  19  21
ATOM     21  O   UNL     1      10.735  11.610  18.370  0.00  0.00    +0.000 OA
ATOM     22  H   UNL     1      10.335  11.871  19.229  0.00  0.00    +0.000 HD
ENDBRANCH  19  21
ENDBRANCH  16  17
ENDBRANCH  15  16
ENDBRANCH   4  15
TORSDOF 6
ENDMDL
MODEL 8
REMARK VINA RESULT:      -7.5      0.681      1.691
REMARK  Name = 
REMARK  7 active torsions:
REMARK  status: ('A' for Active; 'I' for Inactive)
REMARK    1  A    between atoms: C_1  and  C_2
REMARK    2  A    between atoms: C_7  and  C_8
REMARK    3  A    between atoms: C_8  and  N_9
REMARK    4  A    between atoms: C_12  and  C_13
REMARK    5  A    between atoms: C_13  and  C_14
REMARK    6  A    between atoms: C_14  and  C_15
REMARK    7  A    between atoms: N_17  and  O_18
REMARK                            x       y       z     vdW  Elec       q    Type
REMARK                         _______ _______ _______ _____ _____    ______ ____
ROOT
ATOM      1  N   UNL     1       3.941   6.183  18.804  0.00  0.00    +0.000 N 
ATOM      2  C   UNL     1       3.619   7.124  17.771  0.00  0.00    +0.000 C 
ATOM      3  C   UNL     1       4.751   6.909  16.827  0.00  0.00    +0.000 C 
ATOM      4  C   UNL     1       5.653   6.026  17.277  0.00  0.00    +0.000 C 
ATOM      5  C   UNL     1       5.149   5.554  18.587  0.00  0.00    +0.000 C 
ATOM      6  O   UNL     1       5.689   4.706  19.275  0.00  0.00    +0.000 OA
ENDROOT
BRANCH   1   7
ATOM      7  C   UNL     1       2.981   5.773  19.813  0.00  0.00    +0.000 C 
BRANCH   7  14
ATOM      8  C   UNL     1       2.302   3.634  21.893  0.00  0.00    +0.000 C 
ATOM      9  C   UNL     1       1.915   3.512  20.444  0.00  0.00    +0.000 A 
ATOM     10  C   UNL     1       1.205   2.366  20.038  0.00  0.00    +0.000 A 
ATOM     11  C   UNL     1       0.765   2.218  18.724  0.00  0.00    +0.000 A 
ATOM     12  C   UNL     1       1.040   3.208  17.789  0.00  0.00    +0.000 A 
ATOM     13  C   UNL     1       1.776   4.332  18.164  0.00  0.00    +0.000 A 
ATOM     14  C   UNL     1       2.228   4.503  19.488  0.00  0.00    +0.000 A 
ENDBRANCH   7  14
ENDBRANCH   1   7
BRANCH   4  15
ATOM     15  C   UNL     1       6.905   5.535  16.628  0.00  0.00    +0.000 C 
BRANCH  15  16
ATOM     16  C   UNL     1       6.699   4.284  15.774  0.00  0.00    +0.000 C 
BRANCH  16  17
ATOM     17  C   UNL     1       6.961   4.546  14.306  0.00  0.00    +0.000 C 
ATOM     18  O   UNL     1       6.382   3.985  13.380  0.00  0.00    +0.000 OA
ATOM     19  N   UNL     1       7.944   5.485  14.090  0.00  0.00    +0.000 N 
ATOM     20  H   UNL     1       8.238   6.152  14.797  0.00  0.00    +0.000 HD
BRANCH  19  21
ATOM     21  O   UNL     1       8.158   5.857  12.742  0.00  0.00    +0.000 OA
ATOM     22  H   UNL     1       8.599   6.731  12.831  0.00  0.00    +0.000 HD
ENDBRANCH  19  21
ENDBRANCH  16  17
ENDBRANCH  15  16
ENDBRANCH   4  15
TORSDOF 6
ENDMDL
MODEL 9
REMARK VINA RESULT:      -7.5      4.579      6.583
REMARK  Name = 
REMARK  7 active torsions:
REMARK  status: ('A' for Active; 'I' for Inactive)
REMARK    1  A    between atoms: C_1  and  C_2
REMARK    2  A    between atoms: C_7  and  C_8
REMARK    3  A    between atoms: C_8  and  N_9
REMARK    4  A    between atoms: C_12  and  C_13
REMARK    5  A    between atoms: C_13  and  C_14
REMARK    6  A    between atoms: C_14  and  C_15
REMARK    7  A    between atoms: N_17  and  O_18
REMARK                            x       y       z     vdW  Elec       q    Type
REMARK                         _______ _______ _______ _____ _____    ______ ____
ROOT
ATOM      1  N   UNL     1       2.196   7.630  19.132  0.00  0.00    +0.000 N 
ATOM      2  C   UNL     1       2.392   8.113  17.797  0.00  0.00    +0.000 C 
ATOM      3  C   UNL     1       1.741   9.451  17.880  0.00  0.00    +0.000 C 
ATOM      4  C   UNL     1       1.172   9.688  19.070  0.00  0.00    +0.000 C 
ATOM      5  C   UNL     1       1.442   8.492  19.901  0.00  0.00    +0.000 C 
ATOM      6  O   UNL     1       1.112   8.366  21.066  0.00  0.00    +0.000 OA
ENDROOT
BRANCH   1   7
ATOM      7  C   UNL     1       2.923   6.491  19.665  0.00  0.00    +0.000 C 
BRANCH   7  14
ATOM      8  C   UNL     1       3.628   4.731  17.264  0.00  0.00    +0.000 C 
ATOM      9  C   UNL     1       2.600   4.336  18.289  0.00  0.00    +0.000 A 
ATOM     10  C   UNL     1       1.944   3.100  18.132  0.00  0.00    +0.000 A 
ATOM     11  C   UNL     1       1.024   2.646  19.076  0.00  0.00    +0.000 A 
ATOM     12  C   UNL     1       0.733   3.429  20.186  0.00  0.00    +0.000 A 
ATOM     13  C   UNL     1       1.344   4.674  20.337  0.00  0.00    +0.000 A 
ATOM     14  C   UNL     1       2.280   5.150  19.397  0.00  0.00    +0.000 A 
ENDBRANCH   7  14
ENDBRANCH   1   7
BRANCH   4  15
ATOM     15  C   UNL     1       0.444  10.900  19.548  0.00  0.00    +0.000 C 
BRANCH  15  16
ATOM     16  C   UNL     1      -1.076  10.735  19.559  0.00  0.00    +0.000 C 
BRANCH  16  17
ATOM     17  C   UNL     1      -1.650  10.638  18.162  0.00  0.00    +0.000 C 
ATOM     18  O   UNL     1      -2.175   9.634  17.687  0.00  0.00    +0.000 OA
ATOM     19  N   UNL     1      -1.517  11.803  17.440  0.00  0.00    +0.000 N 
ATOM     20  H   UNL     1      -1.351  12.706  17.872  0.00  0.00    +0.000 HD
BRANCH  19  21
ATOM     21  O   UNL     1      -2.133  11.814  16.166  0.00  0.00    +0.000 OA
ATOM     22  H   UNL     1      -1.429  12.194  15.594  0.00  0.00    +0.000 HD
ENDBRANCH  19  21
ENDBRANCH  16  17
ENDBRANCH  15  16
ENDBRANCH   4  15
TORSDOF 6
ENDMDL
