MODEL 1
REMARK VINA RESULT:      -7.9      0.000      0.000
REMARK  Name = 
REMARK  5 active torsions:
REMARK  status: ('A' for Active; 'I' for Inactive)
REMARK    1  A    between atoms: C_5  and  C_7
REMARK    2  A    between atoms: C_7  and  N_8
REMARK    3  A    between atoms: N_17  and  C_18
REMARK    4  A    between atoms: C_18  and  C_19
REMARK    5  A    between atoms: C_19  and  C_20
REMARK                            x       y       z     vdW  Elec       q    Type
REMARK                         _______ _______ _______ _____ _____    ______ ____
ROOT
ATOM      1  O   UNL     1       0.301   9.657  21.386  0.00  0.00    +0.000 OA
ATOM      2  C   UNL     1       0.905   9.175  20.424  0.00  0.00    +0.000 C 
ATOM      3  C   UNL     1       1.840   7.961  20.630  0.00  0.00    +0.000 C 
ATOM      4  N   UNL     1       2.215   7.238  19.416  0.00  0.00    +0.000 N 
ATOM      5  C   UNL     1       2.495   5.884  19.495  0.00  0.00    +0.000 C 
ATOM      6  O   UNL     1       2.369   5.254  20.547  0.00  0.00    +0.000 OA
ATOM      7  C   UNL     1       2.448   8.075  18.249  0.00  0.00    +0.000 C 
ATOM      8  C   UNL     1       1.222   8.935  18.008  0.00  0.00    +0.000 C 
ATOM      9  N   UNL     1       0.907   9.774  19.156  0.00  0.00    +0.000 N 
ENDROOT
BRANCH   5  10
ATOM     10  C   UNL     1       2.922   5.151  18.214  0.00  0.00    +0.000 C 
BRANCH  10  11
ATOM     11  N   UNL     1       4.381   5.256  17.959  0.00  0.00    +0.000 NA
ATOM     12  C   UNL     1       5.177   4.661  19.032  0.00  0.00    +0.000 C 
ATOM     13  C   UNL     1       6.494   5.423  19.211  0.00  0.00    +0.000 C 
ATOM     14  C   UNL     1       7.580   5.097  18.192  0.00  0.00    +0.000 C 
ATOM     15  C   UNL     1       7.181   5.319  16.737  0.00  0.00    +0.000 C 
ATOM     16  C   UNL     1       6.104   4.344  16.278  0.00  0.00    +0.000 C 
ATOM     17  C   UNL     1       4.674   4.776  16.604  0.00  0.00    +0.000 C 
ENDBRANCH  10  11
ENDBRANCH   5  10
BRANCH   9  18
ATOM     18  C   UNL     1       0.030  10.917  18.895  0.00  0.00    +0.000 C 
BRANCH  18  19
ATOM     19  C   UNL     1      -1.444  10.676  19.237  0.00  0.00    +0.000 C 
BRANCH  19  20
ATOM     20  C   UNL     1      -2.305  10.703  18.000  0.00  0.00    +0.000 A 
ATOM     21  C   UNL     1      -1.949   9.935  16.883  0.00  0.00    +0.000 A 
ATOM     22  C   UNL     1      -2.738   9.951  15.734  0.00  0.00    +0.000 A 
ATOM     23  C   UNL     1      -3.885  10.743  15.687  0.00  0.00    +0.000 A 
ATOM     24  C   UNL     1      -4.240  11.521  16.788  0.00  0.00    +0.000 A 
ATOM     25  C   UNL     1      -3.452  11.505  17.940  0.00  0.00    +0.000 A 
ENDBRANCH  19  20
ENDBRANCH  18  19
ENDBRANCH   9  18
TORSDOF 5
ENDMDL
MODEL 2
REMARK VINA RESULT:      -7.6      0.871      1.360
REMARK  Name = 
REMARK  5 active torsions:
REMARK  status: ('A' for Active; 'I' for Inactive)
REMARK    1  A    between atoms: C_5  and  C_7
REMARK    2  A    between atoms: C_7  and  N_8
REMARK    3  A    between atoms: N_17  and  C_18
REMARK    4  A    between atoms: C_18  and  C_19
REMARK    5  A    between atoms: C_19  and  C_20
REMARK                            x       y       z     vdW  Elec       q    Type
REMARK                         _______ _______ _______ _____ _____    ______ ____
ROOT
ATOM      1  O   UNL     1      -0.147   8.665  21.978  0.00  0.00    +0.000 OA
ATOM      2  C   UNL     1       0.620   8.499  21.025  0.00  0.00    +0.000 C 
ATOM      3  C   UNL     1       1.517   7.241  20.966  0.00  0.00    +0.000 C 
ATOM      4  N   UNL     1       2.104   6.943  19.661  0.00  0.00    +0.000 N 
ATOM      5  C   UNL     1       2.379   5.627  19.328  0.00  0.00    +0.000 C 
ATOM      6  O   UNL     1       2.079   4.691  20.072  0.00  0.00    +0.000 OA
ATOM      7  C   UNL     1       2.529   8.106  18.898  0.00  0.00    +0.000 C 
ATOM      8  C   UNL     1       1.356   9.058  18.758  0.00  0.00    +0.000 C 
ATOM      9  N   UNL     1       0.837   9.483  20.050  0.00  0.00    +0.000 N 
ENDROOT
BRANCH   5  10
ATOM     10  C   UNL     1       3.030   5.340  17.966  0.00  0.00    +0.000 C 
BRANCH  10  11
ATOM     11  N   UNL     1       4.474   5.683  17.943  0.00  0.00    +0.000 NA
ATOM     12  C   UNL     1       5.284   4.730  18.700  0.00  0.00    +0.000 C 
ATOM     13  C   UNL     1       6.482   5.435  19.347  0.00  0.00    +0.000 C 
ATOM     14  C   UNL     1       7.651   5.724  18.412  0.00  0.00    +0.000 C 
ATOM     15  C   UNL     1       7.301   6.564  17.189  0.00  0.00    +0.000 C 
ATOM     16  C   UNL     1       6.384   5.824  16.223  0.00  0.00    +0.000 C 
ATOM     17  C   UNL     1       4.896   5.922  16.559  0.00  0.00    +0.000 C 
ENDBRANCH  10  11
ENDBRANCH   5  10
BRANCH   9  18
ATOM     18  C   UNL     1       0.008  10.690  20.044  0.00  0.00    +0.000 C 
BRANCH  18  19
ATOM     19  C   UNL     1      -0.221  11.295  18.656  0.00  0.00    +0.000 C 
BRANCH  19  20
ATOM     20  C   UNL     1      -1.636  11.067  18.185  0.00  0.00    +0.000 A 
ATOM     21  C   UNL     1      -2.692  11.771  18.778  0.00  0.00    +0.000 A 
ATOM     22  C   UNL     1      -4.004  11.569  18.351  0.00  0.00    +0.000 A 
ATOM     23  C   UNL     1      -4.272  10.655  17.333  0.00  0.00    +0.000 A 
ATOM     24  C   UNL     1      -3.229   9.940  16.746  0.00  0.00    +0.000 A 
ATOM     25  C   UNL     1      -1.916  10.141  17.172  0.00  0.00    +0.000 A 
ENDBRANCH  19  20
ENDBRANCH  18  19
ENDBRANCH   9  18
TORSDOF 5
ENDMDL
MODEL 3
REMARK VINA RESULT:      -7.6      0.990      1.716
REMARK  Name = 
REMARK  5 active torsions:
REMARK  status: ('A' for Active; 'I' for Inactive)
REMARK    1  A    between atoms: C_5  and  C_7
REMARK    2  A    between atoms: C_7  and  N_8
REMARK    3  A    between atoms: N_17  and  C_18
REMARK    4  A    between atoms: C_18  and  C_19
REMARK    5  A    between atoms: C_19  and  C_20
REMARK                            x       y       z     vdW  Elec       q    Type
REMARK                         _______ _______ _______ _____ _____    ______ ____
ROOT
ATOM      1  O   UNL     1       0.399   9.477  21.191  0.00  0.00    +0.000 OA
ATOM      2  C   UNL     1       1.029   8.990  20.247  0.00  0.00    +0.000 C 
ATOM      3  C   UNL     1       1.883   7.720  20.463  0.00  0.00    +0.000 C 
ATOM      4  N   UNL     1       2.286   7.013  19.248  0.00  0.00    +0.000 N 
ATOM      5  C   UNL     1       2.486   5.644  19.297  0.00  0.00    +0.000 C 
ATOM      6  O   UNL     1       2.268   4.991  20.319  0.00  0.00    +0.000 OA
ATOM      7  C   UNL     1       2.629   7.870  18.124  0.00  0.00    +0.000 C 
ATOM      8  C   UNL     1       1.467   8.806  17.846  0.00  0.00    +0.000 C 
ATOM      9  N   UNL     1       1.135   9.625  19.002  0.00  0.00    +0.000 N 
ENDROOT
BRANCH   5  10
ATOM     10  C   UNL     1       2.943   4.927  18.017  0.00  0.00    +0.000 C 
BRANCH  10  11
ATOM     11  N   UNL     1       4.403   5.060  17.783  0.00  0.00    +0.000 NA
ATOM     12  C   UNL     1       5.195   4.546  18.899  0.00  0.00    +0.000 C 
ATOM     13  C   UNL     1       6.488   5.355  19.060  0.00  0.00    +0.000 C 
ATOM     14  C   UNL     1       7.601   5.007  18.078  0.00  0.00    +0.000 C 
ATOM     15  C   UNL     1       7.223   5.140  16.607  0.00  0.00    +0.000 C 
ATOM     16  C   UNL     1       6.183   4.112  16.182  0.00  0.00    +0.000 C 
ATOM     17  C   UNL     1       4.735   4.519  16.461  0.00  0.00    +0.000 C 
ENDBRANCH  10  11
ENDBRANCH   5  10
BRANCH   9  18
ATOM     18  C   UNL     1       0.337  10.824  18.732  0.00  0.00    +0.000 C 
BRANCH  18  19
ATOM     19  C   UNL     1      -1.018  10.548  18.072  0.00  0.00    +0.000 C 
BRANCH  19  20
ATOM     20  C   UNL     1      -2.128  11.294  18.768  0.00  0.00    +0.000 A 
ATOM     21  C   UNL     1      -3.421  11.287  18.228  0.00  0.00    +0.000 A 
ATOM     22  C   UNL     1      -4.456  11.972  18.863  0.00  0.00    +0.000 A 
ATOM     23  C   UNL     1      -4.205  12.679  20.039  0.00  0.00    +0.000 A 
ATOM     24  C   UNL     1      -2.919  12.703  20.577  0.00  0.00    +0.000 A 
ATOM     25  C   UNL     1      -1.883  12.016  19.943  0.00  0.00    +0.000 A 
ENDBRANCH  19  20
ENDBRANCH  18  19
ENDBRANCH   9  18
TORSDOF 5
ENDMDL
MODEL 4
REMARK VINA RESULT:      -7.5      3.778      9.485
REMARK  Name = 
REMARK  5 active torsions:
REMARK  status: ('A' for Active; 'I' for Inactive)
REMARK    1  A    between atoms: C_5  and  C_7
REMARK    2  A    between atoms: C_7  and  N_8
REMARK    3  A    between atoms: N_17  and  C_18
REMARK    4  A    between atoms: C_18  and  C_19
REMARK    5  A    between atoms: C_19  and  C_20
REMARK                            x       y       z     vdW  Elec       q    Type
REMARK                         _______ _______ _______ _____ _____    ______ ____
ROOT
ATOM      1  O   UNL     1       1.418   9.103  17.839  0.00  0.00    +0.000 OA
ATOM      2  C   UNL     1       1.230   9.305  19.042  0.00  0.00    +0.000 C 
ATOM      3  C   UNL     1       0.608  10.640  19.512  0.00  0.00    +0.000 C 
ATOM      4  N   UNL     1       0.089  10.650  20.879  0.00  0.00    +0.000 N 
ATOM      5  C   UNL     1      -0.971  11.485  21.194  0.00  0.00    +0.000 C 
ATOM      6  O   UNL     1      -1.535  12.170  20.338  0.00  0.00    +0.000 OA
ATOM      7  C   UNL     1       0.880   9.902  21.843  0.00  0.00    +0.000 C 
ATOM      8  C   UNL     1       1.053   8.481  21.341  0.00  0.00    +0.000 C 
ATOM      9  N   UNL     1       1.699   8.435  20.037  0.00  0.00    +0.000 N 
ENDROOT
BRANCH   5  10
ATOM     10  C   UNL     1      -1.478  11.506  22.644  0.00  0.00    +0.000 C 
BRANCH  10  11
ATOM     11  N   UNL     1      -2.234  12.743  22.962  0.00  0.00    +0.000 NA
ATOM     12  C   UNL     1      -3.432  12.474  23.757  0.00  0.00    +0.000 C 
ATOM     13  C   UNL     1      -4.547  13.465  23.404  0.00  0.00    +0.000 C 
ATOM     14  C   UNL     1      -4.412  14.848  24.031  0.00  0.00    +0.000 C 
ATOM     15  C   UNL     1      -3.110  15.574  23.708  0.00  0.00    +0.000 C 
ATOM     16  C   UNL     1      -1.899  14.895  24.335  0.00  0.00    +0.000 C 
ATOM     17  C   UNL     1      -1.316  13.747  23.510  0.00  0.00    +0.000 C 
ENDBRANCH  10  11
ENDBRANCH   5  10
BRANCH   9  18
ATOM     18  C   UNL     1       2.284   7.148  19.654  0.00  0.00    +0.000 C 
BRANCH  18  19
ATOM     19  C   UNL     1       1.837   5.967  20.520  0.00  0.00    +0.000 C 
BRANCH  19  20
ATOM     20  C   UNL     1       1.796   4.687  19.723  0.00  0.00    +0.000 A 
ATOM     21  C   UNL     1       1.374   3.497  20.332  0.00  0.00    +0.000 A 
ATOM     22  C   UNL     1       1.331   2.309  19.605  0.00  0.00    +0.000 A 
ATOM     23  C   UNL     1       1.718   2.297  18.265  0.00  0.00    +0.000 A 
ATOM     24  C   UNL     1       2.153   3.473  17.655  0.00  0.00    +0.000 A 
ATOM     25  C   UNL     1       2.195   4.663  18.381  0.00  0.00    +0.000 A 
ENDBRANCH  19  20
ENDBRANCH  18  19
ENDBRANCH   9  18
TORSDOF 5
ENDMDL
MODEL 5
REMARK VINA RESULT:      -7.4      3.050      8.161
REMARK  Name = 
REMARK  5 active torsions:
REMARK  status: ('A' for Active; 'I' for Inactive)
REMARK    1  A    between atoms: C_5  and  C_7
REMARK    2  A    between atoms: C_7  and  N_8
REMARK    3  A    between atoms: N_17  and  C_18
REMARK    4  A    between atoms: C_18  and  C_19
REMARK    5  A    between atoms: C_19  and  C_20
REMARK                            x       y       z     vdW  Elec       q    Type
REMARK                         _______ _______ _______ _____ _____    ______ ____
ROOT
ATOM      1  O   UNL     1       1.447   8.217  21.676  0.00  0.00    +0.000 OA
ATOM      2  C   UNL     1       1.075   8.766  20.635  0.00  0.00    +0.000 C 
ATOM      3  C   UNL     1      -0.067   9.806  20.676  0.00  0.00    +0.000 C 
ATOM      4  N   UNL     1      -0.191  10.658  19.495  0.00  0.00    +0.000 N 
ATOM      5  C   UNL     1      -0.702  11.938  19.634  0.00  0.00    +0.000 C 
ATOM      6  O   UNL     1      -0.992  12.405  20.737  0.00  0.00    +0.000 OA
ATOM      7  C   UNL     1       0.066   9.993  18.226  0.00  0.00    +0.000 C 
ATOM      8  C   UNL     1       1.434   9.340  18.281  0.00  0.00    +0.000 C 
ATOM      9  N   UNL     1       1.539   8.378  19.369  0.00  0.00    +0.000 N 
ENDROOT
BRANCH   5  10
ATOM     10  C   UNL     1      -0.856  12.804  18.374  0.00  0.00    +0.000 C 
BRANCH  10  11
ATOM     11  N   UNL     1       0.106  13.934  18.342  0.00  0.00    +0.000 NA
ATOM     12  C   UNL     1      -0.323  15.054  19.179  0.00  0.00    +0.000 C 
ATOM     13  C   UNL     1       0.125  16.386  18.568  0.00  0.00    +0.000 C 
ATOM     14  C   UNL     1       1.589  16.747  18.792  0.00  0.00    +0.000 C 
ATOM     15  C   UNL     1       2.590  15.714  18.284  0.00  0.00    +0.000 C 
ATOM     16  C   UNL     1       2.527  14.412  19.074  0.00  0.00    +0.000 C 
ATOM     17  C   UNL     1       1.459  13.428  18.594  0.00  0.00    +0.000 C 
ENDBRANCH  10  11
ENDBRANCH   5  10
BRANCH   9  18
ATOM     18  C   UNL     1       2.631   7.407  19.266  0.00  0.00    +0.000 C 
BRANCH  18  19
ATOM     19  C   UNL     1       2.432   6.343  18.182  0.00  0.00    +0.000 C 
BRANCH  19  20
ATOM     20  C   UNL     1       1.938   5.046  18.772  0.00  0.00    +0.000 A 
ATOM     21  C   UNL     1       1.717   4.944  20.152  0.00  0.00    +0.000 A 
ATOM     22  C   UNL     1       1.260   3.751  20.709  0.00  0.00    +0.000 A 
ATOM     23  C   UNL     1       1.028   2.645  19.892  0.00  0.00    +0.000 A 
ATOM     24  C   UNL     1       1.258   2.732  18.520  0.00  0.00    +0.000 A 
ATOM     25  C   UNL     1       1.714   3.926  17.961  0.00  0.00    +0.000 A 
ENDBRANCH  19  20
ENDBRANCH  18  19
ENDBRANCH   9  18
TORSDOF 5
ENDMDL
MODEL 6
REMARK VINA RESULT:      -7.3      3.822      8.505
REMARK  Name = 
REMARK  5 active torsions:
REMARK  status: ('A' for Active; 'I' for Inactive)
REMARK    1  A    between atoms: C_5  and  C_7
REMARK    2  A    between atoms: C_7  and  N_8
REMARK    3  A    between atoms: N_17  and  C_18
REMARK    4  A    between atoms: C_18  and  C_19
REMARK    5  A    between atoms: C_19  and  C_20
REMARK                            x       y       z     vdW  Elec       q    Type
REMARK                         _______ _______ _______ _____ _____    ______ ____
ROOT
ATOM      1  O   UNL     1       8.234   5.556  19.753  0.00  0.00    +0.000 OA
ATOM      2  C   UNL     1       7.316   5.829  18.975  0.00  0.00    +0.000 C 
ATOM      3  C   UNL     1       6.112   4.870  18.834  0.00  0.00    +0.000 C 
ATOM      4  N   UNL     1       4.926   5.432  18.191  0.00  0.00    +0.000 N 
ATOM      5  C   UNL     1       3.675   4.948  18.537  0.00  0.00    +0.000 C 
ATOM      6  O   UNL     1       3.527   4.105  19.423  0.00  0.00    +0.000 OA
ATOM      7  C   UNL     1       5.197   6.336  17.083  0.00  0.00    +0.000 C 
ATOM      8  C   UNL     1       6.125   7.436  17.562  0.00  0.00    +0.000 C 
ATOM      9  N   UNL     1       7.379   6.908  18.081  0.00  0.00    +0.000 N 
ENDROOT
BRANCH   5  10
ATOM     10  C   UNL     1       2.444   5.529  17.823  0.00  0.00    +0.000 C 
BRANCH  10  11
ATOM     11  N   UNL     1       1.907   6.732  18.507  0.00  0.00    +0.000 NA
ATOM     12  C   UNL     1       2.415   6.870  19.871  0.00  0.00    +0.000 C 
ATOM     13  C   UNL     1       1.356   7.508  20.778  0.00  0.00    +0.000 C 
ATOM     14  C   UNL     1       1.215   9.020  20.652  0.00  0.00    +0.000 C 
ATOM     15  C   UNL     1       0.895   9.519  19.247  0.00  0.00    +0.000 C 
ATOM     16  C   UNL     1       2.048   9.292  18.276  0.00  0.00    +0.000 C 
ATOM     17  C   UNL     1       2.078   7.902  17.639  0.00  0.00    +0.000 C 
ENDBRANCH  10  11
ENDBRANCH   5  10
BRANCH   9  18
ATOM     18  C   UNL     1       8.487   7.861  18.176  0.00  0.00    +0.000 C 
BRANCH  18  19
ATOM     19  C   UNL     1       8.075   9.329  18.033  0.00  0.00    +0.000 C 
BRANCH  19  20
ATOM     20  C   UNL     1       9.120  10.251  18.609  0.00  0.00    +0.000 A 
ATOM     21  C   UNL     1       9.147  10.504  19.987  0.00  0.00    +0.000 A 
ATOM     22  C   UNL     1      10.109  11.354  20.530  0.00  0.00    +0.000 A 
ATOM     23  C   UNL     1      11.049  11.965  19.700  0.00  0.00    +0.000 A 
ATOM     24  C   UNL     1      11.021  11.729  18.326  0.00  0.00    +0.000 A 
ATOM     25  C   UNL     1      10.059  10.878  17.780  0.00  0.00    +0.000 A 
ENDBRANCH  19  20
ENDBRANCH  18  19
ENDBRANCH   9  18
TORSDOF 5
ENDMDL
MODEL 7
REMARK VINA RESULT:      -7.3      1.182      1.830
REMARK  Name = 
REMARK  5 active torsions:
REMARK  status: ('A' for Active; 'I' for Inactive)
REMARK    1  A    between atoms: C_5  and  C_7
REMARK    2  A    between atoms: C_7  and  N_8
REMARK    3  A    between atoms: N_17  and  C_18
REMARK    4  A    between atoms: C_18  and  C_19
REMARK    5  A    between atoms: C_19  and  C_20
REMARK                            x       y       z     vdW  Elec       q    Type
REMARK                         _______ _______ _______ _____ _____    ______ ____
ROOT
ATOM      1  O   UNL     1       0.521   8.791  21.380  0.00  0.00    +0.000 OA
ATOM      2  C   UNL     1       1.177   8.383  20.418  0.00  0.00    +0.000 C 
ATOM      3  C   UNL     1       1.923   7.032  20.509  0.00  0.00    +0.000 C 
ATOM      4  N   UNL     1       2.355   6.460  19.235  0.00  0.00    +0.000 N 
ATOM      5  C   UNL     1       2.454   5.084  19.110  0.00  0.00    +0.000 C 
ATOM      6  O   UNL     1       2.121   4.323  20.021  0.00  0.00    +0.000 OA
ATOM      7  C   UNL     1       2.834   7.426  18.258  0.00  0.00    +0.000 C 
ATOM      8  C   UNL     1       1.763   8.479  18.042  0.00  0.00    +0.000 C 
ATOM      9  N   UNL     1       1.412   9.165  19.278  0.00  0.00    +0.000 N 
ENDROOT
BRANCH   5  10
ATOM     10  C   UNL     1       2.945   4.505  17.774  0.00  0.00    +0.000 C 
BRANCH  10  11
ATOM     11  N   UNL     1       4.389   4.758  17.543  0.00  0.00    +0.000 NA
ATOM     12  C   UNL     1       5.223   4.267  18.640  0.00  0.00    +0.000 C 
ATOM     13  C   UNL     1       6.450   5.166  18.827  0.00  0.00    +0.000 C 
ATOM     14  C   UNL     1       7.583   4.939  17.833  0.00  0.00    +0.000 C 
ATOM     15  C   UNL     1       7.190   5.093  16.367  0.00  0.00    +0.000 C 
ATOM     16  C   UNL     1       6.230   4.004  15.908  0.00  0.00    +0.000 C 
ATOM     17  C   UNL     1       4.757   4.290  16.202  0.00  0.00    +0.000 C 
ENDBRANCH  10  11
ENDBRANCH   5  10
BRANCH   9  18
ATOM     18  C   UNL     1       0.722  10.448  19.126  0.00  0.00    +0.000 C 
BRANCH  18  19
ATOM     19  C   UNL     1      -0.510  10.401  18.218  0.00  0.00    +0.000 C 
BRANCH  19  20
ATOM     20  C   UNL     1      -1.648  11.204  18.796  0.00  0.00    +0.000 A 
ATOM     21  C   UNL     1      -1.429  12.028  19.908  0.00  0.00    +0.000 A 
ATOM     22  C   UNL     1      -2.472  12.775  20.450  0.00  0.00    +0.000 A 
ATOM     23  C   UNL     1      -3.748  12.699  19.891  0.00  0.00    +0.000 A 
ATOM     24  C   UNL     1      -3.979  11.872  18.794  0.00  0.00    +0.000 A 
ATOM     25  C   UNL     1      -2.935  11.124  18.248  0.00  0.00    +0.000 A 
ENDBRANCH  19  20
ENDBRANCH  18  19
ENDBRANCH   9  18
TORSDOF 5
ENDMDL
MODEL 8
REMARK VINA RESULT:      -7.3      1.733      2.928
REMARK  Name = 
REMARK  5 active torsions:
REMARK  status: ('A' for Active; 'I' for Inactive)
REMARK    1  A    between atoms: C_5  and  C_7
REMARK    2  A    between atoms: C_7  and  N_8
REMARK    3  A    between atoms: N_17  and  C_18
REMARK    4  A    between atoms: C_18  and  C_19
REMARK    5  A    between atoms: C_19  and  C_20
REMARK                            x       y       z     vdW  Elec       q    Type
REMARK                         _______ _______ _______ _____ _____    ______ ____
ROOT
ATOM      1  O   UNL     1      -0.805  10.465  21.113  0.00  0.00    +0.000 OA
ATOM      2  C   UNL     1      -0.044  10.075  20.223  0.00  0.00    +0.000 C 
ATOM      3  C   UNL     1       1.082   9.070  20.556  0.00  0.00    +0.000 C 
ATOM      4  N   UNL     1       1.685   8.391  19.410  0.00  0.00    +0.000 N 
ATOM      5  C   UNL     1       2.207   7.119  19.575  0.00  0.00    +0.000 C 
ATOM      6  O   UNL     1       2.116   6.512  20.644  0.00  0.00    +0.000 OA
ATOM      7  C   UNL     1       1.852   9.218  18.225  0.00  0.00    +0.000 C 
ATOM      8  C   UNL     1       0.511   9.820  17.852  0.00  0.00    +0.000 C 
ATOM      9  N   UNL     1      -0.050  10.620  18.932  0.00  0.00    +0.000 N 
ENDROOT
BRANCH   5  10
ATOM     10  C   UNL     1       2.868   6.439  18.366  0.00  0.00    +0.000 C 
BRANCH  10  11
ATOM     11  N   UNL     1       2.841   4.957  18.464  0.00  0.00    +0.000 NA
ATOM     12  C   UNL     1       1.587   4.390  17.970  0.00  0.00    +0.000 C 
ATOM     13  C   UNL     1       1.219   3.128  18.758  0.00  0.00    +0.000 C 
ATOM     14  C   UNL     1       1.976   1.866  18.359  0.00  0.00    +0.000 C 
ATOM     15  C   UNL     1       3.494   1.972  18.453  0.00  0.00    +0.000 C 
ATOM     16  C   UNL     1       4.070   2.945  17.432  0.00  0.00    +0.000 C 
ATOM     17  C   UNL     1       4.067   4.408  17.876  0.00  0.00    +0.000 C 
ENDBRANCH  10  11
ENDBRANCH   5  10
BRANCH   9  18
ATOM     18  C   UNL     1      -1.101  11.566  18.551  0.00  0.00    +0.000 C 
BRANCH  18  19
ATOM     19  C   UNL     1      -2.171  10.984  17.622  0.00  0.00    +0.000 C 
BRANCH  19  20
ATOM     20  C   UNL     1      -3.531  11.563  17.920  0.00  0.00    +0.000 A 
ATOM     21  C   UNL     1      -3.834  12.005  19.216  0.00  0.00    +0.000 A 
ATOM     22  C   UNL     1      -5.087  12.543  19.503  0.00  0.00    +0.000 A 
ATOM     23  C   UNL     1      -6.052  12.637  18.500  0.00  0.00    +0.000 A 
ATOM     24  C   UNL     1      -5.764  12.188  17.212  0.00  0.00    +0.000 A 
ATOM     25  C   UNL     1      -4.510  11.650  16.922  0.00  0.00    +0.000 A 
ENDBRANCH  19  20
ENDBRANCH  18  19
ENDBRANCH   9  18
TORSDOF 5
ENDMDL
MODEL 9
REMARK VINA RESULT:      -7.2      2.336      8.549
REMARK  Name = 
REMARK  5 active torsions:
REMARK  status: ('A' for Active; 'I' for Inactive)
REMARK    1  A    between atoms: C_5  and  C_7
REMARK    2  A    between atoms: C_7  and  N_8
REMARK    3  A    between atoms: N_17  and  C_18
REMARK    4  A    between atoms: C_18  and  C_19
REMARK    5  A    between atoms: C_19  and  C_20
REMARK                            x       y       z     vdW  Elec       q    Type
REMARK                         _______ _______ _______ _____ _____    ______ ____
ROOT
ATOM      1  O   UNL     1       3.089   2.603  17.435  0.00  0.00    +0.000 OA
ATOM      2  C   UNL     1       3.213   3.803  17.699  0.00  0.00    +0.000 C 
ATOM      3  C   UNL     1       2.082   4.551  18.440  0.00  0.00    +0.000 C 
ATOM      4  N   UNL     1       2.453   5.837  19.029  0.00  0.00    +0.000 N 
ATOM      5  C   UNL     1       1.789   6.279  20.161  0.00  0.00    +0.000 C 
ATOM      6  O   UNL     1       0.942   5.588  20.730  0.00  0.00    +0.000 OA
ATOM      7  C   UNL     1       3.376   6.633  18.235  0.00  0.00    +0.000 C 
ATOM      8  C   UNL     1       4.608   5.801  17.932  0.00  0.00    +0.000 C 
ATOM      9  N   UNL     1       4.280   4.575  17.219  0.00  0.00    +0.000 N 
ENDROOT
BRANCH   5  10
ATOM     10  C   UNL     1       2.170   7.649  20.743  0.00  0.00    +0.000 C 
BRANCH  10  11
ATOM     11  N   UNL     1       1.094   8.657  20.572  0.00  0.00    +0.000 NA
ATOM     12  C   UNL     1       1.042   9.609  21.681  0.00  0.00    +0.000 C 
ATOM     13  C   UNL     1      -0.401  10.053  21.943  0.00  0.00    +0.000 C 
ATOM     14  C   UNL     1      -0.945  11.105  20.982  0.00  0.00    +0.000 C 
ATOM     15  C   UNL     1      -0.906  10.709  19.510  0.00  0.00    +0.000 C 
ATOM     16  C   UNL     1       0.517  10.596  18.979  0.00  0.00    +0.000 C 
ATOM     17  C   UNL     1       1.183   9.243  19.230  0.00  0.00    +0.000 C 
ENDBRANCH  10  11
ENDBRANCH   5  10
BRANCH   9  18
ATOM     18  C   UNL     1       5.390   3.921  16.522  0.00  0.00    +0.000 C 
BRANCH  18  19
ATOM     19  C   UNL     1       6.417   4.885  15.921  0.00  0.00    +0.000 C 
BRANCH  19  20
ATOM     20  C   UNL     1       6.628   4.616  14.452  0.00  0.00    +0.000 A 
ATOM     21  C   UNL     1       7.611   5.323  13.745  0.00  0.00    +0.000 A 
ATOM     22  C   UNL     1       7.815   5.082  12.388  0.00  0.00    +0.000 A 
ATOM     23  C   UNL     1       7.032   4.139  11.722  0.00  0.00    +0.000 A 
ATOM     24  C   UNL     1       6.043   3.441  12.413  0.00  0.00    +0.000 A 
ATOM     25  C   UNL     1       5.838   3.680  13.773  0.00  0.00    +0.000 A 
ENDBRANCH  19  20
ENDBRANCH  18  19
ENDBRANCH   9  18
TORSDOF 5
ENDMDL
