MODEL 1
REMARK VINA RESULT:      -9.0      0.000      0.000
REMARK  Name = 
REMARK  8 active torsions:
REMARK  status: ('A' for Active; 'I' for Inactive)
REMARK    1  A    between atoms: C_1  and  O_2
REMARK    2  A    between atoms: O_2  and  C_3
REMARK    3  A    between atoms: C_8  and  N_9
REMARK    4  A    between atoms: C_10  and  C_12
REMARK    5  A    between atoms: C_12  and  N_13
REMARK    6  A    between atoms: C_15  and  C_16
REMARK    7  A    between atoms: C_16  and  C_18
REMARK    8  A    between atoms: C_28  and  C_29
REMARK                            x       y       z     vdW  Elec       q    Type
REMARK                         _______ _______ _______ _____ _____    ______ ____
ROOT
ATOM      1  N   UNL     1       2.904   6.697  18.070  0.00  0.00    +0.000 N 
ATOM      2  C   UNL     1       3.557   5.976  17.017  0.00  0.00    +0.000 A 
ATOM      3  C   UNL     1       3.902   4.681  17.230  0.00  0.00    +0.000 A 
ATOM      4  C   UNL     1       2.581   4.057  17.515  0.00  0.00    +0.000 A 
ATOM      5  O   UNL     1       2.153   3.102  16.881  0.00  0.00    +0.000 OA
ATOM      6  C   UNL     1       1.861   4.638  18.682  0.00  0.00    +0.000 A 
ATOM      7  C   UNL     1       1.281   3.675  19.503  0.00  0.00    +0.000 A 
ATOM      8  C   UNL     1       1.597   3.701  20.848  0.00  0.00    +0.000 A 
ATOM      9  C   UNL     1       1.255   2.478  21.656  0.00  0.00    +0.000 C 
ATOM     10  C   UNL     1       2.392   4.773  21.308  0.00  0.00    +0.000 A 
ATOM     11  C   UNL     1       2.735   5.886  20.465  0.00  0.00    +0.000 A 
ATOM     12  C   UNL     1       2.403   5.873  19.110  0.00  0.00    +0.000 A 
ENDROOT
BRANCH   3  13
ATOM     13  C   UNL     1       5.110   4.604  18.153  0.00  0.00    +0.000 C 
ATOM     14  O   UNL     1       5.174   3.666  18.957  0.00  0.00    +0.000 OA
BRANCH  13  15
ATOM     15  C   UNL     1       6.244   5.588  18.217  0.00  0.00    +0.000 A 
ATOM     16  C   UNL     1       6.465   6.637  17.331  0.00  0.00    +0.000 A 
ATOM     17  C   UNL     1       7.556   7.470  17.563  0.00  0.00    +0.000 A 
ATOM     18  N   UNL     1       8.416   7.338  18.607  0.00  0.00    +0.000 NA
ATOM     19  C   UNL     1       8.179   6.338  19.461  0.00  0.00    +0.000 A 
ATOM     20  C   UNL     1       7.134   5.449  19.307  0.00  0.00    +0.000 A 
ENDBRANCH  13  15
ENDBRANCH   3  13
BRANCH   1  21
ATOM     21  C   UNL     1       2.828   8.184  17.966  0.00  0.00    +0.000 C 
BRANCH  21  23
ATOM     22  N   UNL     1       0.816   9.700  17.719  0.00  0.00    +0.000 N 
ATOM     23  C   UNL     1       1.581   8.916  18.560  0.00  0.00    +0.000 C 
ATOM     24  O   UNL     1       1.276   8.691  19.743  0.00  0.00    +0.000 OA
ATOM     25  H   UNL     1       1.217   9.957  16.826  0.00  0.00    +0.000 HD
BRANCH  22  31
ATOM     26  C   UNL     1      -0.537  11.482  18.700  0.00  0.00    +0.000 A 
ATOM     27  C   UNL     1      -1.766  12.090  19.024  0.00  0.00    +0.000 A 
ATOM     28  C   UNL     1      -2.958  11.566  18.540  0.00  0.00    +0.000 A 
ATOM     29  C   UNL     1      -2.920  10.411  17.766  0.00  0.00    +0.000 A 
ATOM     30  C   UNL     1      -1.697   9.759  17.503  0.00  0.00    +0.000 A 
ATOM     31  C   UNL     1      -0.479  10.274  17.972  0.00  0.00    +0.000 A 
BRANCH  26  33
ATOM     32  C   UNL     1       0.791  12.173  20.483  0.00  0.00    +0.000 C 
ATOM     33  O   UNL     1       0.662  12.056  19.063  0.00  0.00    +0.000 OA
ENDBRANCH  26  33
ENDBRANCH  22  31
ENDBRANCH  21  23
ENDBRANCH   1  21
TORSDOF 6
ENDMDL
MODEL 2
REMARK VINA RESULT:      -8.5      1.212      1.551
REMARK  Name = 
REMARK  8 active torsions:
REMARK  status: ('A' for Active; 'I' for Inactive)
REMARK    1  A    between atoms: C_1  and  O_2
REMARK    2  A    between atoms: O_2  and  C_3
REMARK    3  A    between atoms: C_8  and  N_9
REMARK    4  A    between atoms: C_10  and  C_12
REMARK    5  A    between atoms: C_12  and  N_13
REMARK    6  A    between atoms: C_15  and  C_16
REMARK    7  A    between atoms: C_16  and  C_18
REMARK    8  A    between atoms: C_28  and  C_29
REMARK                            x       y       z     vdW  Elec       q    Type
REMARK                         _______ _______ _______ _____ _____    ______ ____
ROOT
ATOM      1  N   UNL     1       2.904   6.717  18.047  0.00  0.00    +0.000 N 
ATOM      2  C   UNL     1       3.568   5.994  17.001  0.00  0.00    +0.000 A 
ATOM      3  C   UNL     1       3.918   4.702  17.222  0.00  0.00    +0.000 A 
ATOM      4  C   UNL     1       2.599   4.072  17.502  0.00  0.00    +0.000 A 
ATOM      5  O   UNL     1       2.180   3.112  16.870  0.00  0.00    +0.000 OA
ATOM      6  C   UNL     1       1.868   4.654  18.661  0.00  0.00    +0.000 A 
ATOM      7  C   UNL     1       1.289   3.692  19.484  0.00  0.00    +0.000 A 
ATOM      8  C   UNL     1       1.596   3.726  20.830  0.00  0.00    +0.000 A 
ATOM      9  C   UNL     1       1.255   2.505  21.642  0.00  0.00    +0.000 C 
ATOM     10  C   UNL     1       2.382   4.804  21.291  0.00  0.00    +0.000 A 
ATOM     11  C   UNL     1       2.725   5.915  20.445  0.00  0.00    +0.000 A 
ATOM     12  C   UNL     1       2.400   5.894  19.088  0.00  0.00    +0.000 A 
ENDROOT
BRANCH   3  13
ATOM     13  C   UNL     1       5.120   4.635  18.153  0.00  0.00    +0.000 C 
ATOM     14  O   UNL     1       5.182   3.705  18.966  0.00  0.00    +0.000 OA
BRANCH  13  15
ATOM     15  C   UNL     1       6.252   5.622  18.215  0.00  0.00    +0.000 A 
ATOM     16  C   UNL     1       6.472   6.668  17.325  0.00  0.00    +0.000 A 
ATOM     17  C   UNL     1       7.561   7.505  17.555  0.00  0.00    +0.000 A 
ATOM     18  N   UNL     1       8.419   7.379  18.601  0.00  0.00    +0.000 NA
ATOM     19  C   UNL     1       8.183   6.382  19.459  0.00  0.00    +0.000 A 
ATOM     20  C   UNL     1       7.141   5.490  19.307  0.00  0.00    +0.000 A 
ENDBRANCH  13  15
ENDBRANCH   3  13
BRANCH   1  21
ATOM     21  C   UNL     1       2.820   8.202  17.935  0.00  0.00    +0.000 C 
BRANCH  21  23
ATOM     22  N   UNL     1       1.301   9.565  19.433  0.00  0.00    +0.000 N 
ATOM     23  C   UNL     1       1.454   8.903  18.231  0.00  0.00    +0.000 C 
ATOM     24  O   UNL     1       0.594   8.914  17.335  0.00  0.00    +0.000 OA
ATOM     25  H   UNL     1       1.978   9.374  20.161  0.00  0.00    +0.000 HD
BRANCH  22  31
ATOM     26  C   UNL     1       0.032  10.665  21.207  0.00  0.00    +0.000 A 
ATOM     27  C   UNL     1      -1.005  11.495  21.678  0.00  0.00    +0.000 A 
ATOM     28  C   UNL     1      -1.782  12.223  20.786  0.00  0.00    +0.000 A 
ATOM     29  C   UNL     1      -1.546  12.086  19.422  0.00  0.00    +0.000 A 
ATOM     30  C   UNL     1      -0.558  11.199  18.946  0.00  0.00    +0.000 A 
ATOM     31  C   UNL     1       0.246  10.460  19.827  0.00  0.00    +0.000 A 
BRANCH  26  33
ATOM     32  C   UNL     1       0.204   9.451  23.187  0.00  0.00    +0.000 C 
ATOM     33  O   UNL     1       0.894  10.034  22.078  0.00  0.00    +0.000 OA
ENDBRANCH  26  33
ENDBRANCH  22  31
ENDBRANCH  21  23
ENDBRANCH   1  21
TORSDOF 6
ENDMDL
MODEL 3
REMARK VINA RESULT:      -8.5      0.862      1.575
REMARK  Name = 
REMARK  8 active torsions:
REMARK  status: ('A' for Active; 'I' for Inactive)
REMARK    1  A    between atoms: C_1  and  O_2
REMARK    2  A    between atoms: O_2  and  C_3
REMARK    3  A    between atoms: C_8  and  N_9
REMARK    4  A    between atoms: C_10  and  C_12
REMARK    5  A    between atoms: C_12  and  N_13
REMARK    6  A    between atoms: C_15  and  C_16
REMARK    7  A    between atoms: C_16  and  C_18
REMARK    8  A    between atoms: C_28  and  C_29
REMARK                            x       y       z     vdW  Elec       q    Type
REMARK                         _______ _______ _______ _____ _____    ______ ____
ROOT
ATOM      1  N   UNL     1       2.842   6.675  17.996  0.00  0.00    +0.000 N 
ATOM      2  C   UNL     1       3.522   5.935  16.973  0.00  0.00    +0.000 A 
ATOM      3  C   UNL     1       3.892   4.656  17.231  0.00  0.00    +0.000 A 
ATOM      4  C   UNL     1       2.582   4.012  17.522  0.00  0.00    +0.000 A 
ATOM      5  O   UNL     1       2.182   3.028  16.915  0.00  0.00    +0.000 OA
ATOM      6  C   UNL     1       1.837   4.614  18.662  0.00  0.00    +0.000 A 
ATOM      7  C   UNL     1       1.270   3.665  19.508  0.00  0.00    +0.000 A 
ATOM      8  C   UNL     1       1.570   3.740  20.854  0.00  0.00    +0.000 A 
ATOM      9  C   UNL     1       1.245   2.536  21.697  0.00  0.00    +0.000 C 
ATOM     10  C   UNL     1       2.337   4.843  21.288  0.00  0.00    +0.000 A 
ATOM     11  C   UNL     1       2.665   5.936  20.414  0.00  0.00    +0.000 A 
ATOM     12  C   UNL     1       2.347   5.873  19.057  0.00  0.00    +0.000 A 
ENDROOT
BRANCH   3  13
ATOM     13  C   UNL     1       5.091   4.634  18.168  0.00  0.00    +0.000 C 
ATOM     14  O   UNL     1       5.158   3.734  19.015  0.00  0.00    +0.000 OA
BRANCH  13  15
ATOM     15  C   UNL     1       6.214   5.632  18.198  0.00  0.00    +0.000 A 
ATOM     16  C   UNL     1       6.385   6.695  17.317  0.00  0.00    +0.000 A 
ATOM     17  C   UNL     1       7.474   7.540  17.514  0.00  0.00    +0.000 A 
ATOM     18  N   UNL     1       8.377   7.407  18.520  0.00  0.00    +0.000 NA
ATOM     19  C   UNL     1       8.189   6.394  19.371  0.00  0.00    +0.000 A 
ATOM     20  C   UNL     1       7.150   5.493  19.248  0.00  0.00    +0.000 A 
ENDBRANCH  13  15
ENDBRANCH   3  13
BRANCH   1  21
ATOM     21  C   UNL     1       2.735   8.155  17.844  0.00  0.00    +0.000 C 
BRANCH  21  23
ATOM     22  N   UNL     1       1.008   9.981  18.148  0.00  0.00    +0.000 N 
ATOM     23  C   UNL     1       1.696   8.928  18.720  0.00  0.00    +0.000 C 
ATOM     24  O   UNL     1       1.462   8.506  19.864  0.00  0.00    +0.000 OA
ATOM     25  H   UNL     1       1.367  10.357  17.279  0.00  0.00    +0.000 HD
BRANCH  22  31
ATOM     26  C   UNL     1      -1.366  10.532  17.988  0.00  0.00    +0.000 A 
ATOM     27  C   UNL     1      -2.527  11.212  18.407  0.00  0.00    +0.000 A 
ATOM     28  C   UNL     1      -2.516  11.971  19.571  0.00  0.00    +0.000 A 
ATOM     29  C   UNL     1      -1.331  12.079  20.291  0.00  0.00    +0.000 A 
ATOM     30  C   UNL     1      -0.149  11.459  19.834  0.00  0.00    +0.000 A 
ATOM     31  C   UNL     1      -0.137  10.681  18.667  0.00  0.00    +0.000 A 
BRANCH  26  33
ATOM     32  C   UNL     1      -2.607   9.785  16.165  0.00  0.00    +0.000 C 
ATOM     33  O   UNL     1      -1.390   9.675  16.909  0.00  0.00    +0.000 OA
ENDBRANCH  26  33
ENDBRANCH  22  31
ENDBRANCH  21  23
ENDBRANCH   1  21
TORSDOF 6
ENDMDL
MODEL 4
REMARK VINA RESULT:      -8.4      1.671      2.038
REMARK  Name = 
REMARK  8 active torsions:
REMARK  status: ('A' for Active; 'I' for Inactive)
REMARK    1  A    between atoms: C_1  and  O_2
REMARK    2  A    between atoms: O_2  and  C_3
REMARK    3  A    between atoms: C_8  and  N_9
REMARK    4  A    between atoms: C_10  and  C_12
REMARK    5  A    between atoms: C_12  and  N_13
REMARK    6  A    between atoms: C_15  and  C_16
REMARK    7  A    between atoms: C_16  and  C_18
REMARK    8  A    between atoms: C_28  and  C_29
REMARK                            x       y       z     vdW  Elec       q    Type
REMARK                         _______ _______ _______ _____ _____    ______ ____
ROOT
ATOM      1  N   UNL     1       2.853   6.651  18.117  0.00  0.00    +0.000 N 
ATOM      2  C   UNL     1       3.572   5.959  17.087  0.00  0.00    +0.000 A 
ATOM      3  C   UNL     1       3.959   4.678  17.311  0.00  0.00    +0.000 A 
ATOM      4  C   UNL     1       2.654   4.002  17.548  0.00  0.00    +0.000 A 
ATOM      5  O   UNL     1       2.287   3.032  16.898  0.00  0.00    +0.000 OA
ATOM      6  C   UNL     1       1.870   4.551  18.688  0.00  0.00    +0.000 A 
ATOM      7  C   UNL     1       1.300   3.565  19.488  0.00  0.00    +0.000 A 
ATOM      8  C   UNL     1       1.566   3.599  20.843  0.00  0.00    +0.000 A 
ATOM      9  C   UNL     1       1.243   2.362  21.637  0.00  0.00    +0.000 C 
ATOM     10  C   UNL     1       2.301   4.701  21.333  0.00  0.00    +0.000 A 
ATOM     11  C   UNL     1       2.631   5.828  20.504  0.00  0.00    +0.000 A 
ATOM     12  C   UNL     1       2.348   5.806  19.138  0.00  0.00    +0.000 A 
ENDROOT
BRANCH   3  13
ATOM     13  C   UNL     1       5.135   4.645  18.276  0.00  0.00    +0.000 C 
ATOM     14  O   UNL     1       5.186   3.730  19.108  0.00  0.00    +0.000 OA
BRANCH  13  15
ATOM     15  C   UNL     1       6.250   5.649  18.353  0.00  0.00    +0.000 A 
ATOM     16  C   UNL     1       7.276   5.660  19.292  0.00  0.00    +0.000 A 
ATOM     17  C   UNL     1       8.244   6.655  19.193  0.00  0.00    +0.000 A 
ATOM     18  N   UNL     1       8.266   7.613  18.229  0.00  0.00    +0.000 NA
ATOM     19  C   UNL     1       7.286   7.577  17.321  0.00  0.00    +0.000 A 
ATOM     20  C   UNL     1       6.271   6.641  17.346  0.00  0.00    +0.000 A 
ENDBRANCH  13  15
ENDBRANCH   3  13
BRANCH   1  21
ATOM     21  C   UNL     1       2.723   8.134  18.012  0.00  0.00    +0.000 C 
BRANCH  21  23
ATOM     22  N   UNL     1       1.666   9.107  20.096  0.00  0.00    +0.000 N 
ATOM     23  C   UNL     1       1.537   8.839  18.747  0.00  0.00    +0.000 C 
ATOM     24  O   UNL     1       0.565   9.213  18.070  0.00  0.00    +0.000 OA
ATOM     25  H   UNL     1       2.407   8.633  20.597  0.00  0.00    +0.000 HD
BRANCH  22  31
ATOM     26  C   UNL     1       0.827  11.325  20.679  0.00  0.00    +0.000 A 
ATOM     27  C   UNL     1       0.064  12.211  21.467  0.00  0.00    +0.000 A 
ATOM     28  C   UNL     1      -0.795  11.721  22.443  0.00  0.00    +0.000 A 
ATOM     29  C   UNL     1      -0.858  10.348  22.655  0.00  0.00    +0.000 A 
ATOM     30  C   UNL     1      -0.040   9.465  21.919  0.00  0.00    +0.000 A 
ATOM     31  C   UNL     1       0.828   9.935  20.922  0.00  0.00    +0.000 A 
BRANCH  26  33
ATOM     32  C   UNL     1       1.387  13.177  19.384  0.00  0.00    +0.000 C 
ATOM     33  O   UNL     1       1.588  11.781  19.624  0.00  0.00    +0.000 OA
ENDBRANCH  26  33
ENDBRANCH  22  31
ENDBRANCH  21  23
ENDBRANCH   1  21
TORSDOF 6
ENDMDL
MODEL 5
REMARK VINA RESULT:      -8.1      1.355      1.654
REMARK  Name = 
REMARK  8 active torsions:
REMARK  status: ('A' for Active; 'I' for Inactive)
REMARK    1  A    between atoms: C_1  and  O_2
REMARK    2  A    between atoms: O_2  and  C_3
REMARK    3  A    between atoms: C_8  and  N_9
REMARK    4  A    between atoms: C_10  and  C_12
REMARK    5  A    between atoms: C_12  and  N_13
REMARK    6  A    between atoms: C_15  and  C_16
REMARK    7  A    between atoms: C_16  and  C_18
REMARK    8  A    between atoms: C_28  and  C_29
REMARK                            x       y       z     vdW  Elec       q    Type
REMARK                         _______ _______ _______ _____ _____    ______ ____
ROOT
ATOM      1  N   UNL     1       2.525   5.887  18.416  0.00  0.00    +0.000 N 
ATOM      2  C   UNL     1       2.493   5.086  17.226  0.00  0.00    +0.000 A 
ATOM      3  C   UNL     1       2.506   3.735  17.350  0.00  0.00    +0.000 A 
ATOM      4  C   UNL     1       1.275   3.489  18.148  0.00  0.00    +0.000 A 
ATOM      5  O   UNL     1       0.384   2.740  17.772  0.00  0.00    +0.000 OA
ATOM      6  C   UNL     1       1.251   4.167  19.474  0.00  0.00    +0.000 A 
ATOM      7  C   UNL     1       0.779   3.351  20.498  0.00  0.00    +0.000 A 
ATOM      8  C   UNL     1       1.576   3.193  21.616  0.00  0.00    +0.000 A 
ATOM      9  C   UNL     1       1.233   2.063  22.549  0.00  0.00    +0.000 C 
ATOM     10  C   UNL     1       2.757   3.964  21.686  0.00  0.00    +0.000 A 
ATOM     11  C   UNL     1       3.057   4.991  20.726  0.00  0.00    +0.000 A 
ATOM     12  C   UNL     1       2.244   5.167  19.605  0.00  0.00    +0.000 A 
ENDROOT
BRANCH   3  13
ATOM     13  C   UNL     1       3.897   3.257  17.740  0.00  0.00    +0.000 C 
ATOM     14  O   UNL     1       3.992   2.309  18.530  0.00  0.00    +0.000 OA
BRANCH  13  15
ATOM     15  C   UNL     1       5.201   3.849  17.284  0.00  0.00    +0.000 A 
ATOM     16  C   UNL     1       5.672   3.877  15.976  0.00  0.00    +0.000 A 
ATOM     17  C   UNL     1       6.895   4.496  15.733  0.00  0.00    +0.000 A 
ATOM     18  N   UNL     1       7.658   5.090  16.688  0.00  0.00    +0.000 NA
ATOM     19  C   UNL     1       7.184   5.074  17.937  0.00  0.00    +0.000 A 
ATOM     20  C   UNL     1       5.990   4.470  18.280  0.00  0.00    +0.000 A 
ENDBRANCH  13  15
ENDBRANCH   3  13
BRANCH   1  21
ATOM     21  C   UNL     1       2.844   7.338  18.280  0.00  0.00    +0.000 C 
BRANCH  21  23
ATOM     22  N   UNL     1       1.255   9.289  17.997  0.00  0.00    +0.000 N 
ATOM     23  C   UNL     1       1.840   8.386  18.863  0.00  0.00    +0.000 C 
ATOM     24  O   UNL     1       1.538   8.305  20.065  0.00  0.00    +0.000 OA
ATOM     25  H   UNL     1       1.670   9.391  17.079  0.00  0.00    +0.000 HD
BRANCH  22  31
ATOM     26  C   UNL     1       0.436  11.448  18.794  0.00  0.00    +0.000 A 
ATOM     27  C   UNL     1      -0.589  12.362  19.108  0.00  0.00    +0.000 A 
ATOM     28  C   UNL     1      -1.910  12.073  18.789  0.00  0.00    +0.000 A 
ATOM     29  C   UNL     1      -2.206  10.852  18.193  0.00  0.00    +0.000 A 
ATOM     30  C   UNL     1      -1.190   9.904  17.946  0.00  0.00    +0.000 A 
ATOM     31  C   UNL     1       0.152  10.176  18.250  0.00  0.00    +0.000 A 
BRANCH  26  33
ATOM     32  C   UNL     1       2.124  12.979  18.316  0.00  0.00    +0.000 C 
ATOM     33  O   UNL     1       1.763  11.768  18.987  0.00  0.00    +0.000 OA
ENDBRANCH  26  33
ENDBRANCH  22  31
ENDBRANCH  21  23
ENDBRANCH   1  21
TORSDOF 6
ENDMDL
MODEL 6
REMARK VINA RESULT:      -8.1      1.703      2.207
REMARK  Name = 
REMARK  8 active torsions:
REMARK  status: ('A' for Active; 'I' for Inactive)
REMARK    1  A    between atoms: C_1  and  O_2
REMARK    2  A    between atoms: O_2  and  C_3
REMARK    3  A    between atoms: C_8  and  N_9
REMARK    4  A    between atoms: C_10  and  C_12
REMARK    5  A    between atoms: C_12  and  N_13
REMARK    6  A    between atoms: C_15  and  C_16
REMARK    7  A    between atoms: C_16  and  C_18
REMARK    8  A    between atoms: C_28  and  C_29
REMARK                            x       y       z     vdW  Elec       q    Type
REMARK                         _______ _______ _______ _____ _____    ______ ____
ROOT
ATOM      1  N   UNL     1       2.623   6.072  18.625  0.00  0.00    +0.000 N 
ATOM      2  C   UNL     1       2.582   5.368  17.376  0.00  0.00    +0.000 A 
ATOM      3  C   UNL     1       2.543   4.012  17.393  0.00  0.00    +0.000 A 
ATOM      4  C   UNL     1       1.289   3.752  18.151  0.00  0.00    +0.000 A 
ATOM      5  O   UNL     1       0.378   3.069  17.704  0.00  0.00    +0.000 OA
ATOM      6  C   UNL     1       1.267   4.325  19.526  0.00  0.00    +0.000 A 
ATOM      7  C   UNL     1       0.746   3.451  20.476  0.00  0.00    +0.000 A 
ATOM      8  C   UNL     1       1.516   3.175  21.589  0.00  0.00    +0.000 A 
ATOM      9  C   UNL     1       1.114   1.990  22.425  0.00  0.00    +0.000 C 
ATOM     10  C   UNL     1       2.724   3.892  21.738  0.00  0.00    +0.000 A 
ATOM     11  C   UNL     1       3.079   4.978  20.865  0.00  0.00    +0.000 A 
ATOM     12  C   UNL     1       2.294   5.272  19.750  0.00  0.00    +0.000 A 
ENDROOT
BRANCH   3  13
ATOM     13  C   UNL     1       3.908   3.451  17.766  0.00  0.00    +0.000 C 
ATOM     14  O   UNL     1       3.953   2.466  18.513  0.00  0.00    +0.000 OA
BRANCH  13  15
ATOM     15  C   UNL     1       5.241   4.000  17.340  0.00  0.00    +0.000 A 
ATOM     16  C   UNL     1       6.187   4.582  18.176  0.00  0.00    +0.000 A 
ATOM     17  C   UNL     1       7.385   5.012  17.609  0.00  0.00    +0.000 A 
ATOM     18  N   UNL     1       7.699   4.888  16.293  0.00  0.00    +0.000 NA
ATOM     19  C   UNL     1       6.789   4.307  15.506  0.00  0.00    +0.000 A 
ATOM     20  C   UNL     1       5.566   3.866  15.971  0.00  0.00    +0.000 A 
ENDBRANCH  13  15
ENDBRANCH   3  13
BRANCH   1  21
ATOM     21  C   UNL     1       2.999   7.515  18.609  0.00  0.00    +0.000 C 
BRANCH  21  23
ATOM     22  N   UNL     1       1.097   8.881  19.571  0.00  0.00    +0.000 N 
ATOM     23  C   UNL     1       1.867   8.585  18.464  0.00  0.00    +0.000 C 
ATOM     24  O   UNL     1       1.766   9.191  17.384  0.00  0.00    +0.000 OA
ATOM     25  H   UNL     1       1.136   8.239  20.353  0.00  0.00    +0.000 HD
BRANCH  22  31
ATOM     26  C   UNL     1       0.119  10.598  21.008  0.00  0.00    +0.000 A 
ATOM     27  C   UNL     1      -0.786  11.645  21.273  0.00  0.00    +0.000 A 
ATOM     28  C   UNL     1      -1.583  12.159  20.258  0.00  0.00    +0.000 A 
ATOM     29  C   UNL     1      -1.501  11.596  18.989  0.00  0.00    +0.000 A 
ATOM     30  C   UNL     1      -0.650  10.499  18.739  0.00  0.00    +0.000 A 
ATOM     31  C   UNL     1       0.171   9.969  19.745  0.00  0.00    +0.000 A 
BRANCH  26  33
ATOM     32  C   UNL     1       0.344   9.484  23.040  0.00  0.00    +0.000 C 
ATOM     33  O   UNL     1       1.006  10.160  21.967  0.00  0.00    +0.000 OA
ENDBRANCH  26  33
ENDBRANCH  22  31
ENDBRANCH  21  23
ENDBRANCH   1  21
TORSDOF 6
ENDMDL
MODEL 7
REMARK VINA RESULT:      -8.1      0.877      1.058
REMARK  Name = 
REMARK  8 active torsions:
REMARK  status: ('A' for Active; 'I' for Inactive)
REMARK    1  A    between atoms: C_1  and  O_2
REMARK    2  A    between atoms: O_2  and  C_3
REMARK    3  A    between atoms: C_8  and  N_9
REMARK    4  A    between atoms: C_10  and  C_12
REMARK    5  A    between atoms: C_12  and  N_13
REMARK    6  A    between atoms: C_15  and  C_16
REMARK    7  A    between atoms: C_16  and  C_18
REMARK    8  A    between atoms: C_28  and  C_29
REMARK                            x       y       z     vdW  Elec       q    Type
REMARK                         _______ _______ _______ _____ _____    ______ ____
ROOT
ATOM      1  N   UNL     1       2.893   6.756  18.096  0.00  0.00    +0.000 N 
ATOM      2  C   UNL     1       3.558   6.052  17.038  0.00  0.00    +0.000 A 
ATOM      3  C   UNL     1       3.913   4.758  17.239  0.00  0.00    +0.000 A 
ATOM      4  C   UNL     1       2.597   4.119  17.511  0.00  0.00    +0.000 A 
ATOM      5  O   UNL     1       2.180   3.167  16.866  0.00  0.00    +0.000 OA
ATOM      6  C   UNL     1       1.866   4.681  18.681  0.00  0.00    +0.000 A 
ATOM      7  C   UNL     1       1.293   3.704  19.490  0.00  0.00    +0.000 A 
ATOM      8  C   UNL     1       1.603   3.719  20.836  0.00  0.00    +0.000 A 
ATOM      9  C   UNL     1       1.268   2.485  21.630  0.00  0.00    +0.000 C 
ATOM     10  C   UNL     1       2.386   4.794  21.311  0.00  0.00    +0.000 A 
ATOM     11  C   UNL     1       2.722   5.918  20.481  0.00  0.00    +0.000 A 
ATOM     12  C   UNL     1       2.395   5.917  19.125  0.00  0.00    +0.000 A 
ENDROOT
BRANCH   3  13
ATOM     13  C   UNL     1       5.118   4.682  18.166  0.00  0.00    +0.000 C 
ATOM     14  O   UNL     1       5.176   3.749  18.977  0.00  0.00    +0.000 OA
BRANCH  13  15
ATOM     15  C   UNL     1       6.256   5.662  18.226  0.00  0.00    +0.000 A 
ATOM     16  C   UNL     1       6.473   6.715  17.345  0.00  0.00    +0.000 A 
ATOM     17  C   UNL     1       7.570   7.543  17.572  0.00  0.00    +0.000 A 
ATOM     18  N   UNL     1       8.437   7.401  18.608  0.00  0.00    +0.000 NA
ATOM     19  C   UNL     1       8.204   6.398  19.459  0.00  0.00    +0.000 A 
ATOM     20  C   UNL     1       7.154   5.513  19.308  0.00  0.00    +0.000 A 
ENDBRANCH  13  15
ENDBRANCH   3  13
BRANCH   1  21
ATOM     21  C   UNL     1       2.804   8.243  18.006  0.00  0.00    +0.000 C 
BRANCH  21  23
ATOM     22  N   UNL     1       1.141   9.700  19.239  0.00  0.00    +0.000 N 
ATOM     23  C   UNL     1       1.400   8.920  18.129  0.00  0.00    +0.000 C 
ATOM     24  O   UNL     1       0.608   8.807  17.179  0.00  0.00    +0.000 OA
ATOM     25  H   UNL     1       1.768   9.611  20.029  0.00  0.00    +0.000 HD
BRANCH  22  31
ATOM     26  C   UNL     1       0.208  11.646  20.384  0.00  0.00    +0.000 A 
ATOM     27  C   UNL     1      -0.837  12.541  20.687  0.00  0.00    +0.000 A 
ATOM     28  C   UNL     1      -2.042  12.472  19.999  0.00  0.00    +0.000 A 
ATOM     29  C   UNL     1      -2.213  11.482  19.038  0.00  0.00    +0.000 A 
ATOM     30  C   UNL     1      -1.194  10.538  18.786  0.00  0.00    +0.000 A 
ATOM     31  C   UNL     1       0.034  10.592  19.460  0.00  0.00    +0.000 A 
BRANCH  26  33
ATOM     32  C   UNL     1       2.083  13.009  20.604  0.00  0.00    +0.000 C 
ATOM     33  O   UNL     1       1.452  11.776  20.964  0.00  0.00    +0.000 OA
ENDBRANCH  26  33
ENDBRANCH  22  31
ENDBRANCH  21  23
ENDBRANCH   1  21
TORSDOF 6
ENDMDL
MODEL 8
REMARK VINA RESULT:      -8.0      1.439      2.190
REMARK  Name = 
REMARK  8 active torsions:
REMARK  status: ('A' for Active; 'I' for Inactive)
REMARK    1  A    between atoms: C_1  and  O_2
REMARK    2  A    between atoms: O_2  and  C_3
REMARK    3  A    between atoms: C_8  and  N_9
REMARK    4  A    between atoms: C_10  and  C_12
REMARK    5  A    between atoms: C_12  and  N_13
REMARK    6  A    between atoms: C_15  and  C_16
REMARK    7  A    between atoms: C_16  and  C_18
REMARK    8  A    between atoms: C_28  and  C_29
REMARK                            x       y       z     vdW  Elec       q    Type
REMARK                         _______ _______ _______ _____ _____    ______ ____
ROOT
ATOM      1  N   UNL     1       2.402   5.895  18.541  0.00  0.00    +0.000 N 
ATOM      2  C   UNL     1       2.403   5.121  17.334  0.00  0.00    +0.000 A 
ATOM      3  C   UNL     1       2.470   3.769  17.426  0.00  0.00    +0.000 A 
ATOM      4  C   UNL     1       1.248   3.456  18.216  0.00  0.00    +0.000 A 
ATOM      5  O   UNL     1       0.388   2.681  17.820  0.00  0.00    +0.000 OA
ATOM      6  C   UNL     1       1.195   4.102  19.557  0.00  0.00    +0.000 A 
ATOM      7  C   UNL     1       0.754   3.245  20.561  0.00  0.00    +0.000 A 
ATOM      8  C   UNL     1       1.554   3.093  21.677  0.00  0.00    +0.000 A 
ATOM      9  C   UNL     1       1.254   1.929  22.583  0.00  0.00    +0.000 C 
ATOM     10  C   UNL     1       2.703   3.909  21.768  0.00  0.00    +0.000 A 
ATOM     11  C   UNL     1       2.964   4.968  20.832  0.00  0.00    +0.000 A 
ATOM     12  C   UNL     1       2.147   5.137  19.713  0.00  0.00    +0.000 A 
ENDROOT
BRANCH   3  13
ATOM     13  C   UNL     1       3.878   3.338  17.810  0.00  0.00    +0.000 C 
ATOM     14  O   UNL     1       4.008   2.400  18.607  0.00  0.00    +0.000 OA
BRANCH  13  15
ATOM     15  C   UNL     1       5.160   3.966  17.338  0.00  0.00    +0.000 A 
ATOM     16  C   UNL     1       5.644   3.951  16.035  0.00  0.00    +0.000 A 
ATOM     17  C   UNL     1       6.841   4.612  15.774  0.00  0.00    +0.000 A 
ATOM     18  N   UNL     1       7.565   5.286  16.705  0.00  0.00    +0.000 NA
ATOM     19  C   UNL     1       7.077   5.310  17.949  0.00  0.00    +0.000 A 
ATOM     20  C   UNL     1       5.908   4.670  18.310  0.00  0.00    +0.000 A 
ENDBRANCH  13  15
ENDBRANCH   3  13
BRANCH   1  21
ATOM     21  C   UNL     1       2.662   7.360  18.439  0.00  0.00    +0.000 C 
BRANCH  21  23
ATOM     22  N   UNL     1       1.275   9.464  18.682  0.00  0.00    +0.000 N 
ATOM     23  C   UNL     1       1.793   8.340  19.294  0.00  0.00    +0.000 C 
ATOM     24  O   UNL     1       1.527   8.020  20.464  0.00  0.00    +0.000 OA
ATOM     25  H   UNL     1       1.666   9.730  17.787  0.00  0.00    +0.000 HD
BRANCH  22  31
ATOM     26  C   UNL     1      -0.930  10.493  18.467  0.00  0.00    +0.000 A 
ATOM     27  C   UNL     1      -1.942  11.387  18.871  0.00  0.00    +0.000 A 
ATOM     28  C   UNL     1      -1.817  12.100  20.056  0.00  0.00    +0.000 A 
ATOM     29  C   UNL     1      -0.661  11.947  20.815  0.00  0.00    +0.000 A 
ATOM     30  C   UNL     1       0.385  11.109  20.375  0.00  0.00    +0.000 A 
ATOM     31  C   UNL     1       0.279  10.371  19.186  0.00  0.00    +0.000 A 
BRANCH  26  33
ATOM     32  C   UNL     1      -2.301   9.972  16.659  0.00  0.00    +0.000 C 
ATOM     33  O   UNL     1      -1.090   9.684  17.363  0.00  0.00    +0.000 OA
ENDBRANCH  26  33
ENDBRANCH  22  31
ENDBRANCH  21  23
ENDBRANCH   1  21
TORSDOF 6
ENDMDL
MODEL 9
REMARK VINA RESULT:      -8.0      4.962      7.820
REMARK  Name = 
REMARK  8 active torsions:
REMARK  status: ('A' for Active; 'I' for Inactive)
REMARK    1  A    between atoms: C_1  and  O_2
REMARK    2  A    between atoms: O_2  and  C_3
REMARK    3  A    between atoms: C_8  and  N_9
REMARK    4  A    between atoms: C_10  and  C_12
REMARK    5  A    between atoms: C_12  and  N_13
REMARK    6  A    between atoms: C_15  and  C_16
REMARK    7  A    between atoms: C_16  and  C_18
REMARK    8  A    between atoms: C_28  and  C_29
REMARK                            x       y       z     vdW  Elec       q    Type
REMARK                         _______ _______ _______ _____ _____    ______ ____
ROOT
ATOM      1  N   UNL     1       7.006   7.421  17.553  0.00  0.00    +0.000 N 
ATOM      2  C   UNL     1       7.289   6.631  18.717  0.00  0.00    +0.000 A 
ATOM      3  C   UNL     1       6.900   5.332  18.732  0.00  0.00    +0.000 A 
ATOM      4  C   UNL     1       7.637   4.778  17.564  0.00  0.00    +0.000 A 
ATOM      5  O   UNL     1       8.391   3.819  17.655  0.00  0.00    +0.000 OA
ATOM      6  C   UNL     1       7.323   5.436  16.265  0.00  0.00    +0.000 A 
ATOM      7  C   UNL     1       7.158   4.532  15.219  0.00  0.00    +0.000 A 
ATOM      8  C   UNL     1       5.985   4.596  14.491  0.00  0.00    +0.000 A 
ATOM      9  C   UNL     1       5.663   3.423  13.606  0.00  0.00    +0.000 C 
ATOM     10  C   UNL     1       5.093   5.650  14.788  0.00  0.00    +0.000 A 
ATOM     11  C   UNL     1       5.440   6.712  15.692  0.00  0.00    +0.000 A 
ATOM     12  C   UNL     1       6.632   6.661  16.416  0.00  0.00    +0.000 A 
ENDROOT
BRANCH   3  13
ATOM     13  C   UNL     1       5.393   5.237  18.924  0.00  0.00    +0.000 C 
ATOM     14  O   UNL     1       4.804   6.200  19.431  0.00  0.00    +0.000 OA
BRANCH  13  15
ATOM     15  C   UNL     1       4.527   4.055  18.589  0.00  0.00    +0.000 A 
ATOM     16  C   UNL     1       4.554   2.817  19.221  0.00  0.00    +0.000 A 
ATOM     17  C   UNL     1       3.655   1.844  18.794  0.00  0.00    +0.000 A 
ATOM     18  N   UNL     1       2.739   2.024  17.807  0.00  0.00    +0.000 NA
ATOM     19  C   UNL     1       2.710   3.225  17.223  0.00  0.00    +0.000 A 
ATOM     20  C   UNL     1       3.572   4.249  17.564  0.00  0.00    +0.000 A 
ENDBRANCH  13  15
ENDBRANCH   3  13
BRANCH   1  21
ATOM     21  C   UNL     1       7.128   8.904  17.662  0.00  0.00    +0.000 C 
BRANCH  21  23
ATOM     22  N   UNL     1       8.784  10.801  17.927  0.00  0.00    +0.000 N 
ATOM     23  C   UNL     1       8.436   9.509  18.270  0.00  0.00    +0.000 C 
ATOM     24  O   UNL     1       9.060   8.837  19.108  0.00  0.00    +0.000 OA
ATOM     25  H   UNL     1       8.319  11.214  17.128  0.00  0.00    +0.000 HD
BRANCH  22  31
ATOM     26  C   UNL     1       9.536  13.023  18.606  0.00  0.00    +0.000 A 
ATOM     27  C   UNL     1      10.486  13.917  19.140  0.00  0.00    +0.000 A 
ATOM     28  C   UNL     1      11.664  13.440  19.699  0.00  0.00    +0.000 A 
ATOM     29  C   UNL     1      11.908  12.070  19.687  0.00  0.00    +0.000 A 
ATOM     30  C   UNL     1      10.992  11.180  19.086  0.00  0.00    +0.000 A 
ATOM     31  C   UNL     1       9.792  11.637  18.523  0.00  0.00    +0.000 A 
BRANCH  26  33
ATOM     32  C   UNL     1       8.146  14.874  18.352  0.00  0.00    +0.000 C 
ATOM     33  O   UNL     1       8.308  13.465  18.163  0.00  0.00    +0.000 OA
ENDBRANCH  26  33
ENDBRANCH  22  31
ENDBRANCH  21  23
ENDBRANCH   1  21
TORSDOF 6
ENDMDL
