MODEL 1
REMARK VINA RESULT:      -6.6      0.000      0.000
REMARK  Name = 
REMARK  13 active torsions:
REMARK  status: ('A' for Active; 'I' for Inactive)
REMARK    1  A    between atoms: C_1  and  O_2
REMARK    2  A    between atoms: O_2  and  C_3
REMARK    3  A    between atoms: C_3  and  C_5
REMARK    4  A    between atoms: C_5  and  C_6
REMARK    5  A    between atoms: C_6  and  C_7
REMARK    6  A    between atoms: C_6  and  N_21
REMARK    7  A    between atoms: C_7  and  O_9
REMARK    8  A    between atoms: O_9  and  C_10
REMARK    9  A    between atoms: C_11  and  O_12
REMARK   10  A    between atoms: O_12  and  C_13
REMARK   11  A    between atoms: C_15  and  C_16
REMARK   12  A    between atoms: C_18  and  O_19
REMARK   13  A    between atoms: O_19  and  C_20
REMARK                            x       y       z     vdW  Elec       q    Type
REMARK                         _______ _______ _______ _____ _____    ______ ____
ROOT
ATOM      1  C   UNL     1       2.878   5.962  18.646  0.00  0.00    +0.000 C 
ATOM      2  O   UNL     1       2.132   5.676  17.726  0.00  0.00    +0.000 OA
ENDROOT
BRANCH   1   3
ATOM      3  C   UNL     1       2.550   6.846  19.890  0.00  0.00    +0.000 C 
BRANCH   3   4
ATOM      4  N   UNL     1       1.611   7.981  19.629  0.00  0.00    +0.000 NA
ATOM      5  C   UNL     1       1.288   8.759  20.831  0.00  0.00    +0.000 C 
ATOM      6  C   UNL     1      -0.171   9.223  20.818  0.00  0.00    +0.000 C 
ATOM      7  C   UNL     1      -0.432  10.459  19.972  0.00  0.00    +0.000 C 
ATOM      8  C   UNL     1      -0.045  10.306  18.508  0.00  0.00    +0.000 C 
ATOM      9  C   UNL     1       1.462  10.187  18.315  0.00  0.00    +0.000 C 
ATOM     10  C   UNL     1       2.010   8.764  18.460  0.00  0.00    +0.000 C 
ENDBRANCH   3   4
BRANCH   3  11
ATOM     11  C   UNL     1       2.067   5.941  21.038  0.00  0.00    +0.000 C 
BRANCH  11  12
ATOM     12  C   UNL     1       1.633   4.549  20.636  0.00  0.00    +0.000 C 
ATOM     13  O   UNL     1       0.567   4.216  20.145  0.00  0.00    +0.000 OA
BRANCH  12  15
ATOM     14  C   UNL     1       2.122   2.451  21.564  0.00  0.00    +0.000 C 
ATOM     15  O   UNL     1       2.616   3.668  21.002  0.00  0.00    +0.000 OA
ENDBRANCH  12  15
ENDBRANCH  11  12
ENDBRANCH   3  11
ENDBRANCH   1   3
BRANCH   1  16
ATOM     16  O   UNL     1       4.204   5.489  18.774  0.00  0.00    +0.000 OA
BRANCH  16  17
ATOM     17  C   UNL     1       4.818   5.009  17.589  0.00  0.00    +0.000 A 
ATOM     18  C   UNL     1       4.588   3.680  17.164  0.00  0.00    +0.000 A 
ATOM     19  C   UNL     1       5.070   3.292  15.900  0.00  0.00    +0.000 A 
ATOM     20  C   UNL     1       5.758   4.190  15.084  0.00  0.00    +0.000 A 
ATOM     21  C   UNL     1       6.281   3.840  13.722  0.00  0.00    +0.000 C 
ATOM     22  C   UNL     1       5.959   5.493  15.518  0.00  0.00    +0.000 A 
ATOM     23  C   UNL     1       5.477   5.921  16.745  0.00  0.00    +0.000 A 
BRANCH  18  24
ATOM     24  O   UNL     1       3.890   2.839  18.002  0.00  0.00    +0.000 OA
ATOM     25  C   UNL     1       2.646   2.331  17.505  0.00  0.00    +0.000 C 
ENDBRANCH  18  24
BRANCH  23  26
ATOM     26  O   UNL     1       5.634   7.217  17.146  0.00  0.00    +0.000 OA
ATOM     27  C   UNL     1       6.973   7.628  17.422  0.00  0.00    +0.000 C 
ENDBRANCH  23  26
ENDBRANCH  16  17
ENDBRANCH   1  16
TORSDOF 9
ENDMDL
MODEL 2
REMARK VINA RESULT:      -6.4      2.282      4.335
REMARK  Name = 
REMARK  13 active torsions:
REMARK  status: ('A' for Active; 'I' for Inactive)
REMARK    1  A    between atoms: C_1  and  O_2
REMARK    2  A    between atoms: O_2  and  C_3
REMARK    3  A    between atoms: C_3  and  C_5
REMARK    4  A    between atoms: C_5  and  C_6
REMARK    5  A    between atoms: C_6  and  C_7
REMARK    6  A    between atoms: C_6  and  N_21
REMARK    7  A    between atoms: C_7  and  O_9
REMARK    8  A    between atoms: O_9  and  C_10
REMARK    9  A    between atoms: C_11  and  O_12
REMARK   10  A    between atoms: O_12  and  C_13
REMARK   11  A    between atoms: C_15  and  C_16
REMARK   12  A    between atoms: C_18  and  O_19
REMARK   13  A    between atoms: O_19  and  C_20
REMARK                            x       y       z     vdW  Elec       q    Type
REMARK                         _______ _______ _______ _____ _____    ______ ____
ROOT
ATOM      1  C   UNL     1       1.978   8.181  18.723  0.00  0.00    +0.000 C 
ATOM      2  O   UNL     1       1.613   8.097  17.563  0.00  0.00    +0.000 OA
ENDROOT
BRANCH   1   3
ATOM      3  C   UNL     1       1.503   9.216  19.791  0.00  0.00    +0.000 C 
BRANCH   3   4
ATOM      4  N   UNL     1       0.655  10.328  19.260  0.00  0.00    +0.000 NA
ATOM      5  C   UNL     1      -0.783  10.046  19.325  0.00  0.00    +0.000 C 
ATOM      6  C   UNL     1      -1.517  10.614  18.107  0.00  0.00    +0.000 C 
ATOM      7  C   UNL     1      -1.826  12.100  18.193  0.00  0.00    +0.000 C 
ATOM      8  C   UNL     1      -0.598  12.983  18.371  0.00  0.00    +0.000 C 
ATOM      9  C   UNL     1       0.065  12.787  19.729  0.00  0.00    +0.000 C 
ATOM     10  C   UNL     1       1.066  11.630  19.786  0.00  0.00    +0.000 C 
ENDBRANCH   3   4
BRANCH   3  11
ATOM     11  C   UNL     1       0.823   8.467  20.950  0.00  0.00    +0.000 C 
BRANCH  11  12
ATOM     12  C   UNL     1       0.904   9.139  22.303  0.00  0.00    +0.000 C 
ATOM     13  O   UNL     1       1.903   9.547  22.872  0.00  0.00    +0.000 OA
BRANCH  12  15
ATOM     14  C   UNL     1      -0.882  10.450  23.072  0.00  0.00    +0.000 C 
ATOM     15  O   UNL     1      -0.349   9.142  22.858  0.00  0.00    +0.000 OA
ENDBRANCH  12  15
ENDBRANCH  11  12
ENDBRANCH   3  11
ENDBRANCH   1   3
BRANCH   1  16
ATOM     16  O   UNL     1       2.894   7.298  19.337  0.00  0.00    +0.000 OA
BRANCH  16  17
ATOM     17  C   UNL     1       3.074   6.039  18.707  0.00  0.00    +0.000 A 
ATOM     18  C   UNL     1       4.059   5.886  17.705  0.00  0.00    +0.000 A 
ATOM     19  C   UNL     1       4.328   4.591  17.226  0.00  0.00    +0.000 A 
ATOM     20  C   UNL     1       3.643   3.482  17.724  0.00  0.00    +0.000 A 
ATOM     21  C   UNL     1       3.896   2.077  17.265  0.00  0.00    +0.000 C 
ATOM     22  C   UNL     1       2.690   3.657  18.718  0.00  0.00    +0.000 A 
ATOM     23  C   UNL     1       2.415   4.913  19.234  0.00  0.00    +0.000 A 
BRANCH  18  24
ATOM     24  O   UNL     1       4.716   7.012  17.260  0.00  0.00    +0.000 OA
ATOM     25  C   UNL     1       6.144   6.926  17.175  0.00  0.00    +0.000 C 
ENDBRANCH  18  24
BRANCH  23  26
ATOM     26  O   UNL     1       1.512   5.073  20.246  0.00  0.00    +0.000 OA
ATOM     27  C   UNL     1       1.057   3.875  20.874  0.00  0.00    +0.000 C 
ENDBRANCH  23  26
ENDBRANCH  16  17
ENDBRANCH   1  16
TORSDOF 9
ENDMDL
MODEL 3
REMARK VINA RESULT:      -6.4      1.798      3.997
REMARK  Name = 
REMARK  13 active torsions:
REMARK  status: ('A' for Active; 'I' for Inactive)
REMARK    1  A    between atoms: C_1  and  O_2
REMARK    2  A    between atoms: O_2  and  C_3
REMARK    3  A    between atoms: C_3  and  C_5
REMARK    4  A    between atoms: C_5  and  C_6
REMARK    5  A    between atoms: C_6  and  C_7
REMARK    6  A    between atoms: C_6  and  N_21
REMARK    7  A    between atoms: C_7  and  O_9
REMARK    8  A    between atoms: O_9  and  C_10
REMARK    9  A    between atoms: C_11  and  O_12
REMARK   10  A    between atoms: O_12  and  C_13
REMARK   11  A    between atoms: C_15  and  C_16
REMARK   12  A    between atoms: C_18  and  O_19
REMARK   13  A    between atoms: O_19  and  C_20
REMARK                            x       y       z     vdW  Elec       q    Type
REMARK                         _______ _______ _______ _____ _____    ______ ____
ROOT
ATOM      1  C   UNL     1       3.470   6.805  18.216  0.00  0.00    +0.000 C 
ATOM      2  O   UNL     1       3.657   7.732  17.447  0.00  0.00    +0.000 OA
ENDROOT
BRANCH   1   3
ATOM      3  C   UNL     1       2.185   6.516  19.054  0.00  0.00    +0.000 C 
BRANCH   3   4
ATOM      4  N   UNL     1       2.064   5.113  19.561  0.00  0.00    +0.000 NA
ATOM      5  C   UNL     1       1.846   5.034  21.010  0.00  0.00    +0.000 C 
ATOM      6  C   UNL     1       2.579   3.835  21.618  0.00  0.00    +0.000 C 
ATOM      7  C   UNL     1       1.858   2.507  21.458  0.00  0.00    +0.000 C 
ATOM      8  C   UNL     1       1.580   2.118  20.012  0.00  0.00    +0.000 C 
ATOM      9  C   UNL     1       0.560   3.038  19.350  0.00  0.00    +0.000 C 
ATOM     10  C   UNL     1       1.155   4.312  18.743  0.00  0.00    +0.000 C 
ENDBRANCH   3   4
BRANCH   3  11
ATOM     11  C   UNL     1       2.077   7.555  20.184  0.00  0.00    +0.000 C 
BRANCH  11  12
ATOM     12  C   UNL     1       1.173   8.735  19.905  0.00  0.00    +0.000 C 
ATOM     13  O   UNL     1       1.182   9.464  18.926  0.00  0.00    +0.000 OA
BRANCH  12  15
ATOM     14  C   UNL     1       1.084   9.232  22.195  0.00  0.00    +0.000 C 
ATOM     15  O   UNL     1       0.368   8.930  20.996  0.00  0.00    +0.000 OA
ENDBRANCH  12  15
ENDBRANCH  11  12
ENDBRANCH   3  11
ENDBRANCH   1   3
BRANCH   1  16
ATOM     16  O   UNL     1       4.401   5.770  18.458  0.00  0.00    +0.000 OA
BRANCH  16  17
ATOM     17  C   UNL     1       5.212   5.383  17.360  0.00  0.00    +0.000 A 
ATOM     18  C   UNL     1       4.754   4.391  16.462  0.00  0.00    +0.000 A 
ATOM     19  C   UNL     1       5.501   4.156  15.292  0.00  0.00    +0.000 A 
ATOM     20  C   UNL     1       6.663   4.878  15.021  0.00  0.00    +0.000 A 
ATOM     21  C   UNL     1       7.491   4.683  13.786  0.00  0.00    +0.000 C 
ATOM     22  C   UNL     1       7.083   5.856  15.912  0.00  0.00    +0.000 A 
ATOM     23  C   UNL     1       6.362   6.136  17.061  0.00  0.00    +0.000 A 
BRANCH  18  24
ATOM     24  O   UNL     1       3.593   3.718  16.769  0.00  0.00    +0.000 OA
ATOM     25  C   UNL     1       3.741   2.462  17.443  0.00  0.00    +0.000 C 
ENDBRANCH  18  24
BRANCH  23  26
ATOM     26  O   UNL     1       6.752   7.132  17.910  0.00  0.00    +0.000 OA
ATOM     27  C   UNL     1       7.817   7.964  17.450  0.00  0.00    +0.000 C 
ENDBRANCH  23  26
ENDBRANCH  16  17
ENDBRANCH   1  16
TORSDOF 9
ENDMDL
MODEL 4
REMARK VINA RESULT:      -6.4      2.408      7.170
REMARK  Name = 
REMARK  13 active torsions:
REMARK  status: ('A' for Active; 'I' for Inactive)
REMARK    1  A    between atoms: C_1  and  O_2
REMARK    2  A    between atoms: O_2  and  C_3
REMARK    3  A    between atoms: C_3  and  C_5
REMARK    4  A    between atoms: C_5  and  C_6
REMARK    5  A    between atoms: C_6  and  C_7
REMARK    6  A    between atoms: C_6  and  N_21
REMARK    7  A    between atoms: C_7  and  O_9
REMARK    8  A    between atoms: O_9  and  C_10
REMARK    9  A    between atoms: C_11  and  O_12
REMARK   10  A    between atoms: O_12  and  C_13
REMARK   11  A    between atoms: C_15  and  C_16
REMARK   12  A    between atoms: C_18  and  O_19
REMARK   13  A    between atoms: O_19  and  C_20
REMARK                            x       y       z     vdW  Elec       q    Type
REMARK                         _______ _______ _______ _____ _____    ______ ____
ROOT
ATOM      1  C   UNL     1       2.250   8.520  18.010  0.00  0.00    +0.000 C 
ATOM      2  O   UNL     1       2.567   9.519  17.387  0.00  0.00    +0.000 OA
ENDROOT
BRANCH   1   3
ATOM      3  C   UNL     1       3.139   7.273  18.313  0.00  0.00    +0.000 C 
BRANCH   3   4
ATOM      4  N   UNL     1       2.390   6.057  18.759  0.00  0.00    +0.000 NA
ATOM      5  C   UNL     1       2.591   4.896  17.885  0.00  0.00    +0.000 C 
ATOM      6  C   UNL     1       1.307   4.074  17.748  0.00  0.00    +0.000 C 
ATOM      7  C   UNL     1       1.037   3.128  18.907  0.00  0.00    +0.000 C 
ATOM      8  C   UNL     1       0.933   3.816  20.262  0.00  0.00    +0.000 C 
ATOM      9  C   UNL     1       2.265   4.398  20.721  0.00  0.00    +0.000 C 
ATOM     10  C   UNL     1       2.558   5.804  20.190  0.00  0.00    +0.000 C 
ENDBRANCH   3   4
BRANCH   3  11
ATOM     11  C   UNL     1       4.040   6.990  17.098  0.00  0.00    +0.000 C 
BRANCH  11  12
ATOM     12  C   UNL     1       5.518   6.860  17.394  0.00  0.00    +0.000 C 
ATOM     13  O   UNL     1       6.443   7.400  16.810  0.00  0.00    +0.000 OA
BRANCH  12  15
ATOM     14  C   UNL     1       6.782   5.057  18.200  0.00  0.00    +0.000 C 
ATOM     15  O   UNL     1       5.678   5.941  18.397  0.00  0.00    +0.000 OA
ENDBRANCH  12  15
ENDBRANCH  11  12
ENDBRANCH   3  11
ENDBRANCH   1   3
BRANCH   1  16
ATOM     16  O   UNL     1       0.992   8.329  18.625  0.00  0.00    +0.000 OA
BRANCH  16  17
ATOM     17  C   UNL     1       0.395   9.478  19.207  0.00  0.00    +0.000 A 
ATOM     18  C   UNL     1      -0.602  10.187  18.500  0.00  0.00    +0.000 A 
ATOM     19  C   UNL     1      -1.294  11.213  19.172  0.00  0.00    +0.000 A 
ATOM     20  C   UNL     1      -1.006  11.526  20.500  0.00  0.00    +0.000 A 
ATOM     21  C   UNL     1      -1.719  12.595  21.273  0.00  0.00    +0.000 C 
ATOM     22  C   UNL     1      -0.031  10.804  21.177  0.00  0.00    +0.000 A 
ATOM     23  C   UNL     1       0.653   9.771  20.558  0.00  0.00    +0.000 A 
BRANCH  18  24
ATOM     24  O   UNL     1      -0.858   9.828  17.196  0.00  0.00    +0.000 OA
ATOM     25  C   UNL     1      -2.220   9.922  16.762  0.00  0.00    +0.000 C 
ENDBRANCH  18  24
BRANCH  23  26
ATOM     26  O   UNL     1       1.576   9.033  21.242  0.00  0.00    +0.000 OA
ATOM     27  C   UNL     1       1.536   9.143  22.665  0.00  0.00    +0.000 C 
ENDBRANCH  23  26
ENDBRANCH  16  17
ENDBRANCH   1  16
TORSDOF 9
ENDMDL
MODEL 5
REMARK VINA RESULT:      -6.3      0.969      1.604
REMARK  Name = 
REMARK  13 active torsions:
REMARK  status: ('A' for Active; 'I' for Inactive)
REMARK    1  A    between atoms: C_1  and  O_2
REMARK    2  A    between atoms: O_2  and  C_3
REMARK    3  A    between atoms: C_3  and  C_5
REMARK    4  A    between atoms: C_5  and  C_6
REMARK    5  A    between atoms: C_6  and  C_7
REMARK    6  A    between atoms: C_6  and  N_21
REMARK    7  A    between atoms: C_7  and  O_9
REMARK    8  A    between atoms: O_9  and  C_10
REMARK    9  A    between atoms: C_11  and  O_12
REMARK   10  A    between atoms: O_12  and  C_13
REMARK   11  A    between atoms: C_15  and  C_16
REMARK   12  A    between atoms: C_18  and  O_19
REMARK   13  A    between atoms: O_19  and  C_20
REMARK                            x       y       z     vdW  Elec       q    Type
REMARK                         _______ _______ _______ _____ _____    ______ ____
ROOT
ATOM      1  C   UNL     1       3.497   6.984  18.251  0.00  0.00    +0.000 C 
ATOM      2  O   UNL     1       3.320   7.612  17.221  0.00  0.00    +0.000 OA
ENDROOT
BRANCH   1   3
ATOM      3  C   UNL     1       2.592   6.979  19.523  0.00  0.00    +0.000 C 
BRANCH   3   4
ATOM      4  N   UNL     1       1.915   8.279  19.822  0.00  0.00    +0.000 NA
ATOM      5  C   UNL     1       1.161   8.819  18.685  0.00  0.00    +0.000 C 
ATOM      6  C   UNL     1       1.260  10.345  18.626  0.00  0.00    +0.000 C 
ATOM      7  C   UNL     1       0.317  11.075  19.570  0.00  0.00    +0.000 C 
ATOM      8  C   UNL     1       0.503  10.715  21.038  0.00  0.00    +0.000 C 
ATOM      9  C   UNL     1       0.094   9.278  21.339  0.00  0.00    +0.000 C 
ATOM     10  C   UNL     1       1.193   8.241  21.094  0.00  0.00    +0.000 C 
ENDBRANCH   3   4
BRANCH   3  11
ATOM     11  C   UNL     1       1.595   5.810  19.426  0.00  0.00    +0.000 C 
BRANCH  11  12
ATOM     12  C   UNL     1       1.680   4.782  20.533  0.00  0.00    +0.000 C 
ATOM     13  O   UNL     1       2.462   4.761  21.470  0.00  0.00    +0.000 OA
BRANCH  12  15
ATOM     14  C   UNL     1       1.210   2.488  20.668  0.00  0.00    +0.000 C 
ATOM     15  O   UNL     1       0.774   3.789  20.269  0.00  0.00    +0.000 OA
ENDBRANCH  12  15
ENDBRANCH  11  12
ENDBRANCH   3  11
ENDBRANCH   1   3
BRANCH   1  16
ATOM     16  O   UNL     1       4.567   6.086  18.463  0.00  0.00    +0.000 OA
BRANCH  16  17
ATOM     17  C   UNL     1       5.085   5.440  17.311  0.00  0.00    +0.000 A 
ATOM     18  C   UNL     1       4.465   4.268  16.821  0.00  0.00    +0.000 A 
ATOM     19  C   UNL     1       4.895   3.754  15.584  0.00  0.00    +0.000 A 
ATOM     20  C   UNL     1       5.906   4.379  14.855  0.00  0.00    +0.000 A 
ATOM     21  C   UNL     1       6.395   3.888  13.525  0.00  0.00    +0.000 C 
ATOM     22  C   UNL     1       6.490   5.537  15.351  0.00  0.00    +0.000 A 
ATOM     23  C   UNL     1       6.076   6.089  16.553  0.00  0.00    +0.000 A 
BRANCH  18  24
ATOM     24  O   UNL     1       3.461   3.699  17.572  0.00  0.00    +0.000 OA
ATOM     25  C   UNL     1       3.769   2.458  18.217  0.00  0.00    +0.000 C 
ENDBRANCH  18  24
BRANCH  23  26
ATOM     26  O   UNL     1       6.619   7.255  17.013  0.00  0.00    +0.000 OA
ATOM     27  C   UNL     1       7.748   7.122  17.877  0.00  0.00    +0.000 C 
ENDBRANCH  23  26
ENDBRANCH  16  17
ENDBRANCH   1  16
TORSDOF 9
ENDMDL
MODEL 6
REMARK VINA RESULT:      -6.3      1.049      1.708
REMARK  Name = 
REMARK  13 active torsions:
REMARK  status: ('A' for Active; 'I' for Inactive)
REMARK    1  A    between atoms: C_1  and  O_2
REMARK    2  A    between atoms: O_2  and  C_3
REMARK    3  A    between atoms: C_3  and  C_5
REMARK    4  A    between atoms: C_5  and  C_6
REMARK    5  A    between atoms: C_6  and  C_7
REMARK    6  A    between atoms: C_6  and  N_21
REMARK    7  A    between atoms: C_7  and  O_9
REMARK    8  A    between atoms: O_9  and  C_10
REMARK    9  A    between atoms: C_11  and  O_12
REMARK   10  A    between atoms: O_12  and  C_13
REMARK   11  A    between atoms: C_15  and  C_16
REMARK   12  A    between atoms: C_18  and  O_19
REMARK   13  A    between atoms: O_19  and  C_20
REMARK                            x       y       z     vdW  Elec       q    Type
REMARK                         _______ _______ _______ _____ _____    ______ ____
ROOT
ATOM      1  C   UNL     1       4.166   5.831  19.194  0.00  0.00    +0.000 C 
ATOM      2  O   UNL     1       5.127   5.301  19.726  0.00  0.00    +0.000 OA
ENDROOT
BRANCH   1   3
ATOM      3  C   UNL     1       2.751   6.062  19.812  0.00  0.00    +0.000 C 
BRANCH   3   4
ATOM      4  N   UNL     1       2.244   7.466  19.722  0.00  0.00    +0.000 NA
ATOM      5  C   UNL     1       1.661   7.792  18.415  0.00  0.00    +0.000 C 
ATOM      6  C   UNL     1       1.978   9.234  18.009  0.00  0.00    +0.000 C 
ATOM      7  C   UNL     1       1.081  10.282  18.647  0.00  0.00    +0.000 C 
ATOM      8  C   UNL     1       1.104  10.278  20.170  0.00  0.00    +0.000 C 
ATOM      9  C   UNL     1       0.475   9.020  20.757  0.00  0.00    +0.000 C 
ATOM     10  C   UNL     1       1.432   7.831  20.882  0.00  0.00    +0.000 C 
ENDBRANCH   3   4
BRANCH   3  11
ATOM     11  C   UNL     1       1.767   5.046  19.207  0.00  0.00    +0.000 C 
BRANCH  11  12
ATOM     12  C   UNL     1       1.386   3.888  20.103  0.00  0.00    +0.000 C 
ATOM     13  O   UNL     1       0.526   3.046  19.904  0.00  0.00    +0.000 OA
BRANCH  12  15
ATOM     14  C   UNL     1       2.461   2.713  21.825  0.00  0.00    +0.000 C 
ATOM     15  O   UNL     1       2.116   3.979  21.259  0.00  0.00    +0.000 OA
ENDBRANCH  12  15
ENDBRANCH  11  12
ENDBRANCH   3  11
ENDBRANCH   1   3
BRANCH   1  16
ATOM     16  O   UNL     1       4.180   6.388  17.896  0.00  0.00    +0.000 OA
BRANCH  16  17
ATOM     17  C   UNL     1       4.960   5.705  16.926  0.00  0.00    +0.000 A 
ATOM     18  C   UNL     1       4.492   4.491  16.374  0.00  0.00    +0.000 A 
ATOM     19  C   UNL     1       5.202   3.932  15.294  0.00  0.00    +0.000 A 
ATOM     20  C   UNL     1       6.338   4.555  14.780  0.00  0.00    +0.000 A 
ATOM     21  C   UNL     1       7.126   4.017  13.623  0.00  0.00    +0.000 C 
ATOM     22  C   UNL     1       6.770   5.754  15.331  0.00  0.00    +0.000 A 
ATOM     23  C   UNL     1       6.083   6.349  16.377  0.00  0.00    +0.000 A 
BRANCH  18  24
ATOM     24  O   UNL     1       3.356   3.926  16.909  0.00  0.00    +0.000 OA
ATOM     25  C   UNL     1       3.488   2.600  17.434  0.00  0.00    +0.000 C 
ENDBRANCH  18  24
BRANCH  23  26
ATOM     26  O   UNL     1       6.483   7.553  16.884  0.00  0.00    +0.000 OA
ATOM     27  C   UNL     1       7.623   7.523  17.742  0.00  0.00    +0.000 C 
ENDBRANCH  23  26
ENDBRANCH  16  17
ENDBRANCH   1  16
TORSDOF 9
ENDMDL
MODEL 7
REMARK VINA RESULT:      -6.3      0.664      2.752
REMARK  Name = 
REMARK  13 active torsions:
REMARK  status: ('A' for Active; 'I' for Inactive)
REMARK    1  A    between atoms: C_1  and  O_2
REMARK    2  A    between atoms: O_2  and  C_3
REMARK    3  A    between atoms: C_3  and  C_5
REMARK    4  A    between atoms: C_5  and  C_6
REMARK    5  A    between atoms: C_6  and  C_7
REMARK    6  A    between atoms: C_6  and  N_21
REMARK    7  A    between atoms: C_7  and  O_9
REMARK    8  A    between atoms: O_9  and  C_10
REMARK    9  A    between atoms: C_11  and  O_12
REMARK   10  A    between atoms: O_12  and  C_13
REMARK   11  A    between atoms: C_15  and  C_16
REMARK   12  A    between atoms: C_18  and  O_19
REMARK   13  A    between atoms: O_19  and  C_20
REMARK                            x       y       z     vdW  Elec       q    Type
REMARK                         _______ _______ _______ _____ _____    ______ ____
ROOT
ATOM      1  C   UNL     1       2.608   6.233  18.581  0.00  0.00    +0.000 C 
ATOM      2  O   UNL     1       1.846   6.120  17.636  0.00  0.00    +0.000 OA
ENDROOT
BRANCH   1   3
ATOM      3  C   UNL     1       2.314   6.905  19.959  0.00  0.00    +0.000 C 
BRANCH   3   4
ATOM      4  N   UNL     1       1.917   8.346  19.888  0.00  0.00    +0.000 NA
ATOM      5  C   UNL     1       1.462   8.760  18.555  0.00  0.00    +0.000 C 
ATOM      6  C   UNL     1       1.912  10.187  18.232  0.00  0.00    +0.000 C 
ATOM      7  C   UNL     1       1.045  11.275  18.843  0.00  0.00    +0.000 C 
ATOM      8  C   UNL     1       0.949  11.217  20.362  0.00  0.00    +0.000 C 
ATOM      9  C   UNL     1       0.188   9.989  20.849  0.00  0.00    +0.000 C 
ATOM     10  C   UNL     1       1.045   8.730  20.997  0.00  0.00    +0.000 C 
ENDBRANCH   3   4
BRANCH   3  11
ATOM     11  C   UNL     1       1.285   6.054  20.724  0.00  0.00    +0.000 C 
BRANCH  11  12
ATOM     12  C   UNL     1       1.437   4.556  20.580  0.00  0.00    +0.000 C 
ATOM     13  O   UNL     1       0.731   3.795  19.939  0.00  0.00    +0.000 OA
BRANCH  12  15
ATOM     14  C   UNL     1       2.524   2.735  21.583  0.00  0.00    +0.000 C 
ATOM     15  O   UNL     1       2.473   4.148  21.380  0.00  0.00    +0.000 OA
ENDBRANCH  12  15
ENDBRANCH  11  12
ENDBRANCH   3  11
ENDBRANCH   1   3
BRANCH   1  16
ATOM     16  O   UNL     1       3.923   5.718  18.610  0.00  0.00    +0.000 OA
BRANCH  16  17
ATOM     17  C   UNL     1       4.475   5.329  17.361  0.00  0.00    +0.000 A 
ATOM     18  C   UNL     1       5.502   6.103  16.773  0.00  0.00    +0.000 A 
ATOM     19  C   UNL     1       6.143   5.598  15.627  0.00  0.00    +0.000 A 
ATOM     20  C   UNL     1       5.780   4.368  15.081  0.00  0.00    +0.000 A 
ATOM     21  C   UNL     1       6.437   3.771  13.872  0.00  0.00    +0.000 C 
ATOM     22  C   UNL     1       4.778   3.621  15.685  0.00  0.00    +0.000 A 
ATOM     23  C   UNL     1       4.140   4.071  16.829  0.00  0.00    +0.000 A 
BRANCH  18  24
ATOM     24  O   UNL     1       5.832   7.303  17.362  0.00  0.00    +0.000 OA
ATOM     25  C   UNL     1       7.230   7.581  17.507  0.00  0.00    +0.000 C 
ENDBRANCH  18  24
BRANCH  23  26
ATOM     26  O   UNL     1       3.190   3.310  17.448  0.00  0.00    +0.000 OA
ATOM     27  C   UNL     1       3.651   2.104  18.055  0.00  0.00    +0.000 C 
ENDBRANCH  23  26
ENDBRANCH  16  17
ENDBRANCH   1  16
TORSDOF 9
ENDMDL
MODEL 8
REMARK VINA RESULT:      -6.2      2.279      7.298
REMARK  Name = 
REMARK  13 active torsions:
REMARK  status: ('A' for Active; 'I' for Inactive)
REMARK    1  A    between atoms: C_1  and  O_2
REMARK    2  A    between atoms: O_2  and  C_3
REMARK    3  A    between atoms: C_3  and  C_5
REMARK    4  A    between atoms: C_5  and  C_6
REMARK    5  A    between atoms: C_6  and  C_7
REMARK    6  A    between atoms: C_6  and  N_21
REMARK    7  A    between atoms: C_7  and  O_9
REMARK    8  A    between atoms: O_9  and  C_10
REMARK    9  A    between atoms: C_11  and  O_12
REMARK   10  A    between atoms: O_12  and  C_13
REMARK   11  A    between atoms: C_15  and  C_16
REMARK   12  A    between atoms: C_18  and  O_19
REMARK   13  A    between atoms: O_19  and  C_20
REMARK                            x       y       z     vdW  Elec       q    Type
REMARK                         _______ _______ _______ _____ _____    ______ ____
ROOT
ATOM      1  C   UNL     1       2.122   8.630  18.028  0.00  0.00    +0.000 C 
ATOM      2  O   UNL     1       2.382   9.631  17.384  0.00  0.00    +0.000 OA
ENDROOT
BRANCH   1   3
ATOM      3  C   UNL     1       3.047   7.398  18.277  0.00  0.00    +0.000 C 
BRANCH   3   4
ATOM      4  N   UNL     1       2.343   6.163  18.743  0.00  0.00    +0.000 NA
ATOM      5  C   UNL     1       2.613   4.987  17.907  0.00  0.00    +0.000 C 
ATOM      6  C   UNL     1       1.369   4.106  17.769  0.00  0.00    +0.000 C 
ATOM      7  C   UNL     1       1.116   3.182  18.949  0.00  0.00    +0.000 C 
ATOM      8  C   UNL     1       0.953   3.902  20.281  0.00  0.00    +0.000 C 
ATOM      9  C   UNL     1       2.248   4.556  20.749  0.00  0.00    +0.000 C 
ATOM     10  C   UNL     1       2.492   5.958  20.183  0.00  0.00    +0.000 C 
ENDBRANCH   3   4
BRANCH   3  11
ATOM     11  C   UNL     1       3.897   7.145  17.019  0.00  0.00    +0.000 C 
BRANCH  11  12
ATOM     12  C   UNL     1       5.307   6.656  17.268  0.00  0.00    +0.000 C 
ATOM     13  O   UNL     1       5.831   6.415  18.342  0.00  0.00    +0.000 OA
BRANCH  12  15
ATOM     14  C   UNL     1       5.562   5.517  15.233  0.00  0.00    +0.000 C 
ATOM     15  O   UNL     1       5.964   6.606  16.066  0.00  0.00    +0.000 OA
ENDBRANCH  12  15
ENDBRANCH  11  12
ENDBRANCH   3  11
ENDBRANCH   1   3
BRANCH   1  16
ATOM     16  O   UNL     1       0.909   8.422  18.723  0.00  0.00    +0.000 OA
BRANCH  16  17
ATOM     17  C   UNL     1       0.256   9.584  19.211  0.00  0.00    +0.000 A 
ATOM     18  C   UNL     1       0.666  10.161  20.435  0.00  0.00    +0.000 A 
ATOM     19  C   UNL     1       0.118  11.404  20.802  0.00  0.00    +0.000 A 
ATOM     20  C   UNL     1      -0.806  12.054  19.986  0.00  0.00    +0.000 A 
ATOM     21  C   UNL     1      -1.412  13.385  20.316  0.00  0.00    +0.000 C 
ATOM     22  C   UNL     1      -1.183  11.473  18.782  0.00  0.00    +0.000 A 
ATOM     23  C   UNL     1      -0.647  10.263  18.373  0.00  0.00    +0.000 A 
BRANCH  18  24
ATOM     24  O   UNL     1       1.594   9.485  21.196  0.00  0.00    +0.000 OA
ATOM     25  C   UNL     1       1.208   9.166  22.538  0.00  0.00    +0.000 C 
ENDBRANCH  18  24
BRANCH  23  26
ATOM     26  O   UNL     1      -0.983   9.719  17.166  0.00  0.00    +0.000 OA
ATOM     27  C   UNL     1      -2.308   9.985  16.707  0.00  0.00    +0.000 C 
ENDBRANCH  23  26
ENDBRANCH  16  17
ENDBRANCH   1  16
TORSDOF 9
ENDMDL
MODEL 9
REMARK VINA RESULT:      -6.2      2.407      7.042
REMARK  Name = 
REMARK  13 active torsions:
REMARK  status: ('A' for Active; 'I' for Inactive)
REMARK    1  A    between atoms: C_1  and  O_2
REMARK    2  A    between atoms: O_2  and  C_3
REMARK    3  A    between atoms: C_3  and  C_5
REMARK    4  A    between atoms: C_5  and  C_6
REMARK    5  A    between atoms: C_6  and  C_7
REMARK    6  A    between atoms: C_6  and  N_21
REMARK    7  A    between atoms: C_7  and  O_9
REMARK    8  A    between atoms: O_9  and  C_10
REMARK    9  A    between atoms: C_11  and  O_12
REMARK   10  A    between atoms: O_12  and  C_13
REMARK   11  A    between atoms: C_15  and  C_16
REMARK   12  A    between atoms: C_18  and  O_19
REMARK   13  A    between atoms: O_19  and  C_20
REMARK                            x       y       z     vdW  Elec       q    Type
REMARK                         _______ _______ _______ _____ _____    ______ ____
ROOT
ATOM      1  C   UNL     1       2.060   8.107  18.450  0.00  0.00    +0.000 C 
ATOM      2  O   UNL     1       1.303   8.188  17.498  0.00  0.00    +0.000 OA
ENDROOT
BRANCH   1   3
ATOM      3  C   UNL     1       3.185   7.049  18.678  0.00  0.00    +0.000 C 
BRANCH   3   4
ATOM      4  N   UNL     1       2.703   5.691  19.079  0.00  0.00    +0.000 NA
ATOM      5  C   UNL     1       1.860   5.703  20.281  0.00  0.00    +0.000 C 
ATOM      6  C   UNL     1       2.116   4.471  21.152  0.00  0.00    +0.000 C 
ATOM      7  C   UNL     1       1.401   3.211  20.689  0.00  0.00    +0.000 C 
ATOM      8  C   UNL     1       1.751   2.781  19.271  0.00  0.00    +0.000 C 
ATOM      9  C   UNL     1       1.234   3.761  18.224  0.00  0.00    +0.000 C 
ATOM     10  C   UNL     1       2.168   4.941  17.943  0.00  0.00    +0.000 C 
ENDBRANCH   3   4
BRANCH   3  11
ATOM     11  C   UNL     1       4.090   7.002  17.434  0.00  0.00    +0.000 C 
BRANCH  11  12
ATOM     12  C   UNL     1       5.486   6.464  17.659  0.00  0.00    +0.000 C 
ATOM     13  O   UNL     1       5.848   5.670  18.512  0.00  0.00    +0.000 OA
BRANCH  12  15
ATOM     14  C   UNL     1       7.445   7.729  17.419  0.00  0.00    +0.000 C 
ATOM     15  O   UNL     1       6.336   7.090  16.786  0.00  0.00    +0.000 OA
ENDBRANCH  12  15
ENDBRANCH  11  12
ENDBRANCH   3  11
ENDBRANCH   1   3
BRANCH   1  16
ATOM     16  O   UNL     1       2.079   9.016  19.532  0.00  0.00    +0.000 OA
BRANCH  16  17
ATOM     17  C   UNL     1       1.058  10.002  19.545  0.00  0.00    +0.000 A 
ATOM     18  C   UNL     1      -0.045   9.861  20.418  0.00  0.00    +0.000 A 
ATOM     19  C   UNL     1      -0.946  10.936  20.531  0.00  0.00    +0.000 A 
ATOM     20  C   UNL     1      -0.763  12.111  19.803  0.00  0.00    +0.000 A 
ATOM     21  C   UNL     1      -1.679  13.294  19.893  0.00  0.00    +0.000 C 
ATOM     22  C   UNL     1       0.336  12.229  18.962  0.00  0.00    +0.000 A 
ATOM     23  C   UNL     1       1.261  11.204  18.844  0.00  0.00    +0.000 A 
BRANCH  18  24
ATOM     24  O   UNL     1      -0.171   8.687  21.125  0.00  0.00    +0.000 OA
ATOM     25  C   UNL     1      -0.390   8.810  22.536  0.00  0.00    +0.000 C 
ENDBRANCH  18  24
BRANCH  23  26
ATOM     26  O   UNL     1       2.366  11.344  18.053  0.00  0.00    +0.000 OA
ATOM     27  C   UNL     1       2.887  12.667  17.936  0.00  0.00    +0.000 C 
ENDBRANCH  23  26
ENDBRANCH  16  17
ENDBRANCH   1  16
TORSDOF 9
ENDMDL
