MODEL 1
REMARK VINA RESULT:      -8.6      0.000      0.000
REMARK  Name = 
REMARK  6 active torsions:
REMARK  status: ('A' for Active; 'I' for Inactive)
REMARK    1  A    between atoms: C_1  and  O_2
REMARK    2  A    between atoms: O_2  and  C_3
REMARK    3  A    between atoms: C_5  and  C_6
REMARK    4  A    between atoms: N_10  and  C_11
REMARK    5  A    between atoms: C_11  and  C_12
REMARK    6  A    between atoms: C_12  and  C_13
REMARK                            x       y       z     vdW  Elec       q    Type
REMARK                         _______ _______ _______ _____ _____    ______ ____
ROOT
ATOM      1  C   UNL     1       3.193   3.306  18.687  0.00  0.00    +0.000 A 
ATOM      2  N   UNL     1       2.625   2.124  18.508  0.00  0.00    +0.000 NA
ATOM      3  C   UNL     1       1.507   2.096  19.287  0.00  0.00    +0.000 A 
ATOM      4  C   UNL     1       1.365   3.278  19.962  0.00  0.00    +0.000 A 
ATOM      5  N   UNL     1       2.418   4.065  19.563  0.00  0.00    +0.000 N 
ENDROOT
BRANCH   1   8
ATOM      6  C   UNL     1       6.712   4.558  17.875  0.00  0.00    +0.000 A 
ATOM      7  C   UNL     1       5.603   4.089  18.595  0.00  0.00    +0.000 A 
ATOM      8  C   UNL     1       4.394   3.740  17.958  0.00  0.00    +0.000 A 
ATOM      9  C   UNL     1       4.337   3.784  16.560  0.00  0.00    +0.000 A 
ATOM     10  C   UNL     1       5.446   4.216  15.867  0.00  0.00    +0.000 A 
ATOM     11  C   UNL     1       6.605   4.607  16.498  0.00  0.00    +0.000 A 
ATOM     12  O   UNL     1       7.551   5.005  15.600  0.00  0.00    +0.000 OA
ATOM     13  C   UNL     1       6.877   4.772  14.348  0.00  0.00    +0.000 C 
ATOM     14  O   UNL     1       5.525   4.311  14.507  0.00  0.00    +0.000 OA
BRANCH   6  16
ATOM     15  C   UNL     1       7.957   6.295  18.909  0.00  0.00    +0.000 C 
ATOM     16  O   UNL     1       7.781   4.909  18.649  0.00  0.00    +0.000 OA
ENDBRANCH   6  16
ENDBRANCH   1   8
BRANCH   5  17
ATOM     17  C   UNL     1       2.635   5.456  19.938  0.00  0.00    +0.000 C 
BRANCH  17  18
ATOM     18  C   UNL     1       2.658   6.440  18.768  0.00  0.00    +0.000 C 
BRANCH  18  19
ATOM     19  C   UNL     1       2.148   7.791  19.137  0.00  0.00    +0.000 A 
ATOM     20  N   UNL     1       1.639   8.121  20.315  0.00  0.00    +0.000 NA
ATOM     21  C   UNL     1       1.026   9.330  20.173  0.00  0.00    +0.000 A 
ATOM     22  C   UNL     1       1.076   9.895  18.926  0.00  0.00    +0.000 A 
ATOM     23  S   UNL     1       1.996   8.985  17.870  0.00  0.00    +0.000 S 
ATOM     24  C   UNL     1       0.061  10.954  18.731  0.00  0.00    +0.000 C 
ATOM     25  C   UNL     1      -0.941  10.533  19.857  0.00  0.00    +0.000 C 
ATOM     26  C   UNL     1      -0.041   9.944  20.995  0.00  0.00    +0.000 C 
ENDBRANCH  18  19
ENDBRANCH  17  18
ENDBRANCH   5  17
TORSDOF 5
ENDMDL
MODEL 2
REMARK VINA RESULT:      -8.4      0.846      1.042
REMARK  Name = 
REMARK  6 active torsions:
REMARK  status: ('A' for Active; 'I' for Inactive)
REMARK    1  A    between atoms: C_1  and  O_2
REMARK    2  A    between atoms: O_2  and  C_3
REMARK    3  A    between atoms: C_5  and  C_6
REMARK    4  A    between atoms: N_10  and  C_11
REMARK    5  A    between atoms: C_11  and  C_12
REMARK    6  A    between atoms: C_12  and  C_13
REMARK                            x       y       z     vdW  Elec       q    Type
REMARK                         _______ _______ _______ _____ _____    ______ ____
ROOT
ATOM      1  C   UNL     1       2.935   3.196  18.332  0.00  0.00    +0.000 A 
ATOM      2  N   UNL     1       2.134   2.319  17.748  0.00  0.00    +0.000 NA
ATOM      3  C   UNL     1       1.041   2.180  18.553  0.00  0.00    +0.000 A 
ATOM      4  C   UNL     1       1.153   2.984  19.654  0.00  0.00    +0.000 A 
ATOM      5  N   UNL     1       2.342   3.656  19.507  0.00  0.00    +0.000 N 
ENDROOT
BRANCH   1   8
ATOM      6  C   UNL     1       6.510   4.472  17.883  0.00  0.00    +0.000 A 
ATOM      7  C   UNL     1       5.345   3.971  18.483  0.00  0.00    +0.000 A 
ATOM      8  C   UNL     1       4.193   3.661  17.730  0.00  0.00    +0.000 A 
ATOM      9  C   UNL     1       4.253   3.777  16.336  0.00  0.00    +0.000 A 
ATOM     10  C   UNL     1       5.416   4.240  15.761  0.00  0.00    +0.000 A 
ATOM     11  C   UNL     1       6.518   4.592  16.506  0.00  0.00    +0.000 A 
ATOM     12  O   UNL     1       7.536   5.031  15.712  0.00  0.00    +0.000 OA
ATOM     13  C   UNL     1       6.969   4.866  14.398  0.00  0.00    +0.000 C 
ATOM     14  O   UNL     1       5.609   4.403  14.420  0.00  0.00    +0.000 OA
BRANCH   6  16
ATOM     15  C   UNL     1       7.840   6.152  18.904  0.00  0.00    +0.000 C 
ATOM     16  O   UNL     1       7.510   4.777  18.760  0.00  0.00    +0.000 OA
ENDBRANCH   6  16
ENDBRANCH   1   8
BRANCH   5  17
ATOM     17  C   UNL     1       2.844   4.703  20.386  0.00  0.00    +0.000 C 
BRANCH  17  18
ATOM     18  C   UNL     1       1.768   5.606  20.990  0.00  0.00    +0.000 C 
BRANCH  18  19
ATOM     19  C   UNL     1       1.805   6.994  20.449  0.00  0.00    +0.000 A 
ATOM     20  N   UNL     1       1.203   8.042  20.991  0.00  0.00    +0.000 NA
ATOM     21  C   UNL     1       1.220   9.047  20.071  0.00  0.00    +0.000 A 
ATOM     22  C   UNL     1       1.820   8.764  18.872  0.00  0.00    +0.000 A 
ATOM     23  S   UNL     1       2.501   7.240  18.864  0.00  0.00    +0.000 S 
ATOM     24  C   UNL     1       1.437   9.707  17.798  0.00  0.00    +0.000 C 
ATOM     25  C   UNL     1       0.101  10.241  18.415  0.00  0.00    +0.000 C 
ATOM     26  C   UNL     1       0.344  10.236  19.963  0.00  0.00    +0.000 C 
ENDBRANCH  18  19
ENDBRANCH  17  18
ENDBRANCH   5  17
TORSDOF 5
ENDMDL
MODEL 3
REMARK VINA RESULT:      -8.3      1.024      1.319
REMARK  Name = 
REMARK  6 active torsions:
REMARK  status: ('A' for Active; 'I' for Inactive)
REMARK    1  A    between atoms: C_1  and  O_2
REMARK    2  A    between atoms: O_2  and  C_3
REMARK    3  A    between atoms: C_5  and  C_6
REMARK    4  A    between atoms: N_10  and  C_11
REMARK    5  A    between atoms: C_11  and  C_12
REMARK    6  A    between atoms: C_12  and  C_13
REMARK                            x       y       z     vdW  Elec       q    Type
REMARK                         _______ _______ _______ _____ _____    ______ ____
ROOT
ATOM      1  C   UNL     1       2.902   3.744  18.730  0.00  0.00    +0.000 A 
ATOM      2  N   UNL     1       2.164   2.662  18.535  0.00  0.00    +0.000 NA
ATOM      3  C   UNL     1       1.047   2.797  19.306  0.00  0.00    +0.000 A 
ATOM      4  C   UNL     1       1.079   3.982  19.989  0.00  0.00    +0.000 A 
ATOM      5  N   UNL     1       2.242   4.604  19.606  0.00  0.00    +0.000 N 
ENDROOT
BRANCH   1   8
ATOM      6  C   UNL     1       6.561   4.534  17.957  0.00  0.00    +0.000 A 
ATOM      7  C   UNL     1       5.389   4.233  18.668  0.00  0.00    +0.000 A 
ATOM      8  C   UNL     1       4.162   3.997  18.015  0.00  0.00    +0.000 A 
ATOM      9  C   UNL     1       4.141   3.979  16.615  0.00  0.00    +0.000 A 
ATOM     10  C   UNL     1       5.307   4.244  15.934  0.00  0.00    +0.000 A 
ATOM     11  C   UNL     1       6.491   4.526  16.577  0.00  0.00    +0.000 A 
ATOM     12  O   UNL     1       7.496   4.766  15.688  0.00  0.00    +0.000 OA
ATOM     13  C   UNL     1       6.827   4.552  14.430  0.00  0.00    +0.000 C 
ATOM     14  O   UNL     1       5.427   4.260  14.574  0.00  0.00    +0.000 OA
BRANCH   6  16
ATOM     15  C   UNL     1       7.961   6.162  18.969  0.00  0.00    +0.000 C 
ATOM     16  O   UNL     1       7.646   4.794  18.743  0.00  0.00    +0.000 OA
ENDBRANCH   6  16
ENDBRANCH   1   8
BRANCH   5  17
ATOM     17  C   UNL     1       2.662   5.943  19.996  0.00  0.00    +0.000 C 
BRANCH  17  18
ATOM     18  C   UNL     1       2.640   6.976  18.869  0.00  0.00    +0.000 C 
BRANCH  18  19
ATOM     19  C   UNL     1       1.784   8.156  19.181  0.00  0.00    +0.000 A 
ATOM     20  N   UNL     1       1.562   9.177  18.366  0.00  0.00    +0.000 NA
ATOM     21  C   UNL     1       0.987  10.171  19.100  0.00  0.00    +0.000 A 
ATOM     22  C   UNL     1       0.779   9.905  20.428  0.00  0.00    +0.000 A 
ATOM     23  S   UNL     1       1.199   8.336  20.818  0.00  0.00    +0.000 S 
ATOM     24  C   UNL     1       0.565  11.126  21.235  0.00  0.00    +0.000 C 
ATOM     25  C   UNL     1       1.231  12.166  20.273  0.00  0.00    +0.000 C 
ATOM     26  C   UNL     1       0.936  11.626  18.832  0.00  0.00    +0.000 C 
ENDBRANCH  18  19
ENDBRANCH  17  18
ENDBRANCH   5  17
TORSDOF 5
ENDMDL
MODEL 4
REMARK VINA RESULT:      -8.2      0.998      1.032
REMARK  Name = 
REMARK  6 active torsions:
REMARK  status: ('A' for Active; 'I' for Inactive)
REMARK    1  A    between atoms: C_1  and  O_2
REMARK    2  A    between atoms: O_2  and  C_3
REMARK    3  A    between atoms: C_5  and  C_6
REMARK    4  A    between atoms: N_10  and  C_11
REMARK    5  A    between atoms: C_11  and  C_12
REMARK    6  A    between atoms: C_12  and  C_13
REMARK                            x       y       z     vdW  Elec       q    Type
REMARK                         _______ _______ _______ _____ _____    ______ ____
ROOT
ATOM      1  C   UNL     1       4.039   3.821  19.104  0.00  0.00    +0.000 A 
ATOM      2  N   UNL     1       4.244   2.775  19.890  0.00  0.00    +0.000 NA
ATOM      3  C   UNL     1       3.104   2.594  20.617  0.00  0.00    +0.000 A 
ATOM      4  C   UNL     1       2.168   3.534  20.281  0.00  0.00    +0.000 A 
ATOM      5  N   UNL     1       2.745   4.301  19.298  0.00  0.00    +0.000 N 
ENDROOT
BRANCH   1   8
ATOM      6  C   UNL     1       6.975   5.631  17.457  0.00  0.00    +0.000 A 
ATOM      7  C   UNL     1       6.090   5.154  18.436  0.00  0.00    +0.000 A 
ATOM      8  C   UNL     1       5.023   4.288  18.117  0.00  0.00    +0.000 A 
ATOM      9  C   UNL     1       4.904   3.829  16.800  0.00  0.00    +0.000 A 
ATOM     10  C   UNL     1       5.801   4.283  15.858  0.00  0.00    +0.000 A 
ATOM     11  C   UNL     1       6.807   5.170  16.165  0.00  0.00    +0.000 A 
ATOM     12  O   UNL     1       7.553   5.476  15.065  0.00  0.00    +0.000 OA
ATOM     13  C   UNL     1       6.937   4.650  14.059  0.00  0.00    +0.000 C 
ATOM     14  O   UNL     1       5.798   3.919  14.542  0.00  0.00    +0.000 OA
BRANCH   6  16
ATOM     15  C   UNL     1       7.729   7.878  17.595  0.00  0.00    +0.000 C 
ATOM     16  O   UNL     1       7.912   6.507  17.923  0.00  0.00    +0.000 OA
ENDBRANCH   6  16
ENDBRANCH   1   8
BRANCH   5  17
ATOM     17  C   UNL     1       2.090   5.368  18.555  0.00  0.00    +0.000 C 
BRANCH  17  18
ATOM     18  C   UNL     1       2.940   6.623  18.350  0.00  0.00    +0.000 C 
BRANCH  18  19
ATOM     19  C   UNL     1       2.309   7.849  18.915  0.00  0.00    +0.000 A 
ATOM     20  N   UNL     1       1.770   7.946  20.121  0.00  0.00    +0.000 NA
ATOM     21  C   UNL     1       1.050   9.102  20.158  0.00  0.00    +0.000 A 
ATOM     22  C   UNL     1       1.050   9.856  19.014  0.00  0.00    +0.000 A 
ATOM     23  S   UNL     1       2.050   9.207  17.844  0.00  0.00    +0.000 S 
ATOM     24  C   UNL     1      -0.055  10.837  18.968  0.00  0.00    +0.000 C 
ATOM     25  C   UNL     1      -1.018  10.159  20.000  0.00  0.00    +0.000 C 
ATOM     26  C   UNL     1      -0.069   9.484  21.048  0.00  0.00    +0.000 C 
ENDBRANCH  18  19
ENDBRANCH  17  18
ENDBRANCH   5  17
TORSDOF 5
ENDMDL
MODEL 5
REMARK VINA RESULT:      -8.1      1.482      1.770
REMARK  Name = 
REMARK  6 active torsions:
REMARK  status: ('A' for Active; 'I' for Inactive)
REMARK    1  A    between atoms: C_1  and  O_2
REMARK    2  A    between atoms: O_2  and  C_3
REMARK    3  A    between atoms: C_5  and  C_6
REMARK    4  A    between atoms: N_10  and  C_11
REMARK    5  A    between atoms: C_11  and  C_12
REMARK    6  A    between atoms: C_12  and  C_13
REMARK                            x       y       z     vdW  Elec       q    Type
REMARK                         _______ _______ _______ _____ _____    ______ ____
ROOT
ATOM      1  C   UNL     1       4.181   4.224  18.639  0.00  0.00    +0.000 A 
ATOM      2  N   UNL     1       4.379   3.206  19.463  0.00  0.00    +0.000 NA
ATOM      3  C   UNL     1       3.282   3.128  20.271  0.00  0.00    +0.000 A 
ATOM      4  C   UNL     1       2.380   4.105  19.948  0.00  0.00    +0.000 A 
ATOM      5  N   UNL     1       2.931   4.789  18.891  0.00  0.00    +0.000 N 
ENDROOT
BRANCH   1   8
ATOM      6  C   UNL     1       6.938   5.955  16.637  0.00  0.00    +0.000 A 
ATOM      7  C   UNL     1       6.098   5.592  17.701  0.00  0.00    +0.000 A 
ATOM      8  C   UNL     1       5.120   4.585  17.568  0.00  0.00    +0.000 A 
ATOM      9  C   UNL     1       5.052   3.872  16.364  0.00  0.00    +0.000 A 
ATOM     10  C   UNL     1       5.906   4.220  15.341  0.00  0.00    +0.000 A 
ATOM     11  C   UNL     1       6.822   5.241  15.459  0.00  0.00    +0.000 A 
ATOM     12  O   UNL     1       7.540   5.400  14.311  0.00  0.00    +0.000 OA
ATOM     13  C   UNL     1       7.010   4.342  13.489  0.00  0.00    +0.000 C 
ATOM     14  O   UNL     1       5.944   3.613  14.119  0.00  0.00    +0.000 OA
BRANCH   6  16
ATOM     15  C   UNL     1       8.011   7.281  18.287  0.00  0.00    +0.000 C 
ATOM     16  O   UNL     1       7.786   6.988  16.914  0.00  0.00    +0.000 OA
ENDBRANCH   6  16
ENDBRANCH   1   8
BRANCH   5  17
ATOM     17  C   UNL     1       2.289   5.857  18.138  0.00  0.00    +0.000 C 
BRANCH  17  18
ATOM     18  C   UNL     1       2.917   7.239  18.321  0.00  0.00    +0.000 C 
BRANCH  18  19
ATOM     19  C   UNL     1       1.948   8.254  18.824  0.00  0.00    +0.000 A 
ATOM     20  N   UNL     1       1.568   9.340  18.168  0.00  0.00    +0.000 NA
ATOM     21  C   UNL     1       0.921  10.149  19.053  0.00  0.00    +0.000 A 
ATOM     22  C   UNL     1       0.814   9.684  20.337  0.00  0.00    +0.000 A 
ATOM     23  S   UNL     1       1.432   8.140  20.490  0.00  0.00    +0.000 S 
ATOM     24  C   UNL     1       0.503  10.751  21.313  0.00  0.00    +0.000 C 
ATOM     25  C   UNL     1       0.994  11.984  20.483  0.00  0.00    +0.000 C 
ATOM     26  C   UNL     1       0.689  11.610  18.992  0.00  0.00    +0.000 C 
ENDBRANCH  18  19
ENDBRANCH  17  18
ENDBRANCH   5  17
TORSDOF 5
ENDMDL
MODEL 6
REMARK VINA RESULT:      -8.0      1.292      1.378
REMARK  Name = 
REMARK  6 active torsions:
REMARK  status: ('A' for Active; 'I' for Inactive)
REMARK    1  A    between atoms: C_1  and  O_2
REMARK    2  A    between atoms: O_2  and  C_3
REMARK    3  A    between atoms: C_5  and  C_6
REMARK    4  A    between atoms: N_10  and  C_11
REMARK    5  A    between atoms: C_11  and  C_12
REMARK    6  A    between atoms: C_12  and  C_13
REMARK                            x       y       z     vdW  Elec       q    Type
REMARK                         _______ _______ _______ _____ _____    ______ ____
ROOT
ATOM      1  C   UNL     1       4.034   4.102  19.500  0.00  0.00    +0.000 A 
ATOM      2  N   UNL     1       3.933   2.850  19.917  0.00  0.00    +0.000 NA
ATOM      3  C   UNL     1       2.895   2.805  20.801  0.00  0.00    +0.000 A 
ATOM      4  C   UNL     1       2.331   4.045  20.938  0.00  0.00    +0.000 A 
ATOM      5  N   UNL     1       3.031   4.870  20.092  0.00  0.00    +0.000 N 
ENDROOT
BRANCH   1   8
ATOM      6  C   UNL     1       6.942   5.855  17.745  0.00  0.00    +0.000 A 
ATOM      7  C   UNL     1       6.073   5.412  18.754  0.00  0.00    +0.000 A 
ATOM      8  C   UNL     1       5.002   4.536  18.482  0.00  0.00    +0.000 A 
ATOM      9  C   UNL     1       4.862   4.031  17.183  0.00  0.00    +0.000 A 
ATOM     10  C   UNL     1       5.744   4.452  16.213  0.00  0.00    +0.000 A 
ATOM     11  C   UNL     1       6.755   5.349  16.473  0.00  0.00    +0.000 A 
ATOM     12  O   UNL     1       7.483   5.617  15.352  0.00  0.00    +0.000 OA
ATOM     13  C   UNL     1       6.852   4.757  14.384  0.00  0.00    +0.000 C 
ATOM     14  O   UNL     1       5.721   4.043  14.911  0.00  0.00    +0.000 OA
BRANCH   6  16
ATOM     15  C   UNL     1       7.759   8.084  17.702  0.00  0.00    +0.000 C 
ATOM     16  O   UNL     1       7.887   6.746  18.166  0.00  0.00    +0.000 OA
ENDBRANCH   6  16
ENDBRANCH   1   8
BRANCH   5  17
ATOM     17  C   UNL     1       2.727   6.268  19.819  0.00  0.00    +0.000 C 
BRANCH  17  18
ATOM     18  C   UNL     1       1.560   6.840  20.623  0.00  0.00    +0.000 C 
BRANCH  18  19
ATOM     19  C   UNL     1       1.428   8.318  20.482  0.00  0.00    +0.000 A 
ATOM     20  N   UNL     1       1.106   9.153  21.459  0.00  0.00    +0.000 NA
ATOM     21  C   UNL     1       0.802  10.353  20.889  0.00  0.00    +0.000 A 
ATOM     22  C   UNL     1       0.895  10.420  19.524  0.00  0.00    +0.000 A 
ATOM     23  S   UNL     1       1.480   8.998  18.873  0.00  0.00    +0.000 S 
ATOM     24  C   UNL     1       0.162  11.569  18.950  0.00  0.00    +0.000 C 
ATOM     25  C   UNL     1      -0.826  11.837  20.135  0.00  0.00    +0.000 C 
ATOM     26  C   UNL     1      -0.015  11.466  21.424  0.00  0.00    +0.000 C 
ENDBRANCH  18  19
ENDBRANCH  17  18
ENDBRANCH   5  17
TORSDOF 5
ENDMDL
MODEL 7
REMARK VINA RESULT:      -8.0      1.325      2.604
REMARK  Name = 
REMARK  6 active torsions:
REMARK  status: ('A' for Active; 'I' for Inactive)
REMARK    1  A    between atoms: C_1  and  O_2
REMARK    2  A    between atoms: O_2  and  C_3
REMARK    3  A    between atoms: C_5  and  C_6
REMARK    4  A    between atoms: N_10  and  C_11
REMARK    5  A    between atoms: C_11  and  C_12
REMARK    6  A    between atoms: C_12  and  C_13
REMARK                            x       y       z     vdW  Elec       q    Type
REMARK                         _______ _______ _______ _____ _____    ______ ____
ROOT
ATOM      1  C   UNL     1       2.706   3.784  18.781  0.00  0.00    +0.000 A 
ATOM      2  N   UNL     1       2.211   2.700  18.205  0.00  0.00    +0.000 NA
ATOM      3  C   UNL     1       0.996   2.463  18.779  0.00  0.00    +0.000 A 
ATOM      4  C   UNL     1       0.721   3.414  19.724  0.00  0.00    +0.000 A 
ATOM      5  N   UNL     1       1.791   4.275  19.711  0.00  0.00    +0.000 N 
ENDROOT
BRANCH   1   8
ATOM      6  C   UNL     1       5.536   5.278  16.689  0.00  0.00    +0.000 A 
ATOM      7  C   UNL     1       4.285   4.752  17.049  0.00  0.00    +0.000 A 
ATOM      8  C   UNL     1       3.981   4.397  18.380  0.00  0.00    +0.000 A 
ATOM      9  C   UNL     1       4.929   4.660  19.376  0.00  0.00    +0.000 A 
ATOM     10  C   UNL     1       6.138   5.207  19.010  0.00  0.00    +0.000 A 
ATOM     11  C   UNL     1       6.449   5.501  17.702  0.00  0.00    +0.000 A 
ATOM     12  O   UNL     1       7.706   6.019  17.594  0.00  0.00    +0.000 OA
ATOM     13  C   UNL     1       8.121   6.062  18.972  0.00  0.00    +0.000 C 
ATOM     14  O   UNL     1       7.149   5.511  19.876  0.00  0.00    +0.000 OA
BRANCH   6  16
ATOM     15  C   UNL     1       6.509   4.602  14.632  0.00  0.00    +0.000 C 
ATOM     16  O   UNL     1       5.687   5.510  15.353  0.00  0.00    +0.000 OA
ENDBRANCH   6  16
ENDBRANCH   1   8
BRANCH   5  17
ATOM     17  C   UNL     1       1.904   5.507  20.480  0.00  0.00    +0.000 C 
BRANCH  17  18
ATOM     18  C   UNL     1       1.887   6.788  19.646  0.00  0.00    +0.000 C 
BRANCH  18  19
ATOM     19  C   UNL     1       1.587   8.003  20.456  0.00  0.00    +0.000 A 
ATOM     20  N   UNL     1       1.491   8.037  21.776  0.00  0.00    +0.000 NA
ATOM     21  C   UNL     1       0.926   9.230  22.117  0.00  0.00    +0.000 A 
ATOM     22  C   UNL     1       0.609  10.070  21.082  0.00  0.00    +0.000 A 
ATOM     23  S   UNL     1       1.104   9.455  19.610  0.00  0.00    +0.000 S 
ATOM     24  C   UNL     1      -0.361  11.119  21.465  0.00  0.00    +0.000 C 
ATOM     25  C   UNL     1      -0.979  10.422  22.724  0.00  0.00    +0.000 C 
ATOM     26  C   UNL     1       0.204   9.608  23.352  0.00  0.00    +0.000 C 
ENDBRANCH  18  19
ENDBRANCH  17  18
ENDBRANCH   5  17
TORSDOF 5
ENDMDL
MODEL 8
REMARK VINA RESULT:      -7.9      1.050      2.391
REMARK  Name = 
REMARK  6 active torsions:
REMARK  status: ('A' for Active; 'I' for Inactive)
REMARK    1  A    between atoms: C_1  and  O_2
REMARK    2  A    between atoms: O_2  and  C_3
REMARK    3  A    between atoms: C_5  and  C_6
REMARK    4  A    between atoms: N_10  and  C_11
REMARK    5  A    between atoms: C_11  and  C_12
REMARK    6  A    between atoms: C_12  and  C_13
REMARK                            x       y       z     vdW  Elec       q    Type
REMARK                         _______ _______ _______ _____ _____    ______ ____
ROOT
ATOM      1  C   UNL     1       3.623   3.183  18.329  0.00  0.00    +0.000 A 
ATOM      2  N   UNL     1       3.758   1.866  18.308  0.00  0.00    +0.000 NA
ATOM      3  C   UNL     1       2.628   1.340  18.862  0.00  0.00    +0.000 A 
ATOM      4  C   UNL     1       1.768   2.339  19.232  0.00  0.00    +0.000 A 
ATOM      5  N   UNL     1       2.381   3.513  18.870  0.00  0.00    +0.000 N 
ENDROOT
BRANCH   1   8
ATOM      6  C   UNL     1       5.778   5.131  15.844  0.00  0.00    +0.000 A 
ATOM      7  C   UNL     1       4.779   4.292  16.364  0.00  0.00    +0.000 A 
ATOM      8  C   UNL     1       4.615   4.102  17.752  0.00  0.00    +0.000 A 
ATOM      9  C   UNL     1       5.418   4.840  18.629  0.00  0.00    +0.000 A 
ATOM     10  C   UNL     1       6.371   5.682  18.102  0.00  0.00    +0.000 A 
ATOM     11  C   UNL     1       6.563   5.823  16.746  0.00  0.00    +0.000 A 
ATOM     12  O   UNL     1       7.570   6.702  16.475  0.00  0.00    +0.000 OA
ATOM     13  C   UNL     1       7.947   7.127  17.798  0.00  0.00    +0.000 C 
ATOM     14  O   UNL     1       7.220   6.456  18.840  0.00  0.00    +0.000 OA
BRANCH   6  16
ATOM     15  C   UNL     1       6.236   3.953  13.835  0.00  0.00    +0.000 C 
ATOM     16  O   UNL     1       5.839   5.156  14.481  0.00  0.00    +0.000 OA
ENDBRANCH   6  16
ENDBRANCH   1   8
BRANCH   5  17
ATOM     17  C   UNL     1       1.801   4.845  18.972  0.00  0.00    +0.000 C 
BRANCH  17  18
ATOM     18  C   UNL     1       2.196   5.623  20.227  0.00  0.00    +0.000 C 
BRANCH  18  19
ATOM     19  C   UNL     1       1.939   7.087  20.107  0.00  0.00    +0.000 A 
ATOM     20  N   UNL     1       1.316   7.830  21.009  0.00  0.00    +0.000 NA
ATOM     21  C   UNL     1       1.020   9.025  20.423  0.00  0.00    +0.000 A 
ATOM     22  C   UNL     1       1.413   9.176  19.119  0.00  0.00    +0.000 A 
ATOM     23  S   UNL     1       2.281   7.857  18.576  0.00  0.00    +0.000 S 
ATOM     24  C   UNL     1       0.708  10.278  18.428  0.00  0.00    +0.000 C 
ATOM     25  C   UNL     1      -0.546  10.380  19.360  0.00  0.00    +0.000 C 
ATOM     26  C   UNL     1      -0.013  10.019  20.788  0.00  0.00    +0.000 C 
ENDBRANCH  18  19
ENDBRANCH  17  18
ENDBRANCH   5  17
TORSDOF 5
ENDMDL
MODEL 9
REMARK VINA RESULT:      -7.9      1.414      1.777
REMARK  Name = 
REMARK  6 active torsions:
REMARK  status: ('A' for Active; 'I' for Inactive)
REMARK    1  A    between atoms: C_1  and  O_2
REMARK    2  A    between atoms: O_2  and  C_3
REMARK    3  A    between atoms: C_5  and  C_6
REMARK    4  A    between atoms: N_10  and  C_11
REMARK    5  A    between atoms: C_11  and  C_12
REMARK    6  A    between atoms: C_12  and  C_13
REMARK                            x       y       z     vdW  Elec       q    Type
REMARK                         _______ _______ _______ _____ _____    ______ ____
ROOT
ATOM      1  C   UNL     1       3.397   4.526  18.791  0.00  0.00    +0.000 A 
ATOM      2  N   UNL     1       2.836   3.329  18.877  0.00  0.00    +0.000 NA
ATOM      3  C   UNL     1       1.771   3.447  19.721  0.00  0.00    +0.000 A 
ATOM      4  C   UNL     1       1.657   4.734  20.169  0.00  0.00    +0.000 A 
ATOM      5  N   UNL     1       2.670   5.434  19.559  0.00  0.00    +0.000 N 
ENDROOT
BRANCH   1   8
ATOM      6  C   UNL     1       6.726   5.849  17.460  0.00  0.00    +0.000 A 
ATOM      7  C   UNL     1       5.679   5.534  18.339  0.00  0.00    +0.000 A 
ATOM      8  C   UNL     1       4.540   4.817  17.915  0.00  0.00    +0.000 A 
ATOM      9  C   UNL     1       4.503   4.335  16.601  0.00  0.00    +0.000 A 
ATOM     10  C   UNL     1       5.555   4.626  15.761  0.00  0.00    +0.000 A 
ATOM     11  C   UNL     1       6.639   5.373  16.166  0.00  0.00    +0.000 A 
ATOM     12  O   UNL     1       7.538   5.534  15.153  0.00  0.00    +0.000 OA
ATOM     13  C   UNL     1       6.925   4.770  14.097  0.00  0.00    +0.000 C 
ATOM     14  O   UNL     1       5.646   4.223  14.460  0.00  0.00    +0.000 OA
BRANCH   6  16
ATOM     15  C   UNL     1       7.766   7.974  17.656  0.00  0.00    +0.000 C 
ATOM     16  O   UNL     1       7.722   6.599  18.015  0.00  0.00    +0.000 OA
ENDBRANCH   6  16
ENDBRANCH   1   8
BRANCH   5  17
ATOM     17  C   UNL     1       2.889   6.871  19.651  0.00  0.00    +0.000 C 
BRANCH  17  18
ATOM     18  C   UNL     1       1.668   7.730  19.321  0.00  0.00    +0.000 C 
BRANCH  18  19
ATOM     19  C   UNL     1       1.364   8.736  20.379  0.00  0.00    +0.000 A 
ATOM     20  N   UNL     1       1.248   8.474  21.672  0.00  0.00    +0.000 NA
ATOM     21  C   UNL     1       0.686   9.566  22.263  0.00  0.00    +0.000 A 
ATOM     22  C   UNL     1       0.391  10.620  21.439  0.00  0.00    +0.000 A 
ATOM     23  S   UNL     1       0.903  10.344  19.873  0.00  0.00    +0.000 S 
ATOM     24  C   UNL     1      -0.578  11.565  22.035  0.00  0.00    +0.000 C 
ATOM     25  C   UNL     1      -1.219  10.611  23.097  0.00  0.00    +0.000 C 
ATOM     26  C   UNL     1      -0.052   9.665  23.542  0.00  0.00    +0.000 C 
ENDBRANCH  18  19
ENDBRANCH  17  18
ENDBRANCH   5  17
TORSDOF 5
ENDMDL
