MODEL 1
REMARK VINA RESULT:      -8.1      0.000      0.000
REMARK  Name = 
REMARK  4 active torsions:
REMARK  status: ('A' for Active; 'I' for Inactive)
REMARK    1  A    between atoms: C_1  and  C_2
REMARK    2  A    between atoms: C_4  and  C_5
REMARK    3  A    between atoms: C_6  and  C_7
REMARK    4  A    between atoms: N_11  and  C_12
REMARK                            x       y       z     vdW  Elec       q    Type
REMARK                         _______ _______ _______ _____ _____    ______ ____
ROOT
ATOM      1  C   UNL     1       8.769  10.102  18.463  0.00  0.00    +0.000 A 
ATOM      2  C   UNL     1       9.583  10.175  19.581  0.00  0.00    +0.000 A 
ATOM      3  C   UNL     1      10.064  11.421  19.999  0.00  0.00    +0.000 A 
ATOM      4  C   UNL     1       9.732  12.586  19.299  0.00  0.00    +0.000 A 
ATOM      5  N   UNL     1      10.222  13.839  19.703  0.00  0.00    +0.000 N 
ATOM      6  C   UNL     1      10.369  14.095  21.135  0.00  0.00    +0.000 C 
ATOM      7  C   UNL     1      10.789  14.849  18.890  0.00  0.00    +0.000 A 
ATOM      8  C   UNL     1      10.920  14.691  17.507  0.00  0.00    +0.000 A 
ATOM      9  C   UNL     1      11.593  15.644  16.742  0.00  0.00    +0.000 A 
ATOM     10  C   UNL     1      12.120  16.763  17.363  0.00  0.00    +0.000 A 
ATOM     11  C   UNL     1      11.934  16.882  18.725  0.00  0.00    +0.000 A 
ATOM     12  N   UNL     1      11.294  15.964  19.484  0.00  0.00    +0.000 NA
ATOM     13  N   UNL     1       8.946  12.503  18.196  0.00  0.00    +0.000 NA
ATOM     14  C   UNL     1       8.486  11.287  17.806  0.00  0.00    +0.000 A 
ENDROOT
BRANCH   1  16
ATOM     15  C   UNL     1       7.758   7.809  17.662  0.00  0.00    +0.000 C 
ATOM     16  C   UNL     1       8.236   8.853  18.017  0.00  0.00    +0.000 C 
BRANCH  15  20
ATOM     17  C   UNL     1       6.669   4.217  14.524  0.00  0.00    +0.000 C 
ATOM     18  C   UNL     1       6.693   5.007  15.786  0.00  0.00    +0.000 A 
ATOM     19  N   UNL     1       7.328   6.150  15.949  0.00  0.00    +0.000 NA
ATOM     20  C   UNL     1       7.139   6.595  17.239  0.00  0.00    +0.000 A 
ATOM     21  C   UNL     1       6.363   5.798  18.049  0.00  0.00    +0.000 A 
ATOM     22  S   UNL     1       5.841   4.427  17.167  0.00  0.00    +0.000 S 
ENDBRANCH  15  20
ENDBRANCH   1  16
TORSDOF 2
ENDMDL
MODEL 2
REMARK VINA RESULT:      -7.8      1.393      2.860
REMARK  Name = 
REMARK  4 active torsions:
REMARK  status: ('A' for Active; 'I' for Inactive)
REMARK    1  A    between atoms: C_1  and  C_2
REMARK    2  A    between atoms: C_4  and  C_5
REMARK    3  A    between atoms: C_6  and  C_7
REMARK    4  A    between atoms: N_11  and  C_12
REMARK                            x       y       z     vdW  Elec       q    Type
REMARK                         _______ _______ _______ _____ _____    ______ ____
ROOT
ATOM      1  C   UNL     1       8.954  10.245  18.663  0.00  0.00    +0.000 A 
ATOM      2  C   UNL     1       9.156  11.313  17.804  0.00  0.00    +0.000 A 
ATOM      3  C   UNL     1       9.729  12.490  18.296  0.00  0.00    +0.000 A 
ATOM      4  C   UNL     1      10.098  12.596  19.642  0.00  0.00    +0.000 A 
ATOM      5  N   UNL     1      10.661  13.780  20.148  0.00  0.00    +0.000 N 
ATOM      6  C   UNL     1      11.558  14.543  19.282  0.00  0.00    +0.000 C 
ATOM      7  C   UNL     1      10.324  14.456  21.345  0.00  0.00    +0.000 A 
ATOM      8  C   UNL     1       9.332  13.975  22.204  0.00  0.00    +0.000 A 
ATOM      9  C   UNL     1       8.929  14.720  23.313  0.00  0.00    +0.000 A 
ATOM     10  C   UNL     1       9.532  15.939  23.566  0.00  0.00    +0.000 A 
ATOM     11  C   UNL     1      10.526  16.349  22.703  0.00  0.00    +0.000 A 
ATOM     12  N   UNL     1      10.923  15.646  21.618  0.00  0.00    +0.000 NA
ATOM     13  N   UNL     1       9.884  11.551  20.479  0.00  0.00    +0.000 NA
ATOM     14  C   UNL     1       9.328  10.415  19.985  0.00  0.00    +0.000 A 
ENDROOT
BRANCH   1  16
ATOM     15  C   UNL     1       7.916   7.973  17.837  0.00  0.00    +0.000 C 
ATOM     16  C   UNL     1       8.395   9.015  18.196  0.00  0.00    +0.000 C 
BRANCH  15  20
ATOM     17  C   UNL     1       6.684   4.387  14.745  0.00  0.00    +0.000 C 
ATOM     18  C   UNL     1       6.789   5.160  16.013  0.00  0.00    +0.000 A 
ATOM     19  N   UNL     1       7.397   6.323  16.139  0.00  0.00    +0.000 NA
ATOM     20  C   UNL     1       7.305   6.743  17.449  0.00  0.00    +0.000 A 
ATOM     21  C   UNL     1       6.631   5.908  18.310  0.00  0.00    +0.000 A 
ATOM     22  S   UNL     1       6.082   4.530  17.453  0.00  0.00    +0.000 S 
ENDBRANCH  15  20
ENDBRANCH   1  16
TORSDOF 2
ENDMDL
MODEL 3
REMARK VINA RESULT:      -7.5      3.721     10.463
REMARK  Name = 
REMARK  4 active torsions:
REMARK  status: ('A' for Active; 'I' for Inactive)
REMARK    1  A    between atoms: C_1  and  C_2
REMARK    2  A    between atoms: C_4  and  C_5
REMARK    3  A    between atoms: C_6  and  C_7
REMARK    4  A    between atoms: N_11  and  C_12
REMARK                            x       y       z     vdW  Elec       q    Type
REMARK                         _______ _______ _______ _____ _____    ______ ____
ROOT
ATOM      1  C   UNL     1       7.063   7.546  17.675  0.00  0.00    +0.000 A 
ATOM      2  C   UNL     1       7.647   6.292  17.616  0.00  0.00    +0.000 A 
ATOM      3  C   UNL     1       6.837   5.166  17.430  0.00  0.00    +0.000 A 
ATOM      4  C   UNL     1       5.449   5.297  17.305  0.00  0.00    +0.000 A 
ATOM      5  N   UNL     1       4.628   4.171  17.133  0.00  0.00    +0.000 N 
ATOM      6  C   UNL     1       5.138   3.060  16.332  0.00  0.00    +0.000 C 
ATOM      7  C   UNL     1       3.417   3.873  17.803  0.00  0.00    +0.000 A 
ATOM      8  C   UNL     1       2.879   4.734  18.763  0.00  0.00    +0.000 A 
ATOM      9  C   UNL     1       1.752   4.365  19.499  0.00  0.00    +0.000 A 
ATOM     10  C   UNL     1       1.158   3.138  19.260  0.00  0.00    +0.000 A 
ATOM     11  C   UNL     1       1.713   2.343  18.278  0.00  0.00    +0.000 A 
ATOM     12  N   UNL     1       2.810   2.680  17.563  0.00  0.00    +0.000 NA
ATOM     13  N   UNL     1       4.885   6.528  17.379  0.00  0.00    +0.000 NA
ATOM     14  C   UNL     1       5.685   7.610  17.557  0.00  0.00    +0.000 A 
ENDROOT
BRANCH   1  16
ATOM     15  C   UNL     1       8.510   9.717  18.009  0.00  0.00    +0.000 C 
ATOM     16  C   UNL     1       7.856   8.725  17.838  0.00  0.00    +0.000 C 
BRANCH  15  20
ATOM     17  C   UNL     1      12.329  12.215  19.775  0.00  0.00    +0.000 C 
ATOM     18  C   UNL     1      11.042  11.945  19.076  0.00  0.00    +0.000 A 
ATOM     19  N   UNL     1      10.469  10.761  18.983  0.00  0.00    +0.000 NA
ATOM     20  C   UNL     1       9.299  10.879  18.264  0.00  0.00    +0.000 A 
ATOM     21  C   UNL     1       8.984  12.142  17.819  0.00  0.00    +0.000 A 
ATOM     22  S   UNL     1      10.200  13.241  18.314  0.00  0.00    +0.000 S 
ENDBRANCH  15  20
ENDBRANCH   1  16
TORSDOF 2
ENDMDL
MODEL 4
REMARK VINA RESULT:      -7.4      1.473      2.623
REMARK  Name = 
REMARK  4 active torsions:
REMARK  status: ('A' for Active; 'I' for Inactive)
REMARK    1  A    between atoms: C_1  and  C_2
REMARK    2  A    between atoms: C_4  and  C_5
REMARK    3  A    between atoms: C_6  and  C_7
REMARK    4  A    between atoms: N_11  and  C_12
REMARK                            x       y       z     vdW  Elec       q    Type
REMARK                         _______ _______ _______ _____ _____    ______ ____
ROOT
ATOM      1  C   UNL     1       9.055  10.973  18.408  0.00  0.00    +0.000 A 
ATOM      2  C   UNL     1       8.663  12.015  17.583  0.00  0.00    +0.000 A 
ATOM      3  C   UNL     1       9.182  13.295  17.802  0.00  0.00    +0.000 A 
ATOM      4  C   UNL     1      10.089  13.530  18.842  0.00  0.00    +0.000 A 
ATOM      5  N   UNL     1      10.604  14.816  19.077  0.00  0.00    +0.000 N 
ATOM      6  C   UNL     1      10.872  15.674  17.925  0.00  0.00    +0.000 C 
ATOM      7  C   UNL     1      10.725  15.485  20.318  0.00  0.00    +0.000 A 
ATOM      8  C   UNL     1      10.323  14.888  21.516  0.00  0.00    +0.000 A 
ATOM      9  C   UNL     1      10.335  15.609  22.710  0.00  0.00    +0.000 A 
ATOM     10  C   UNL     1      10.766  16.924  22.704  0.00  0.00    +0.000 A 
ATOM     11  C   UNL     1      11.183  17.451  21.499  0.00  0.00    +0.000 A 
ATOM     12  N   UNL     1      11.167  16.771  20.330  0.00  0.00    +0.000 NA
ATOM     13  N   UNL     1      10.456  12.507  19.653  0.00  0.00    +0.000 NA
ATOM     14  C   UNL     1       9.944  11.270  19.426  0.00  0.00    +0.000 A 
ENDROOT
BRANCH   1  16
ATOM     15  C   UNL     1       8.129   8.542  18.016  0.00  0.00    +0.000 C 
ATOM     16  C   UNL     1       8.568   9.644  18.203  0.00  0.00    +0.000 C 
BRANCH  15  20
ATOM     17  C   UNL     1       5.712   5.178  15.411  0.00  0.00    +0.000 C 
ATOM     18  C   UNL     1       6.497   5.782  16.524  0.00  0.00    +0.000 A 
ATOM     19  N   UNL     1       6.878   7.043  16.580  0.00  0.00    +0.000 NA
ATOM     20  C   UNL     1       7.588   7.250  17.743  0.00  0.00    +0.000 A 
ATOM     21  C   UNL     1       7.741   6.157  18.565  0.00  0.00    +0.000 A 
ATOM     22  S   UNL     1       6.967   4.802  17.861  0.00  0.00    +0.000 S 
ENDBRANCH  15  20
ENDBRANCH   1  16
TORSDOF 2
ENDMDL
MODEL 5
REMARK VINA RESULT:      -7.3      1.661      1.993
REMARK  Name = 
REMARK  4 active torsions:
REMARK  status: ('A' for Active; 'I' for Inactive)
REMARK    1  A    between atoms: C_1  and  C_2
REMARK    2  A    between atoms: C_4  and  C_5
REMARK    3  A    between atoms: C_6  and  C_7
REMARK    4  A    between atoms: N_11  and  C_12
REMARK                            x       y       z     vdW  Elec       q    Type
REMARK                         _______ _______ _______ _____ _____    ______ ____
ROOT
ATOM      1  C   UNL     1       9.288  10.843  18.440  0.00  0.00    +0.000 A 
ATOM      2  C   UNL     1      10.447  11.220  17.780  0.00  0.00    +0.000 A 
ATOM      3  C   UNL     1      10.981  12.493  18.006  0.00  0.00    +0.000 A 
ATOM      4  C   UNL     1      10.358  13.383  18.889  0.00  0.00    +0.000 A 
ATOM      5  N   UNL     1      10.881  14.668  19.110  0.00  0.00    +0.000 N 
ATOM      6  C   UNL     1      12.333  14.831  19.117  0.00  0.00    +0.000 C 
ATOM      7  C   UNL     1      10.176  15.895  19.141  0.00  0.00    +0.000 A 
ATOM      8  C   UNL     1       8.793  15.951  18.946  0.00  0.00    +0.000 A 
ATOM      9  C   UNL     1       8.137  17.179  18.856  0.00  0.00    +0.000 A 
ATOM     10  C   UNL     1       8.866  18.349  18.977  0.00  0.00    +0.000 A 
ATOM     11  C   UNL     1      10.223  18.232  19.200  0.00  0.00    +0.000 A 
ATOM     12  N   UNL     1      10.878  17.052  19.280  0.00  0.00    +0.000 NA
ATOM     13  N   UNL     1       9.217  13.010  19.519  0.00  0.00    +0.000 NA
ATOM     14  C   UNL     1       8.712  11.771  19.289  0.00  0.00    +0.000 A 
ENDROOT
BRANCH   1  16
ATOM     15  C   UNL     1       8.255   8.453  18.067  0.00  0.00    +0.000 C 
ATOM     16  C   UNL     1       8.722   9.543  18.256  0.00  0.00    +0.000 C 
BRANCH  15  20
ATOM     17  C   UNL     1       6.569   4.800  15.282  0.00  0.00    +0.000 C 
ATOM     18  C   UNL     1       6.998   5.542  16.500  0.00  0.00    +0.000 A 
ATOM     19  N   UNL     1       7.427   6.788  16.512  0.00  0.00    +0.000 NA
ATOM     20  C   UNL     1       7.741   7.147  17.805  0.00  0.00    +0.000 A 
ATOM     21  C   UNL     1       7.548   6.183  18.768  0.00  0.00    +0.000 A 
ATOM     22  S   UNL     1       6.948   4.758  18.034  0.00  0.00    +0.000 S 
ENDBRANCH  15  20
ENDBRANCH   1  16
TORSDOF 2
ENDMDL
MODEL 6
REMARK VINA RESULT:      -7.3      3.554     10.277
REMARK  Name = 
REMARK  4 active torsions:
REMARK  status: ('A' for Active; 'I' for Inactive)
REMARK    1  A    between atoms: C_1  and  C_2
REMARK    2  A    between atoms: C_4  and  C_5
REMARK    3  A    between atoms: C_6  and  C_7
REMARK    4  A    between atoms: N_11  and  C_12
REMARK                            x       y       z     vdW  Elec       q    Type
REMARK                         _______ _______ _______ _____ _____    ______ ____
ROOT
ATOM      1  C   UNL     1       7.341   7.755  17.781  0.00  0.00    +0.000 A 
ATOM      2  C   UNL     1       7.883   6.484  17.682  0.00  0.00    +0.000 A 
ATOM      3  C   UNL     1       7.041   5.399  17.414  0.00  0.00    +0.000 A 
ATOM      4  C   UNL     1       5.664   5.587  17.245  0.00  0.00    +0.000 A 
ATOM      5  N   UNL     1       4.811   4.501  16.989  0.00  0.00    +0.000 N 
ATOM      6  C   UNL     1       5.311   3.411  16.154  0.00  0.00    +0.000 C 
ATOM      7  C   UNL     1       3.565   4.218  17.599  0.00  0.00    +0.000 A 
ATOM      8  C   UNL     1       3.022   5.052  18.579  0.00  0.00    +0.000 A 
ATOM      9  C   UNL     1       1.856   4.691  19.255  0.00  0.00    +0.000 A 
ATOM     10  C   UNL     1       1.228   3.500  18.936  0.00  0.00    +0.000 A 
ATOM     11  C   UNL     1       1.792   2.731  17.938  0.00  0.00    +0.000 A 
ATOM     12  N   UNL     1       2.926   3.060  17.280  0.00  0.00    +0.000 NA
ATOM     13  N   UNL     1       5.141   6.833  17.357  0.00  0.00    +0.000 NA
ATOM     14  C   UNL     1       5.972   7.875  17.616  0.00  0.00    +0.000 A 
ENDROOT
BRANCH   1  16
ATOM     15  C   UNL     1       8.834   9.869  18.250  0.00  0.00    +0.000 C 
ATOM     16  C   UNL     1       8.168   8.894  18.029  0.00  0.00    +0.000 C 
BRANCH  15  20
ATOM     17  C   UNL     1      11.385  13.925  17.259  0.00  0.00    +0.000 C 
ATOM     18  C   UNL     1      10.727  12.850  18.053  0.00  0.00    +0.000 A 
ATOM     19  N   UNL     1      10.080  11.822  17.539  0.00  0.00    +0.000 NA
ATOM     20  C   UNL     1       9.597  11.035  18.562  0.00  0.00    +0.000 A 
ATOM     21  C   UNL     1       9.878  11.458  19.840  0.00  0.00    +0.000 A 
ATOM     22  S   UNL     1      10.787  12.907  19.773  0.00  0.00    +0.000 S 
ENDBRANCH  15  20
ENDBRANCH   1  16
TORSDOF 2
ENDMDL
MODEL 7
REMARK VINA RESULT:      -7.3      1.133      1.326
REMARK  Name = 
REMARK  4 active torsions:
REMARK  status: ('A' for Active; 'I' for Inactive)
REMARK    1  A    between atoms: C_1  and  C_2
REMARK    2  A    between atoms: C_4  and  C_5
REMARK    3  A    between atoms: C_6  and  C_7
REMARK    4  A    between atoms: N_11  and  C_12
REMARK                            x       y       z     vdW  Elec       q    Type
REMARK                         _______ _______ _______ _____ _____    ______ ____
ROOT
ATOM      1  C   UNL     1       8.478   9.660  18.272  0.00  0.00    +0.000 A 
ATOM      2  C   UNL     1       9.284   9.686  19.399  0.00  0.00    +0.000 A 
ATOM      3  C   UNL     1       9.814  10.904  19.835  0.00  0.00    +0.000 A 
ATOM      4  C   UNL     1       9.540  12.091  19.145  0.00  0.00    +0.000 A 
ATOM      5  N   UNL     1      10.081  13.317  19.568  0.00  0.00    +0.000 N 
ATOM      6  C   UNL     1      10.224  13.550  21.004  0.00  0.00    +0.000 C 
ATOM      7  C   UNL     1      10.699  14.310  18.771  0.00  0.00    +0.000 A 
ATOM      8  C   UNL     1      10.836  14.161  17.389  0.00  0.00    +0.000 A 
ATOM      9  C   UNL     1      11.557  15.092  16.641  0.00  0.00    +0.000 A 
ATOM     10  C   UNL     1      12.127  16.179  17.279  0.00  0.00    +0.000 A 
ATOM     11  C   UNL     1      11.933  16.292  18.640  0.00  0.00    +0.000 A 
ATOM     12  N   UNL     1      11.247  15.395  19.383  0.00  0.00    +0.000 NA
ATOM     13  N   UNL     1       8.762  12.054  18.035  0.00  0.00    +0.000 NA
ATOM     14  C   UNL     1       8.254  10.864  17.626  0.00  0.00    +0.000 A 
ENDROOT
BRANCH   1  16
ATOM     15  C   UNL     1       7.374   7.424  17.435  0.00  0.00    +0.000 C 
ATOM     16  C   UNL     1       7.895   8.441  17.807  0.00  0.00    +0.000 C 
BRANCH  15  20
ATOM     17  C   UNL     1       3.738   4.155  17.251  0.00  0.00    +0.000 C 
ATOM     18  C   UNL     1       5.038   4.814  16.945  0.00  0.00    +0.000 A 
ATOM     19  N   UNL     1       5.476   5.919  17.516  0.00  0.00    +0.000 NA
ATOM     20  C   UNL     1       6.707   6.244  16.988  0.00  0.00    +0.000 A 
ATOM     21  C   UNL     1       7.202   5.392  16.028  0.00  0.00    +0.000 A 
ATOM     22  S   UNL     1       6.084   4.122  15.764  0.00  0.00    +0.000 S 
ENDBRANCH  15  20
ENDBRANCH   1  16
TORSDOF 2
ENDMDL
MODEL 8
REMARK VINA RESULT:      -7.2      3.353      9.850
REMARK  Name = 
REMARK  4 active torsions:
REMARK  status: ('A' for Active; 'I' for Inactive)
REMARK    1  A    between atoms: C_1  and  C_2
REMARK    2  A    between atoms: C_4  and  C_5
REMARK    3  A    between atoms: C_6  and  C_7
REMARK    4  A    between atoms: N_11  and  C_12
REMARK                            x       y       z     vdW  Elec       q    Type
REMARK                         _______ _______ _______ _____ _____    ______ ____
ROOT
ATOM      1  C   UNL     1       8.125   8.797  18.104  0.00  0.00    +0.000 A 
ATOM      2  C   UNL     1       8.542   7.617  18.699  0.00  0.00    +0.000 A 
ATOM      3  C   UNL     1       7.813   6.443  18.479  0.00  0.00    +0.000 A 
ATOM      4  C   UNL     1       6.674   6.452  17.666  0.00  0.00    +0.000 A 
ATOM      5  N   UNL     1       5.928   5.280  17.452  0.00  0.00    +0.000 N 
ATOM      6  C   UNL     1       6.648   4.011  17.356  0.00  0.00    +0.000 C 
ATOM      7  C   UNL     1       4.522   5.127  17.505  0.00  0.00    +0.000 A 
ATOM      8  C   UNL     1       3.678   6.204  17.790  0.00  0.00    +0.000 A 
ATOM      9  C   UNL     1       2.307   6.007  17.960  0.00  0.00    +0.000 A 
ATOM     10  C   UNL     1       1.783   4.733  17.829  0.00  0.00    +0.000 A 
ATOM     11  C   UNL     1       2.659   3.714  17.516  0.00  0.00    +0.000 A 
ATOM     12  N   UNL     1       3.991   3.884  17.358  0.00  0.00    +0.000 NA
ATOM     13  N   UNL     1       6.265   7.614  17.100  0.00  0.00    +0.000 NA
ATOM     14  C   UNL     1       6.984   8.744  17.322  0.00  0.00    +0.000 A 
ENDROOT
BRANCH   1  16
ATOM     15  C   UNL     1       9.494  11.021  18.412  0.00  0.00    +0.000 C 
ATOM     16  C   UNL     1       8.854  10.013  18.282  0.00  0.00    +0.000 C 
BRANCH  15  20
ATOM     17  C   UNL     1      11.061  15.161  20.499  0.00  0.00    +0.000 C 
ATOM     18  C   UNL     1      10.940  14.059  19.504  0.00  0.00    +0.000 A 
ATOM     19  N   UNL     1      10.110  13.040  19.604  0.00  0.00    +0.000 NA
ATOM     20  C   UNL     1      10.272  12.213  18.513  0.00  0.00    +0.000 A 
ATOM     21  C   UNL     1      11.215  12.604  17.590  0.00  0.00    +0.000 A 
ATOM     22  S   UNL     1      11.939  14.069  18.100  0.00  0.00    +0.000 S 
ENDBRANCH  15  20
ENDBRANCH   1  16
TORSDOF 2
ENDMDL
MODEL 9
REMARK VINA RESULT:      -7.0      9.421     10.932
REMARK  Name = 
REMARK  4 active torsions:
REMARK  status: ('A' for Active; 'I' for Inactive)
REMARK    1  A    between atoms: C_1  and  C_2
REMARK    2  A    between atoms: C_4  and  C_5
REMARK    3  A    between atoms: C_6  and  C_7
REMARK    4  A    between atoms: N_11  and  C_12
REMARK                            x       y       z     vdW  Elec       q    Type
REMARK                         _______ _______ _______ _____ _____    ______ ____
ROOT
ATOM      1  C   UNL     1       0.631   9.120  21.443  0.00  0.00    +0.000 A 
ATOM      2  C   UNL     1       0.725  10.156  20.527  0.00  0.00    +0.000 A 
ATOM      3  C   UNL     1       0.268  11.429  20.883  0.00  0.00    +0.000 A 
ATOM      4  C   UNL     1      -0.280  11.663  22.150  0.00  0.00    +0.000 A 
ATOM      5  N   UNL     1      -0.754  12.936  22.510  0.00  0.00    +0.000 N 
ATOM      6  C   UNL     1      -0.038  14.108  22.008  0.00  0.00    +0.000 C 
ATOM      7  C   UNL     1      -1.974  13.254  23.153  0.00  0.00    +0.000 A 
ATOM      8  C   UNL     1      -2.887  12.264  23.526  0.00  0.00    +0.000 A 
ATOM      9  C   UNL     1      -4.135  12.607  24.046  0.00  0.00    +0.000 A 
ATOM     10  C   UNL     1      -4.460  13.942  24.205  0.00  0.00    +0.000 A 
ATOM     11  C   UNL     1      -3.508  14.875  23.851  0.00  0.00    +0.000 A 
ATOM     12  N   UNL     1      -2.298  14.563  23.336  0.00  0.00    +0.000 NA
ATOM     13  N   UNL     1      -0.381  10.641  23.034  0.00  0.00    +0.000 NA
ATOM     14  C   UNL     1       0.069   9.411  22.674  0.00  0.00    +0.000 A 
ENDROOT
BRANCH   1  16
ATOM     15  C   UNL     1       1.501   6.714  20.831  0.00  0.00    +0.000 C 
ATOM     16  C   UNL     1       1.109   7.810  21.129  0.00  0.00    +0.000 C 
BRANCH  15  20
ATOM     17  C   UNL     1       4.781   3.542  19.064  0.00  0.00    +0.000 C 
ATOM     18  C   UNL     1       3.504   4.057  19.633  0.00  0.00    +0.000 A 
ATOM     19  N   UNL     1       3.259   5.322  19.911  0.00  0.00    +0.000 NA
ATOM     20  C   UNL     1       1.986   5.434  20.428  0.00  0.00    +0.000 A 
ATOM     21  C   UNL     1       1.269   4.265  20.537  0.00  0.00    +0.000 A 
ATOM     22  S   UNL     1       2.221   2.959  19.972  0.00  0.00    +0.000 S 
ENDBRANCH  15  20
ENDBRANCH   1  16
TORSDOF 2
ENDMDL
