MODEL 1
REMARK VINA RESULT:      -7.1      0.000      0.000
REMARK  Name = 
REMARK  11 active torsions:
REMARK  status: ('A' for Active; 'I' for Inactive)
REMARK    1  A    between atoms: C_1  and  C_2
REMARK    2  A    between atoms: C_2  and  C_3
REMARK    3  A    between atoms: C_2  and  C_4
REMARK    4  A    between atoms: C_2  and  C_5
REMARK    5  A    between atoms: C_7  and  C_8
REMARK    6  A    between atoms: N_12  and  O_13
REMARK    7  A    between atoms: C_18  and  C_19
REMARK    8  A    between atoms: C_19  and  C_20
REMARK    9  A    between atoms: C_19  and  C_21
REMARK   10  A    between atoms: C_19  and  C_22
REMARK   11  A    between atoms: C_23  and  O_24
REMARK                            x       y       z     vdW  Elec       q    Type
REMARK                         _______ _______ _______ _____ _____    ______ ____
ROOT
ATOM      1  C   UNL     1       3.119   4.430  19.157  0.00  0.00    +0.000 A 
ATOM      2  C   UNL     1       2.381   5.595  18.856  0.00  0.00    +0.000 A 
ATOM      3  C   UNL     1       3.002   6.768  18.425  0.00  0.00    +0.000 A 
ATOM      4  C   UNL     1       4.384   6.788  18.241  0.00  0.00    +0.000 A 
ATOM      5  C   UNL     1       5.183   5.643  18.438  0.00  0.00    +0.000 A 
ATOM      6  C   UNL     1       4.521   4.502  18.950  0.00  0.00    +0.000 A 
ENDROOT
BRANCH   3   7
ATOM      7  C   UNL     1       2.201   7.951  18.071  0.00  0.00    +0.000 C 
ATOM      8  C   UNL     1       1.424   8.694  18.874  0.00  0.00    +0.000 C 
ATOM      9  C   UNL     1       0.678   9.935  18.471  0.00  0.00    +0.000 C 
ATOM     10  C   UNL     1       0.666  10.855  19.697  0.00  0.00    +0.000 C 
ATOM     11  N   UNL     1       0.454   9.999  20.898  0.00  0.00    +0.000 NA
ATOM     12  S   UNL     1       1.191   8.430  20.574  0.00  0.00    +0.000 S 
ATOM     13  O   UNL     1       0.165   7.437  20.802  0.00  0.00    +0.000 OA
ATOM     14  O   UNL     1       2.471   8.388  21.253  0.00  0.00    +0.000 OA
BRANCH  11  15
ATOM     15  O   UNL     1       1.042  10.538  22.107  0.00  0.00    +0.000 OA
ATOM     16  H   UNL     1       1.956  10.774  21.860  0.00  0.00    +0.000 HD
ENDBRANCH  11  15
ENDBRANCH   3   7
BRANCH   1  18
ATOM     17  C   UNL     1       0.869   3.318  19.791  0.00  0.00    +0.000 C 
ATOM     18  C   UNL     1       2.408   3.154  19.680  0.00  0.00    +0.000 C 
ATOM     19  C   UNL     1       2.895   2.778  21.098  0.00  0.00    +0.000 C 
ATOM     20  C   UNL     1       2.635   1.950  18.734  0.00  0.00    +0.000 C 
ENDBRANCH   1  18
BRANCH   5  21
ATOM     21  C   UNL     1       6.701   5.720  18.124  0.00  0.00    +0.000 C 
ATOM     22  C   UNL     1       7.488   5.670  19.447  0.00  0.00    +0.000 C 
ATOM     23  C   UNL     1       7.213   4.592  17.196  0.00  0.00    +0.000 C 
ATOM     24  C   UNL     1       7.082   7.035  17.387  0.00  0.00    +0.000 C 
ENDBRANCH   5  21
BRANCH   6  25
ATOM     25  O   UNL     1       5.271   3.412  19.298  0.00  0.00    +0.000 OA
ATOM     26  H   UNL     1       5.580   3.578  20.204  0.00  0.00    +0.000 HD
ENDBRANCH   6  25
TORSDOF 5
ENDMDL
MODEL 2
REMARK VINA RESULT:      -7.1      0.189      1.283
REMARK  Name = 
REMARK  11 active torsions:
REMARK  status: ('A' for Active; 'I' for Inactive)
REMARK    1  A    between atoms: C_1  and  C_2
REMARK    2  A    between atoms: C_2  and  C_3
REMARK    3  A    between atoms: C_2  and  C_4
REMARK    4  A    between atoms: C_2  and  C_5
REMARK    5  A    between atoms: C_7  and  C_8
REMARK    6  A    between atoms: N_12  and  O_13
REMARK    7  A    between atoms: C_18  and  C_19
REMARK    8  A    between atoms: C_19  and  C_20
REMARK    9  A    between atoms: C_19  and  C_21
REMARK   10  A    between atoms: C_19  and  C_22
REMARK   11  A    between atoms: C_23  and  O_24
REMARK                            x       y       z     vdW  Elec       q    Type
REMARK                         _______ _______ _______ _____ _____    ______ ____
ROOT
ATOM      1  C   UNL     1       3.178   4.377  18.985  0.00  0.00    +0.000 A 
ATOM      2  C   UNL     1       2.421   5.535  18.711  0.00  0.00    +0.000 A 
ATOM      3  C   UNL     1       3.024   6.738  18.339  0.00  0.00    +0.000 A 
ATOM      4  C   UNL     1       4.409   6.795  18.187  0.00  0.00    +0.000 A 
ATOM      5  C   UNL     1       5.230   5.661  18.359  0.00  0.00    +0.000 A 
ATOM      6  C   UNL     1       4.583   4.487  18.813  0.00  0.00    +0.000 A 
ENDROOT
BRANCH   3   7
ATOM      7  C   UNL     1       2.204   7.915  18.010  0.00  0.00    +0.000 C 
ATOM      8  C   UNL     1       1.434   8.642  18.834  0.00  0.00    +0.000 C 
ATOM      9  C   UNL     1       0.668   9.879  18.456  0.00  0.00    +0.000 C 
ATOM     10  C   UNL     1       0.668  10.787  19.692  0.00  0.00    +0.000 C 
ATOM     11  N   UNL     1       0.486   9.916  20.888  0.00  0.00    +0.000 NA
ATOM     12  S   UNL     1       1.234   8.359  20.536  0.00  0.00    +0.000 S 
ATOM     13  O   UNL     1       0.223   7.353  20.771  0.00  0.00    +0.000 OA
ATOM     14  O   UNL     1       2.527   8.324  21.191  0.00  0.00    +0.000 OA
BRANCH  11  15
ATOM     15  O   UNL     1       1.090  10.450  22.091  0.00  0.00    +0.000 OA
ATOM     16  H   UNL     1       1.587  11.237  21.798  0.00  0.00    +0.000 HD
ENDBRANCH  11  15
ENDBRANCH   3   7
BRANCH   1  18
ATOM     17  C   UNL     1       2.963   1.818  18.656  0.00  0.00    +0.000 C 
ATOM     18  C   UNL     1       2.485   3.066  19.444  0.00  0.00    +0.000 C 
ATOM     19  C   UNL     1       0.954   3.135  19.236  0.00  0.00    +0.000 C 
ATOM     20  C   UNL     1       2.777   2.761  20.933  0.00  0.00    +0.000 C 
ENDBRANCH   1  18
BRANCH   5  21
ATOM     21  C   UNL     1       6.752   5.783  18.084  0.00  0.00    +0.000 C 
ATOM     22  C   UNL     1       7.027   7.126  17.384  0.00  0.00    +0.000 C 
ATOM     23  C   UNL     1       7.634   5.691  19.352  0.00  0.00    +0.000 C 
ATOM     24  C   UNL     1       7.274   4.645  17.162  0.00  0.00    +0.000 C 
ENDBRANCH   5  21
BRANCH   6  25
ATOM     25  O   UNL     1       5.349   3.401  19.137  0.00  0.00    +0.000 OA
ATOM     26  H   UNL     1       5.248   2.773  18.404  0.00  0.00    +0.000 HD
ENDBRANCH   6  25
TORSDOF 5
ENDMDL
MODEL 3
REMARK VINA RESULT:      -7.1      0.098      1.263
REMARK  Name = 
REMARK  11 active torsions:
REMARK  status: ('A' for Active; 'I' for Inactive)
REMARK    1  A    between atoms: C_1  and  C_2
REMARK    2  A    between atoms: C_2  and  C_3
REMARK    3  A    between atoms: C_2  and  C_4
REMARK    4  A    between atoms: C_2  and  C_5
REMARK    5  A    between atoms: C_7  and  C_8
REMARK    6  A    between atoms: N_12  and  O_13
REMARK    7  A    between atoms: C_18  and  C_19
REMARK    8  A    between atoms: C_19  and  C_20
REMARK    9  A    between atoms: C_19  and  C_21
REMARK   10  A    between atoms: C_19  and  C_22
REMARK   11  A    between atoms: C_23  and  O_24
REMARK                            x       y       z     vdW  Elec       q    Type
REMARK                         _______ _______ _______ _____ _____    ______ ____
ROOT
ATOM      1  C   UNL     1       3.129   4.446  19.071  0.00  0.00    +0.000 A 
ATOM      2  C   UNL     1       2.377   5.602  18.773  0.00  0.00    +0.000 A 
ATOM      3  C   UNL     1       2.983   6.785  18.348  0.00  0.00    +0.000 A 
ATOM      4  C   UNL     1       4.365   6.825  18.168  0.00  0.00    +0.000 A 
ATOM      5  C   UNL     1       5.179   5.689  18.362  0.00  0.00    +0.000 A 
ATOM      6  C   UNL     1       4.531   4.537  18.868  0.00  0.00    +0.000 A 
ENDROOT
BRANCH   3   7
ATOM      7  C   UNL     1       2.167   7.958  17.995  0.00  0.00    +0.000 C 
ATOM      8  C   UNL     1       1.394   8.701  18.803  0.00  0.00    +0.000 C 
ATOM      9  C   UNL     1       0.633   9.933  18.401  0.00  0.00    +0.000 C 
ATOM     10  C   UNL     1       0.629  10.862  19.621  0.00  0.00    +0.000 C 
ATOM     11  N   UNL     1       0.440  10.012  20.831  0.00  0.00    +0.000 NA
ATOM     12  S   UNL     1       1.187   8.448  20.509  0.00  0.00    +0.000 S 
ATOM     13  O   UNL     1       0.172   7.447  20.757  0.00  0.00    +0.000 OA
ATOM     14  O   UNL     1       2.476   8.421  21.170  0.00  0.00    +0.000 OA
BRANCH  11  15
ATOM     15  O   UNL     1       1.040  10.565  22.028  0.00  0.00    +0.000 OA
ATOM     16  H   UNL     1       0.722  10.000  22.756  0.00  0.00    +0.000 HD
ENDBRANCH  11  15
ENDBRANCH   3   7
BRANCH   1  18
ATOM     17  C   UNL     1       2.984   2.677  20.956  0.00  0.00    +0.000 C 
ATOM     18  C   UNL     1       2.434   3.158  19.588  0.00  0.00    +0.000 C 
ATOM     19  C   UNL     1       2.637   1.977  18.611  0.00  0.00    +0.000 C 
ATOM     20  C   UNL     1       0.916   3.380  19.800  0.00  0.00    +0.000 C 
ENDBRANCH   1  18
BRANCH   5  21
ATOM     21  C   UNL     1       6.696   5.787  18.053  0.00  0.00    +0.000 C 
ATOM     22  C   UNL     1       7.095   4.622  17.129  0.00  0.00    +0.000 C 
ATOM     23  C   UNL     1       7.123   7.119  17.390  0.00  0.00    +0.000 C 
ATOM     24  C   UNL     1       7.564   5.698  19.340  0.00  0.00    +0.000 C 
ENDBRANCH   5  21
BRANCH   6  25
ATOM     25  O   UNL     1       5.294   3.456  19.214  0.00  0.00    +0.000 OA
ATOM     26  H   UNL     1       6.145   3.815  19.515  0.00  0.00    +0.000 HD
ENDBRANCH   6  25
TORSDOF 5
ENDMDL
MODEL 4
REMARK VINA RESULT:      -7.0      0.189      3.798
REMARK  Name = 
REMARK  11 active torsions:
REMARK  status: ('A' for Active; 'I' for Inactive)
REMARK    1  A    between atoms: C_1  and  C_2
REMARK    2  A    between atoms: C_2  and  C_3
REMARK    3  A    between atoms: C_2  and  C_4
REMARK    4  A    between atoms: C_2  and  C_5
REMARK    5  A    between atoms: C_7  and  C_8
REMARK    6  A    between atoms: N_12  and  O_13
REMARK    7  A    between atoms: C_18  and  C_19
REMARK    8  A    between atoms: C_19  and  C_20
REMARK    9  A    between atoms: C_19  and  C_21
REMARK   10  A    between atoms: C_19  and  C_22
REMARK   11  A    between atoms: C_23  and  O_24
REMARK                            x       y       z     vdW  Elec       q    Type
REMARK                         _______ _______ _______ _____ _____    ______ ____
ROOT
ATOM      1  C   UNL     1       5.168   5.722  18.330  0.00  0.00    +0.000 A 
ATOM      2  C   UNL     1       4.364   6.846  18.048  0.00  0.00    +0.000 A 
ATOM      3  C   UNL     1       2.977   6.815  18.199  0.00  0.00    +0.000 A 
ATOM      4  C   UNL     1       2.363   5.661  18.684  0.00  0.00    +0.000 A 
ATOM      5  C   UNL     1       3.103   4.523  19.068  0.00  0.00    +0.000 A 
ATOM      6  C   UNL     1       4.495   4.574  18.822  0.00  0.00    +0.000 A 
ENDROOT
BRANCH   3   7
ATOM      7  C   UNL     1       2.171   8.020  17.947  0.00  0.00    +0.000 C 
ATOM      8  C   UNL     1       1.425   8.715  18.821  0.00  0.00    +0.000 C 
ATOM      9  C   UNL     1       0.673   9.981  18.522  0.00  0.00    +0.000 C 
ATOM     10  C   UNL     1       0.708  10.822  19.804  0.00  0.00    +0.000 C 
ATOM     11  N   UNL     1       0.531   9.892  20.955  0.00  0.00    +0.000 NA
ATOM     12  S   UNL     1       1.249   8.345  20.509  0.00  0.00    +0.000 S 
ATOM     13  O   UNL     1       0.225   7.343  20.708  0.00  0.00    +0.000 OA
ATOM     14  O   UNL     1       2.551   8.256  21.139  0.00  0.00    +0.000 OA
BRANCH  11  15
ATOM     15  O   UNL     1       1.164  10.353  22.175  0.00  0.00    +0.000 OA
ATOM     16  H   UNL     1       1.965   9.805  22.267  0.00  0.00    +0.000 HD
ENDBRANCH  11  15
ENDBRANCH   3   7
BRANCH   1  18
ATOM     17  C   UNL     1       7.183   7.094  17.458  0.00  0.00    +0.000 C 
ATOM     18  C   UNL     1       6.704   5.769  18.106  0.00  0.00    +0.000 C 
ATOM     19  C   UNL     1       7.170   4.641  17.157  0.00  0.00    +0.000 C 
ATOM     20  C   UNL     1       7.475   5.652  19.444  0.00  0.00    +0.000 C 
ENDBRANCH   1  18
BRANCH   5  21
ATOM     21  C   UNL     1       2.355   3.311  19.684  0.00  0.00    +0.000 C 
ATOM     22  C   UNL     1       2.327   2.166  18.654  0.00  0.00    +0.000 C 
ATOM     23  C   UNL     1       2.979   2.784  20.999  0.00  0.00    +0.000 C 
ATOM     24  C   UNL     1       0.886   3.655  20.059  0.00  0.00    +0.000 C 
ENDBRANCH   5  21
BRANCH   6  25
ATOM     25  O   UNL     1       5.239   3.446  19.039  0.00  0.00    +0.000 OA
ATOM     26  H   UNL     1       4.602   2.718  19.127  0.00  0.00    +0.000 HD
ENDBRANCH   6  25
TORSDOF 5
ENDMDL
MODEL 5
REMARK VINA RESULT:      -7.0      0.190      3.741
REMARK  Name = 
REMARK  11 active torsions:
REMARK  status: ('A' for Active; 'I' for Inactive)
REMARK    1  A    between atoms: C_1  and  C_2
REMARK    2  A    between atoms: C_2  and  C_3
REMARK    3  A    between atoms: C_2  and  C_4
REMARK    4  A    between atoms: C_2  and  C_5
REMARK    5  A    between atoms: C_7  and  C_8
REMARK    6  A    between atoms: N_12  and  O_13
REMARK    7  A    between atoms: C_18  and  C_19
REMARK    8  A    between atoms: C_19  and  C_20
REMARK    9  A    between atoms: C_19  and  C_21
REMARK   10  A    between atoms: C_19  and  C_22
REMARK   11  A    between atoms: C_23  and  O_24
REMARK                            x       y       z     vdW  Elec       q    Type
REMARK                         _______ _______ _______ _____ _____    ______ ____
ROOT
ATOM      1  C   UNL     1       5.150   5.719  18.341  0.00  0.00    +0.000 A 
ATOM      2  C   UNL     1       4.346   6.844  18.063  0.00  0.00    +0.000 A 
ATOM      3  C   UNL     1       2.958   6.812  18.210  0.00  0.00    +0.000 A 
ATOM      4  C   UNL     1       2.343   5.654  18.687  0.00  0.00    +0.000 A 
ATOM      5  C   UNL     1       3.083   4.515  19.068  0.00  0.00    +0.000 A 
ATOM      6  C   UNL     1       4.477   4.568  18.826  0.00  0.00    +0.000 A 
ENDROOT
BRANCH   3   7
ATOM      7  C   UNL     1       2.152   8.017  17.961  0.00  0.00    +0.000 C 
ATOM      8  C   UNL     1       1.409   8.711  18.838  0.00  0.00    +0.000 C 
ATOM      9  C   UNL     1       0.657   9.977  18.543  0.00  0.00    +0.000 C 
ATOM     10  C   UNL     1       0.694  10.817  19.826  0.00  0.00    +0.000 C 
ATOM     11  N   UNL     1       0.521   9.886  20.977  0.00  0.00    +0.000 NA
ATOM     12  S   UNL     1       1.237   8.338  20.526  0.00  0.00    +0.000 S 
ATOM     13  O   UNL     1       0.213   7.336  20.727  0.00  0.00    +0.000 OA
ATOM     14  O   UNL     1       2.540   8.248  21.153  0.00  0.00    +0.000 OA
BRANCH  11  15
ATOM     15  O   UNL     1       1.156  10.344  22.195  0.00  0.00    +0.000 OA
ATOM     16  H   UNL     1       0.455  10.318  22.872  0.00  0.00    +0.000 HD
ENDBRANCH  11  15
ENDBRANCH   3   7
BRANCH   1  18
ATOM     17  C   UNL     1       7.209   4.617  17.223  0.00  0.00    +0.000 C 
ATOM     18  C   UNL     1       6.686   5.768  18.123  0.00  0.00    +0.000 C 
ATOM     19  C   UNL     1       7.450   5.639  19.461  0.00  0.00    +0.000 C 
ATOM     20  C   UNL     1       7.117   7.079  17.421  0.00  0.00    +0.000 C 
ENDBRANCH   1  18
BRANCH   5  21
ATOM     21  C   UNL     1       2.335   3.299  19.675  0.00  0.00    +0.000 C 
ATOM     22  C   UNL     1       0.897   3.721  20.027  0.00  0.00    +0.000 C 
ATOM     23  C   UNL     1       2.279   2.062  18.746  0.00  0.00    +0.000 C 
ATOM     24  C   UNL     1       3.015   2.780  20.973  0.00  0.00    +0.000 C 
ENDBRANCH   5  21
BRANCH   6  25
ATOM     25  O   UNL     1       5.220   3.439  19.039  0.00  0.00    +0.000 OA
ATOM     26  H   UNL     1       4.583   2.715  19.151  0.00  0.00    +0.000 HD
ENDBRANCH   6  25
TORSDOF 5
ENDMDL
MODEL 6
REMARK VINA RESULT:      -6.7      1.986      4.326
REMARK  Name = 
REMARK  11 active torsions:
REMARK  status: ('A' for Active; 'I' for Inactive)
REMARK    1  A    between atoms: C_1  and  C_2
REMARK    2  A    between atoms: C_2  and  C_3
REMARK    3  A    between atoms: C_2  and  C_4
REMARK    4  A    between atoms: C_2  and  C_5
REMARK    5  A    between atoms: C_7  and  C_8
REMARK    6  A    between atoms: N_12  and  O_13
REMARK    7  A    between atoms: C_18  and  C_19
REMARK    8  A    between atoms: C_19  and  C_20
REMARK    9  A    between atoms: C_19  and  C_21
REMARK   10  A    between atoms: C_19  and  C_22
REMARK   11  A    between atoms: C_23  and  O_24
REMARK                            x       y       z     vdW  Elec       q    Type
REMARK                         _______ _______ _______ _____ _____    ______ ____
ROOT
ATOM      1  C   UNL     1       4.297   5.675  18.072  0.00  0.00    +0.000 A 
ATOM      2  C   UNL     1       3.689   6.745  18.762  0.00  0.00    +0.000 A 
ATOM      3  C   UNL     1       2.552   6.561  19.551  0.00  0.00    +0.000 A 
ATOM      4  C   UNL     1       2.020   5.281  19.704  0.00  0.00    +0.000 A 
ATOM      5  C   UNL     1       2.618   4.147  19.117  0.00  0.00    +0.000 A 
ATOM      6  C   UNL     1       3.719   4.393  18.263  0.00  0.00    +0.000 A 
ENDROOT
BRANCH   3   7
ATOM      7  C   UNL     1       1.972   7.688  20.299  0.00  0.00    +0.000 C 
ATOM      8  C   UNL     1       1.438   8.818  19.810  0.00  0.00    +0.000 C 
ATOM      9  C   UNL     1       0.797   9.908  20.621  0.00  0.00    +0.000 C 
ATOM     10  C   UNL     1      -0.331  10.488  19.759  0.00  0.00    +0.000 C 
ATOM     11  N   UNL     1       0.165  10.551  18.355  0.00  0.00    +0.000 NA
ATOM     12  S   UNL     1       1.293   9.215  18.126  0.00  0.00    +0.000 S 
ATOM     13  O   UNL     1       2.522   9.794  17.629  0.00  0.00    +0.000 OA
ATOM     14  O   UNL     1       0.598   8.157  17.421  0.00  0.00    +0.000 OA
BRANCH  11  15
ATOM     15  O   UNL     1      -0.885  10.435  17.363  0.00  0.00    +0.000 OA
ATOM     16  H   UNL     1      -0.434  10.141  16.550  0.00  0.00    +0.000 HD
ENDBRANCH  11  15
ENDBRANCH   3   7
BRANCH   1  18
ATOM     17  C   UNL     1       6.117   7.347  17.300  0.00  0.00    +0.000 C 
ATOM     18  C   UNL     1       5.531   5.917  17.162  0.00  0.00    +0.000 C 
ATOM     19  C   UNL     1       5.172   5.750  15.668  0.00  0.00    +0.000 C 
ATOM     20  C   UNL     1       6.691   4.953  17.512  0.00  0.00    +0.000 C 
ENDBRANCH   1  18
BRANCH   5  21
ATOM     21  C   UNL     1       2.020   2.744  19.408  0.00  0.00    +0.000 C 
ATOM     22  C   UNL     1       0.722   2.576  18.598  0.00  0.00    +0.000 C 
ATOM     23  C   UNL     1       2.971   1.569  19.077  0.00  0.00    +0.000 C 
ATOM     24  C   UNL     1       1.675   2.554  20.912  0.00  0.00    +0.000 C 
ENDBRANCH   5  21
BRANCH   6  25
ATOM     25  O   UNL     1       4.243   3.348  17.553  0.00  0.00    +0.000 OA
ATOM     26  H   UNL     1       3.876   2.542  17.952  0.00  0.00    +0.000 HD
ENDBRANCH   6  25
TORSDOF 5
ENDMDL
MODEL 7
REMARK VINA RESULT:      -6.7      1.980      4.274
REMARK  Name = 
REMARK  11 active torsions:
REMARK  status: ('A' for Active; 'I' for Inactive)
REMARK    1  A    between atoms: C_1  and  C_2
REMARK    2  A    between atoms: C_2  and  C_3
REMARK    3  A    between atoms: C_2  and  C_4
REMARK    4  A    between atoms: C_2  and  C_5
REMARK    5  A    between atoms: C_7  and  C_8
REMARK    6  A    between atoms: N_12  and  O_13
REMARK    7  A    between atoms: C_18  and  C_19
REMARK    8  A    between atoms: C_19  and  C_20
REMARK    9  A    between atoms: C_19  and  C_21
REMARK   10  A    between atoms: C_19  and  C_22
REMARK   11  A    between atoms: C_23  and  O_24
REMARK                            x       y       z     vdW  Elec       q    Type
REMARK                         _______ _______ _______ _____ _____    ______ ____
ROOT
ATOM      1  C   UNL     1       4.377   5.610  18.032  0.00  0.00    +0.000 A 
ATOM      2  C   UNL     1       3.764   6.677  18.724  0.00  0.00    +0.000 A 
ATOM      3  C   UNL     1       2.629   6.486  19.514  0.00  0.00    +0.000 A 
ATOM      4  C   UNL     1       2.104   5.203  19.667  0.00  0.00    +0.000 A 
ATOM      5  C   UNL     1       2.707   4.072  19.078  0.00  0.00    +0.000 A 
ATOM      6  C   UNL     1       3.806   4.325  18.224  0.00  0.00    +0.000 A 
ENDROOT
BRANCH   3   7
ATOM      7  C   UNL     1       2.044   7.609  20.264  0.00  0.00    +0.000 C 
ATOM      8  C   UNL     1       1.494   8.732  19.776  0.00  0.00    +0.000 C 
ATOM      9  C   UNL     1       0.849   9.819  20.589  0.00  0.00    +0.000 C 
ATOM     10  C   UNL     1      -0.292  10.384  19.735  0.00  0.00    +0.000 C 
ATOM     11  N   UNL     1       0.191  10.447  18.326  0.00  0.00    +0.000 NA
ATOM     12  S   UNL     1       1.331   9.122  18.092  0.00  0.00    +0.000 S 
ATOM     13  O   UNL     1       2.550   9.713  17.583  0.00  0.00    +0.000 OA
ATOM     14  O   UNL     1       0.641   8.055  17.396  0.00  0.00    +0.000 OA
BRANCH  11  15
ATOM     15  O   UNL     1      -0.866  10.318  17.344  0.00  0.00    +0.000 OA
ATOM     16  H   UNL     1      -0.407  10.220  16.489  0.00  0.00    +0.000 HD
ENDBRANCH  11  15
ENDBRANCH   3   7
BRANCH   1  18
ATOM     17  C   UNL     1       5.285   5.725  15.611  0.00  0.00    +0.000 C 
ATOM     18  C   UNL     1       5.609   5.859  17.122  0.00  0.00    +0.000 C 
ATOM     19  C   UNL     1       6.734   4.838  17.405  0.00  0.00    +0.000 C 
ATOM     20  C   UNL     1       6.170   7.290  17.306  0.00  0.00    +0.000 C 
ENDBRANCH   1  18
BRANCH   5  21
ATOM     21  C   UNL     1       2.117   2.667  19.369  0.00  0.00    +0.000 C 
ATOM     22  C   UNL     1       1.800   2.559  20.872  0.00  0.00    +0.000 C 
ATOM     23  C   UNL     1       0.837   2.338  18.564  0.00  0.00    +0.000 C 
ATOM     24  C   UNL     1       3.110   1.527  19.005  0.00  0.00    +0.000 C 
ENDBRANCH   5  21
BRANCH   6  25
ATOM     25  O   UNL     1       4.335   3.283  17.512  0.00  0.00    +0.000 OA
ATOM     26  H   UNL     1       4.746   3.678  16.725  0.00  0.00    +0.000 HD
ENDBRANCH   6  25
TORSDOF 5
ENDMDL
