MODEL 1
REMARK VINA RESULT:      -8.0      0.000      0.000
REMARK  Name = 
REMARK  4 active torsions:
REMARK  status: ('A' for Active; 'I' for Inactive)
REMARK    1  A    between atoms: C_1  and  C_2
REMARK    2  A    between atoms: C_2  and  S_3
REMARK    3  A    between atoms: S_3  and  C_4
REMARK    4  A    between atoms: C_6  and  C_7
REMARK                            x       y       z     vdW  Elec       q    Type
REMARK                         _______ _______ _______ _____ _____    ______ ____
ROOT
ATOM      1  C   UNL     1       7.060   5.842  17.318  0.00  0.00    +0.000 A 
ATOM      2  N   UNL     1       5.904   5.290  17.694  0.00  0.00    +0.000 NA
ATOM      3  C   UNL     1       5.194   4.622  16.753  0.00  0.00    +0.000 A 
ATOM      4  C   UNL     1       5.634   4.530  15.414  0.00  0.00    +0.000 A 
ATOM      5  C   UNL     1       4.930   3.951  14.322  0.00  0.00    +0.000 A 
ATOM      6  C   UNL     1       5.524   3.819  13.068  0.00  0.00    +0.000 A 
ATOM      7 CL   UNL     1       4.687   3.015  11.800  0.00  0.00    +0.000 Cl
ATOM      8  C   UNL     1       6.798   4.315  12.857  0.00  0.00    +0.000 A 
ATOM      9  C   UNL     1       7.453   4.968  13.899  0.00  0.00    +0.000 A 
ATOM     10  C   UNL     1       6.895   5.093  15.170  0.00  0.00    +0.000 A 
ATOM     11  N   UNL     1       7.596   5.742  16.098  0.00  0.00    +0.000 NA
ENDROOT
BRANCH   3  12
ATOM     12  C   UNL     1       3.955   3.990  17.281  0.00  0.00    +0.000 A 
ATOM     13  C   UNL     1       2.806   4.764  17.538  0.00  0.00    +0.000 A 
ATOM     14  C   UNL     1       1.619   4.185  18.004  0.00  0.00    +0.000 A 
ATOM     15  C   UNL     1       1.547   2.812  18.213  0.00  0.00    +0.000 A 
ATOM     16  C   UNL     1       2.674   2.025  18.007  0.00  0.00    +0.000 A 
ATOM     17  C   UNL     1       3.869   2.617  17.583  0.00  0.00    +0.000 A 
ENDBRANCH   3  12
BRANCH   1  18
ATOM     18  S   UNL     1       7.931   6.847  18.490  0.00  0.00    +0.000 S 
BRANCH  18  20
ATOM     19  C   UNL     1       8.615   9.488  18.403  0.00  0.00    +0.000 C 
ATOM     20  C   UNL     1       7.862   8.432  17.612  0.00  0.00    +0.000 C 
ENDBRANCH  18  20
ENDBRANCH   1  18
TORSDOF 3
ENDMDL
MODEL 2
REMARK VINA RESULT:      -7.9      0.067      1.074
REMARK  Name = 
REMARK  4 active torsions:
REMARK  status: ('A' for Active; 'I' for Inactive)
REMARK    1  A    between atoms: C_1  and  C_2
REMARK    2  A    between atoms: C_2  and  S_3
REMARK    3  A    between atoms: S_3  and  C_4
REMARK    4  A    between atoms: C_6  and  C_7
REMARK                            x       y       z     vdW  Elec       q    Type
REMARK                         _______ _______ _______ _____ _____    ______ ____
ROOT
ATOM      1  C   UNL     1       7.036   5.811  17.321  0.00  0.00    +0.000 A 
ATOM      2  N   UNL     1       5.877   5.259  17.688  0.00  0.00    +0.000 NA
ATOM      3  C   UNL     1       5.168   4.601  16.738  0.00  0.00    +0.000 A 
ATOM      4  C   UNL     1       5.612   4.519  15.400  0.00  0.00    +0.000 A 
ATOM      5  C   UNL     1       4.911   3.950  14.301  0.00  0.00    +0.000 A 
ATOM      6  C   UNL     1       5.509   3.827  13.048  0.00  0.00    +0.000 A 
ATOM      7 CL   UNL     1       4.673   3.036  11.772  0.00  0.00    +0.000 Cl
ATOM      8  C   UNL     1       6.785   4.321  12.846  0.00  0.00    +0.000 A 
ATOM      9  C   UNL     1       7.438   4.964  13.896  0.00  0.00    +0.000 A 
ATOM     10  C   UNL     1       6.877   5.080  15.166  0.00  0.00    +0.000 A 
ATOM     11  N   UNL     1       7.575   5.720  16.101  0.00  0.00    +0.000 NA
ENDROOT
BRANCH   3  12
ATOM     12  C   UNL     1       3.926   3.969  17.257  0.00  0.00    +0.000 A 
ATOM     13  C   UNL     1       3.892   2.594  17.565  0.00  0.00    +0.000 A 
ATOM     14  C   UNL     1       2.743   1.985  18.086  0.00  0.00    +0.000 A 
ATOM     15  C   UNL     1       1.600   2.740  18.324  0.00  0.00    +0.000 A 
ATOM     16  C   UNL     1       1.586   4.090  17.994  0.00  0.00    +0.000 A 
ATOM     17  C   UNL     1       2.724   4.683  17.434  0.00  0.00    +0.000 A 
ENDBRANCH   3  12
BRANCH   1  18
ATOM     18  S   UNL     1       7.906   6.804  18.504  0.00  0.00    +0.000 S 
BRANCH  18  20
ATOM     19  C   UNL     1       8.610   9.440  18.433  0.00  0.00    +0.000 C 
ATOM     20  C   UNL     1       7.858   8.393  17.630  0.00  0.00    +0.000 C 
ENDBRANCH  18  20
ENDBRANCH   1  18
TORSDOF 3
ENDMDL
MODEL 3
REMARK VINA RESULT:      -7.6      3.156      4.823
REMARK  Name = 
REMARK  4 active torsions:
REMARK  status: ('A' for Active; 'I' for Inactive)
REMARK    1  A    between atoms: C_1  and  C_2
REMARK    2  A    between atoms: C_2  and  S_3
REMARK    3  A    between atoms: S_3  and  C_4
REMARK    4  A    between atoms: C_6  and  C_7
REMARK                            x       y       z     vdW  Elec       q    Type
REMARK                         _______ _______ _______ _____ _____    ______ ____
ROOT
ATOM      1  C   UNL     1       5.595   5.842  17.280  0.00  0.00    +0.000 A 
ATOM      2  N   UNL     1       4.702   6.747  17.690  0.00  0.00    +0.000 NA
ATOM      3  C   UNL     1       3.487   6.294  18.084  0.00  0.00    +0.000 A 
ATOM      4  C   UNL     1       3.154   4.923  18.040  0.00  0.00    +0.000 A 
ATOM      5  C   UNL     1       1.887   4.343  18.326  0.00  0.00    +0.000 A 
ATOM      6  C   UNL     1       1.716   2.960  18.359  0.00  0.00    +0.000 A 
ATOM      7 CL   UNL     1       0.199   2.292  18.816  0.00  0.00    +0.000 Cl
ATOM      8  C   UNL     1       2.778   2.130  18.048  0.00  0.00    +0.000 A 
ATOM      9  C   UNL     1       3.995   2.697  17.675  0.00  0.00    +0.000 A 
ATOM     10  C   UNL     1       4.203   4.074  17.657  0.00  0.00    +0.000 A 
ATOM     11  N   UNL     1       5.399   4.520  17.277  0.00  0.00    +0.000 NA
ENDROOT
BRANCH   3  12
ATOM     12  C   UNL     1       2.587   7.368  18.581  0.00  0.00    +0.000 A 
ATOM     13  C   UNL     1       2.173   7.395  19.928  0.00  0.00    +0.000 A 
ATOM     14  C   UNL     1       1.353   8.415  20.426  0.00  0.00    +0.000 A 
ATOM     15  C   UNL     1       0.934   9.444  19.590  0.00  0.00    +0.000 A 
ATOM     16  C   UNL     1       1.290   9.426  18.246  0.00  0.00    +0.000 A 
ATOM     17  C   UNL     1       2.074   8.381  17.746  0.00  0.00    +0.000 A 
ENDBRANCH   3  12
BRANCH   1  18
ATOM     18  S   UNL     1       7.134   6.420  16.618  0.00  0.00    +0.000 S 
BRANCH  18  20
ATOM     19  C   UNL     1       8.060   8.668  17.860  0.00  0.00    +0.000 C 
ATOM     20  C   UNL     1       7.815   7.190  18.112  0.00  0.00    +0.000 C 
ENDBRANCH  18  20
ENDBRANCH   1  18
TORSDOF 3
ENDMDL
MODEL 4
REMARK VINA RESULT:      -7.5      3.709      5.732
REMARK  Name = 
REMARK  4 active torsions:
REMARK  status: ('A' for Active; 'I' for Inactive)
REMARK    1  A    between atoms: C_1  and  C_2
REMARK    2  A    between atoms: C_2  and  S_3
REMARK    3  A    between atoms: S_3  and  C_4
REMARK    4  A    between atoms: C_6  and  C_7
REMARK                            x       y       z     vdW  Elec       q    Type
REMARK                         _______ _______ _______ _____ _____    ______ ____
ROOT
ATOM      1  C   UNL     1       3.044   3.731  17.975  0.00  0.00    +0.000 A 
ATOM      2  N   UNL     1       2.480   4.888  18.330  0.00  0.00    +0.000 NA
ATOM      3  C   UNL     1       3.253   6.000  18.290  0.00  0.00    +0.000 A 
ATOM      4  C   UNL     1       4.614   5.947  17.916  0.00  0.00    +0.000 A 
ATOM      5  C   UNL     1       5.548   7.021  17.936  0.00  0.00    +0.000 A 
ATOM      6  C   UNL     1       6.837   6.866  17.431  0.00  0.00    +0.000 A 
ATOM      7 CL   UNL     1       7.903   8.214  17.369  0.00  0.00    +0.000 Cl
ATOM      8  C   UNL     1       7.246   5.632  16.958  0.00  0.00    +0.000 A 
ATOM      9  C   UNL     1       6.365   4.555  17.025  0.00  0.00    +0.000 A 
ATOM     10  C   UNL     1       5.061   4.684  17.501  0.00  0.00    +0.000 A 
ATOM     11  N   UNL     1       4.298   3.594  17.534  0.00  0.00    +0.000 NA
ENDROOT
BRANCH   3  12
ATOM     12  C   UNL     1       2.521   7.245  18.641  0.00  0.00    +0.000 A 
ATOM     13  C   UNL     1       2.279   8.237  17.669  0.00  0.00    +0.000 A 
ATOM     14  C   UNL     1       1.562   9.402  17.969  0.00  0.00    +0.000 A 
ATOM     15  C   UNL     1       1.057   9.600  19.250  0.00  0.00    +0.000 A 
ATOM     16  C   UNL     1       1.312   8.661  20.242  0.00  0.00    +0.000 A 
ATOM     17  C   UNL     1       2.066   7.520  19.946  0.00  0.00    +0.000 A 
ENDBRANCH   3  12
BRANCH   1  18
ATOM     18  S   UNL     1       2.099   2.243  18.164  0.00  0.00    +0.000 S 
BRANCH  18  20
ATOM     19  C   UNL     1       1.279   2.748  20.718  0.00  0.00    +0.000 C 
ATOM     20  C   UNL     1       0.810   2.864  19.278  0.00  0.00    +0.000 C 
ENDBRANCH  18  20
ENDBRANCH   1  18
TORSDOF 3
ENDMDL
MODEL 5
REMARK VINA RESULT:      -7.5      3.662      5.709
REMARK  Name = 
REMARK  4 active torsions:
REMARK  status: ('A' for Active; 'I' for Inactive)
REMARK    1  A    between atoms: C_1  and  C_2
REMARK    2  A    between atoms: C_2  and  S_3
REMARK    3  A    between atoms: S_3  and  C_4
REMARK    4  A    between atoms: C_6  and  C_7
REMARK                            x       y       z     vdW  Elec       q    Type
REMARK                         _______ _______ _______ _____ _____    ______ ____
ROOT
ATOM      1  C   UNL     1       3.159   3.681  17.852  0.00  0.00    +0.000 A 
ATOM      2  N   UNL     1       2.567   4.822  18.214  0.00  0.00    +0.000 NA
ATOM      3  C   UNL     1       3.321   5.947  18.208  0.00  0.00    +0.000 A 
ATOM      4  C   UNL     1       4.691   5.924  17.864  0.00  0.00    +0.000 A 
ATOM      5  C   UNL     1       5.604   7.013  17.921  0.00  0.00    +0.000 A 
ATOM      6  C   UNL     1       6.907   6.889  17.442  0.00  0.00    +0.000 A 
ATOM      7 CL   UNL     1       7.950   8.256  17.426  0.00  0.00    +0.000 Cl
ATOM      8  C   UNL     1       7.347   5.671  16.957  0.00  0.00    +0.000 A 
ATOM      9  C   UNL     1       6.484   4.577  16.988  0.00  0.00    +0.000 A 
ATOM     10  C   UNL     1       5.169   4.676  17.437  0.00  0.00    +0.000 A 
ATOM     11  N   UNL     1       4.424   3.572  17.436  0.00  0.00    +0.000 NA
ENDROOT
BRANCH   3  12
ATOM     12  C   UNL     1       2.560   7.174  18.564  0.00  0.00    +0.000 A 
ATOM     13  C   UNL     1       2.111   7.386  19.883  0.00  0.00    +0.000 A 
ATOM     14  C   UNL     1       1.421   8.549  20.247  0.00  0.00    +0.000 A 
ATOM     15  C   UNL     1       1.173   9.538  19.303  0.00  0.00    +0.000 A 
ATOM     16  C   UNL     1       1.567   9.344  17.984  0.00  0.00    +0.000 A 
ATOM     17  C   UNL     1       2.217   8.160  17.618  0.00  0.00    +0.000 A 
ENDBRANCH   3  12
BRANCH   1  18
ATOM     18  S   UNL     1       2.236   2.174  17.996  0.00  0.00    +0.000 S 
BRANCH  18  20
ATOM     19  C   UNL     1       1.429   2.603  20.568  0.00  0.00    +0.000 C 
ATOM     20  C   UNL     1       0.944   2.740  19.135  0.00  0.00    +0.000 C 
ENDBRANCH  18  20
ENDBRANCH   1  18
TORSDOF 3
ENDMDL
MODEL 6
REMARK VINA RESULT:      -7.5      3.204      4.872
REMARK  Name = 
REMARK  4 active torsions:
REMARK  status: ('A' for Active; 'I' for Inactive)
REMARK    1  A    between atoms: C_1  and  C_2
REMARK    2  A    between atoms: C_2  and  S_3
REMARK    3  A    between atoms: S_3  and  C_4
REMARK    4  A    between atoms: C_6  and  C_7
REMARK                            x       y       z     vdW  Elec       q    Type
REMARK                         _______ _______ _______ _____ _____    ______ ____
ROOT
ATOM      1  C   UNL     1       5.580   5.816  17.317  0.00  0.00    +0.000 A 
ATOM      2  N   UNL     1       4.698   6.733  17.722  0.00  0.00    +0.000 NA
ATOM      3  C   UNL     1       3.475   6.296  18.110  0.00  0.00    +0.000 A 
ATOM      4  C   UNL     1       3.123   4.929  18.064  0.00  0.00    +0.000 A 
ATOM      5  C   UNL     1       1.847   4.366  18.344  0.00  0.00    +0.000 A 
ATOM      6  C   UNL     1       1.657   2.986  18.376  0.00  0.00    +0.000 A 
ATOM      7 CL   UNL     1       0.129   2.338  18.825  0.00  0.00    +0.000 Cl
ATOM      8  C   UNL     1       2.710   2.142  18.070  0.00  0.00    +0.000 A 
ATOM      9  C   UNL     1       3.936   2.692  17.703  0.00  0.00    +0.000 A 
ATOM     10  C   UNL     1       4.163   4.067  17.686  0.00  0.00    +0.000 A 
ATOM     11  N   UNL     1       5.366   4.496  17.313  0.00  0.00    +0.000 NA
ENDROOT
BRANCH   3  12
ATOM     12  C   UNL     1       2.586   7.382  18.603  0.00  0.00    +0.000 A 
ATOM     13  C   UNL     1       2.154   8.408  17.738  0.00  0.00    +0.000 A 
ATOM     14  C   UNL     1       1.290   9.421  18.173  0.00  0.00    +0.000 A 
ATOM     15  C   UNL     1       0.826   9.428  19.483  0.00  0.00    +0.000 A 
ATOM     16  C   UNL     1       1.264   8.453  20.373  0.00  0.00    +0.000 A 
ATOM     17  C   UNL     1       2.161   7.469  19.944  0.00  0.00    +0.000 A 
ENDBRANCH   3  12
BRANCH   1  18
ATOM     18  S   UNL     1       7.130   6.374  16.662  0.00  0.00    +0.000 S 
BRANCH  18  20
ATOM     19  C   UNL     1       7.903   5.875  19.233  0.00  0.00    +0.000 C 
ATOM     20  C   UNL     1       7.883   6.984  18.195  0.00  0.00    +0.000 C 
ENDBRANCH  18  20
ENDBRANCH   1  18
TORSDOF 3
ENDMDL
MODEL 7
REMARK VINA RESULT:      -7.4      3.737      5.893
REMARK  Name = 
REMARK  4 active torsions:
REMARK  status: ('A' for Active; 'I' for Inactive)
REMARK    1  A    between atoms: C_1  and  C_2
REMARK    2  A    between atoms: C_2  and  S_3
REMARK    3  A    between atoms: S_3  and  C_4
REMARK    4  A    between atoms: C_6  and  C_7
REMARK                            x       y       z     vdW  Elec       q    Type
REMARK                         _______ _______ _______ _____ _____    ______ ____
ROOT
ATOM      1  C   UNL     1       4.855   5.491  16.915  0.00  0.00    +0.000 A 
ATOM      2  N   UNL     1       4.061   6.479  17.333  0.00  0.00    +0.000 NA
ATOM      3  C   UNL     1       3.205   6.208  18.348  0.00  0.00    +0.000 A 
ATOM      4  C   UNL     1       3.124   4.924  18.931  0.00  0.00    +0.000 A 
ATOM      5  C   UNL     1       2.200   4.493  19.923  0.00  0.00    +0.000 A 
ATOM      6  C   UNL     1       2.298   3.229  20.502  0.00  0.00    +0.000 A 
ATOM      7 CL   UNL     1       1.234   2.782  21.776  0.00  0.00    +0.000 Cl
ATOM      8  C   UNL     1       3.271   2.348  20.065  0.00  0.00    +0.000 A 
ATOM      9  C   UNL     1       4.118   2.733  19.027  0.00  0.00    +0.000 A 
ATOM     10  C   UNL     1       4.060   3.998  18.446  0.00  0.00    +0.000 A 
ATOM     11  N   UNL     1       4.905   4.268  17.454  0.00  0.00    +0.000 NA
ENDROOT
BRANCH   3  12
ATOM     12  C   UNL     1       2.410   7.386  18.785  0.00  0.00    +0.000 A 
ATOM     13  C   UNL     1       2.045   8.390  17.866  0.00  0.00    +0.000 A 
ATOM     14  C   UNL     1       1.268   9.491  18.249  0.00  0.00    +0.000 A 
ATOM     15  C   UNL     1       0.825   9.610  19.561  0.00  0.00    +0.000 A 
ATOM     16  C   UNL     1       1.200   8.658  20.502  0.00  0.00    +0.000 A 
ATOM     17  C   UNL     1       2.012   7.584  20.123  0.00  0.00    +0.000 A 
ENDBRANCH   3  12
BRANCH   1  18
ATOM     18  S   UNL     1       5.872   5.776  15.492  0.00  0.00    +0.000 S 
BRANCH  18  20
ATOM     19  C   UNL     1       6.038   3.806  13.609  0.00  0.00    +0.000 C 
ATOM     20  C   UNL     1       6.284   4.057  15.087  0.00  0.00    +0.000 C 
ENDBRANCH  18  20
ENDBRANCH   1  18
TORSDOF 3
ENDMDL
MODEL 8
REMARK VINA RESULT:      -7.3      3.737      5.899
REMARK  Name = 
REMARK  4 active torsions:
REMARK  status: ('A' for Active; 'I' for Inactive)
REMARK    1  A    between atoms: C_1  and  C_2
REMARK    2  A    between atoms: C_2  and  S_3
REMARK    3  A    between atoms: S_3  and  C_4
REMARK    4  A    between atoms: C_6  and  C_7
REMARK                            x       y       z     vdW  Elec       q    Type
REMARK                         _______ _______ _______ _____ _____    ______ ____
ROOT
ATOM      1  C   UNL     1       4.891   5.573  16.934  0.00  0.00    +0.000 A 
ATOM      2  N   UNL     1       4.069   6.544  17.339  0.00  0.00    +0.000 NA
ATOM      3  C   UNL     1       3.201   6.254  18.339  0.00  0.00    +0.000 A 
ATOM      4  C   UNL     1       3.137   4.968  18.919  0.00  0.00    +0.000 A 
ATOM      5  C   UNL     1       2.205   4.517  19.895  0.00  0.00    +0.000 A 
ATOM      6  C   UNL     1       2.320   3.255  20.474  0.00  0.00    +0.000 A 
ATOM      7 CL   UNL     1       1.243   2.784  21.729  0.00  0.00    +0.000 Cl
ATOM      8  C   UNL     1       3.319   2.395  20.054  0.00  0.00    +0.000 A 
ATOM      9  C   UNL     1       4.175   2.799  19.031  0.00  0.00    +0.000 A 
ATOM     10  C   UNL     1       4.101   4.063  18.450  0.00  0.00    +0.000 A 
ATOM     11  N   UNL     1       4.958   4.352  17.473  0.00  0.00    +0.000 NA
ENDROOT
BRANCH   3  12
ATOM     12  C   UNL     1       2.374   7.415  18.762  0.00  0.00    +0.000 A 
ATOM     13  C   UNL     1       1.963   7.555  20.103  0.00  0.00    +0.000 A 
ATOM     14  C   UNL     1       1.212   8.657  20.531  0.00  0.00    +0.000 A 
ATOM     15  C   UNL     1       0.862   9.656  19.629  0.00  0.00    +0.000 A 
ATOM     16  C   UNL     1       1.217   9.529  18.291  0.00  0.00    +0.000 A 
ATOM     17  C   UNL     1       1.930   8.404  17.862  0.00  0.00    +0.000 A 
ENDBRANCH   3  12
BRANCH   1  18
ATOM     18  S   UNL     1       5.927   5.881  15.529  0.00  0.00    +0.000 S 
BRANCH  18  20
ATOM     19  C   UNL     1       6.057   3.861  13.697  0.00  0.00    +0.000 C 
ATOM     20  C   UNL     1       6.399   4.173  15.144  0.00  0.00    +0.000 C 
ENDBRANCH  18  20
ENDBRANCH   1  18
TORSDOF 3
ENDMDL
MODEL 9
REMARK VINA RESULT:      -7.2      3.387      4.952
REMARK  Name = 
REMARK  4 active torsions:
REMARK  status: ('A' for Active; 'I' for Inactive)
REMARK    1  A    between atoms: C_1  and  C_2
REMARK    2  A    between atoms: C_2  and  S_3
REMARK    3  A    between atoms: S_3  and  C_4
REMARK    4  A    between atoms: C_6  and  C_7
REMARK                            x       y       z     vdW  Elec       q    Type
REMARK                         _______ _______ _______ _____ _____    ______ ____
ROOT
ATOM      1  C   UNL     1       5.992   5.431  18.792  0.00  0.00    +0.000 A 
ATOM      2  N   UNL     1       5.075   6.402  18.796  0.00  0.00    +0.000 NA
ATOM      3  C   UNL     1       3.771   6.031  18.805  0.00  0.00    +0.000 A 
ATOM      4  C   UNL     1       3.382   4.674  18.783  0.00  0.00    +0.000 A 
ATOM      5  C   UNL     1       2.057   4.167  18.686  0.00  0.00    +0.000 A 
ATOM      6  C   UNL     1       1.796   2.802  18.790  0.00  0.00    +0.000 A 
ATOM      7 CL   UNL     1       0.173   2.234  18.779  0.00  0.00    +0.000 Cl
ATOM      8  C   UNL     1       2.846   1.911  18.928  0.00  0.00    +0.000 A 
ATOM      9  C   UNL     1       4.152   2.397  18.928  0.00  0.00    +0.000 A 
ATOM     10  C   UNL     1       4.443   3.758  18.851  0.00  0.00    +0.000 A 
ATOM     11  N   UNL     1       5.723   4.123  18.849  0.00  0.00    +0.000 NA
ENDROOT
BRANCH   3  12
ATOM     12  C   UNL     1       2.829   7.180  18.872  0.00  0.00    +0.000 A 
ATOM     13  C   UNL     1       2.637   8.020  17.757  0.00  0.00    +0.000 A 
ATOM     14  C   UNL     1       1.729   9.087  17.788  0.00  0.00    +0.000 A 
ATOM     15  C   UNL     1       0.980   9.333  18.933  0.00  0.00    +0.000 A 
ATOM     16  C   UNL     1       1.174   8.549  20.064  0.00  0.00    +0.000 A 
ATOM     17  C   UNL     1       2.114   7.512  20.040  0.00  0.00    +0.000 A 
ENDBRANCH   3  12
BRANCH   1  18
ATOM     18  S   UNL     1       7.697   5.887  18.626  0.00  0.00    +0.000 S 
BRANCH  18  20
ATOM     19  C   UNL     1       8.148   8.493  17.950  0.00  0.00    +0.000 C 
ATOM     20  C   UNL     1       7.518   7.220  17.410  0.00  0.00    +0.000 C 
ENDBRANCH  18  20
ENDBRANCH   1  18
TORSDOF 3
ENDMDL
