MODEL 1
REMARK VINA RESULT:      -8.9      0.000      0.000
REMARK  Name = 
REMARK  5 active torsions:
REMARK  status: ('A' for Active; 'I' for Inactive)
REMARK    1  A    between atoms: C_2  and  OXT_3
REMARK    2  A    between atoms: C_2  and  CA_4
REMARK    3  A    between atoms: C_7  and  C_8
REMARK    4  A    between atoms: C_12  and  C_13
REMARK    5  A    between atoms: C_20  and  N_21
REMARK                            x       y       z     vdW  Elec       q    Type
REMARK                         _______ _______ _______ _____ _____    ______ ____
ROOT
ATOM      1  CA  UNL     1       2.274   3.505  18.099  0.00  0.00    +0.000 A 
ATOM      2  C   UNL     1       1.921   4.833  18.224  0.00  0.00    +0.000 A 
ATOM      3  C   UNL     1       3.047   5.657  17.905  0.00  0.00    +0.000 A 
ATOM      4  C   UNL     1       3.297   7.062  17.940  0.00  0.00    +0.000 A 
ATOM      5  C   UNL     1       4.555   7.503  17.468  0.00  0.00    +0.000 A 
ATOM      6  C   UNL     1       5.516   6.619  16.970  0.00  0.00    +0.000 A 
ATOM      7  C   UNL     1       5.280   5.237  16.958  0.00  0.00    +0.000 A 
ATOM      8  C   UNL     1       4.044   4.783  17.459  0.00  0.00    +0.000 A 
ATOM      9  N   UNL     1       3.565   3.498  17.627  0.00  0.00    +0.000 N 
ATOM     10  H   UNL     1       4.097   2.655  17.426  0.00  0.00    +0.000 HD
ENDROOT
BRANCH   4  11
ATOM     11  C   UNL     1       2.258   8.005  18.420  0.00  0.00    +0.000 A 
ATOM     12  C   UNL     1       1.611   8.907  17.555  0.00  0.00    +0.000 A 
ATOM     13  C   UNL     1       0.738   9.890  18.028  0.00  0.00    +0.000 A 
ATOM     14  C   UNL     1       0.417   9.941  19.379  0.00  0.00    +0.000 A 
ATOM     15  C   UNL     1       0.962   9.004  20.263  0.00  0.00    +0.000 A 
ATOM     16  C   UNL     1       1.886   8.057  19.776  0.00  0.00    +0.000 A 
BRANCH  15  17
ATOM     17  C   UNL     1       0.573   8.995  21.721  0.00  0.00    +0.000 C 
ATOM     18  F   UNL     1       1.572   8.584  22.550  0.00  0.00    +0.000 F 
ATOM     19  F   UNL     1       0.203  10.229  22.166  0.00  0.00    +0.000 F 
ATOM     20  F   UNL     1      -0.484   8.174  21.973  0.00  0.00    +0.000 F 
ENDBRANCH  15  17
ENDBRANCH   4  11
BRANCH   7  21
ATOM     21  N   UNL     1       6.309   4.338  16.417  0.00  0.00    +0.000 N 
ATOM     22  O   UNL     1       7.486   4.530  16.752  0.00  0.00    +0.000 OA
ATOM     23  O   UNL     1       5.929   3.445  15.645  0.00  0.00    +0.000 OA
ENDBRANCH   7  21
BRANCH   1  25
ATOM     24  O   UNL     1       0.339   2.215  18.498  0.00  0.00    +0.000 OA
ATOM     25  C   UNL     1       1.558   2.298  18.417  0.00  0.00    +0.000 C 
BRANCH  25  26
ATOM     26  OXT UNL     1       2.374   1.241  18.628  0.00  0.00    +0.000 OA
ATOM     27  HXT UNL     1       2.314   0.885  19.531  0.00  0.00    +0.000 HD
ENDBRANCH  25  26
ENDBRANCH   1  25
TORSDOF 5
ENDMDL
MODEL 2
REMARK VINA RESULT:      -8.7      1.839      3.906
REMARK  Name = 
REMARK  5 active torsions:
REMARK  status: ('A' for Active; 'I' for Inactive)
REMARK    1  A    between atoms: C_2  and  OXT_3
REMARK    2  A    between atoms: C_2  and  CA_4
REMARK    3  A    between atoms: C_7  and  C_8
REMARK    4  A    between atoms: C_12  and  C_13
REMARK    5  A    between atoms: C_20  and  N_21
REMARK                            x       y       z     vdW  Elec       q    Type
REMARK                         _______ _______ _______ _____ _____    ______ ____
ROOT
ATOM      1  CA  UNL     1       6.125   5.203  17.884  0.00  0.00    +0.000 A 
ATOM      2  C   UNL     1       5.090   6.031  18.268  0.00  0.00    +0.000 A 
ATOM      3  C   UNL     1       4.138   5.282  19.030  0.00  0.00    +0.000 A 
ATOM      4  C   UNL     1       2.863   5.576  19.602  0.00  0.00    +0.000 A 
ATOM      5  C   UNL     1       2.249   4.555  20.363  0.00  0.00    +0.000 A 
ATOM      6  C   UNL     1       2.856   3.314  20.571  0.00  0.00    +0.000 A 
ATOM      7  C   UNL     1       4.097   3.016  19.991  0.00  0.00    +0.000 A 
ATOM      8  C   UNL     1       4.702   4.014  19.201  0.00  0.00    +0.000 A 
ATOM      9  N   UNL     1       5.873   3.984  18.467  0.00  0.00    +0.000 N 
ATOM     10  H   UNL     1       6.471   3.168  18.372  0.00  0.00    +0.000 HD
ENDROOT
BRANCH   4  11
ATOM     11  C   UNL     1       2.243   6.911  19.423  0.00  0.00    +0.000 A 
ATOM     12  C   UNL     1       2.369   7.640  18.227  0.00  0.00    +0.000 A 
ATOM     13  C   UNL     1       1.908   8.953  18.107  0.00  0.00    +0.000 A 
ATOM     14  C   UNL     1       1.224   9.547  19.160  0.00  0.00    +0.000 A 
ATOM     15  C   UNL     1       0.989   8.827  20.337  0.00  0.00    +0.000 A 
ATOM     16  C   UNL     1       1.513   7.524  20.459  0.00  0.00    +0.000 A 
BRANCH  15  17
ATOM     17  C   UNL     1       0.186   9.425  21.465  0.00  0.00    +0.000 C 
ATOM     18  F   UNL     1      -0.687   8.550  22.037  0.00  0.00    +0.000 F 
ATOM     19  F   UNL     1       0.976   9.879  22.479  0.00  0.00    +0.000 F 
ATOM     20  F   UNL     1      -0.560  10.492  21.066  0.00  0.00    +0.000 F 
ENDBRANCH  15  17
ENDBRANCH   4  11
BRANCH   7  21
ATOM     21  N   UNL     1       4.709   1.705  20.242  0.00  0.00    +0.000 N 
ATOM     22  O   UNL     1       5.255   1.515  21.337  0.00  0.00    +0.000 OA
ATOM     23  O   UNL     1       4.649   0.869  19.327  0.00  0.00    +0.000 OA
ENDBRANCH   7  21
BRANCH   1  25
ATOM     24  O   UNL     1       7.500   6.494  16.467  0.00  0.00    +0.000 OA
ATOM     25  C   UNL     1       7.250   5.430  17.018  0.00  0.00    +0.000 C 
BRANCH  25  26
ATOM     26  OXT UNL     1       8.023   4.331  16.858  0.00  0.00    +0.000 OA
ATOM     27  HXT UNL     1       8.611   4.385  16.086  0.00  0.00    +0.000 HD
ENDBRANCH  25  26
ENDBRANCH   1  25
TORSDOF 5
ENDMDL
MODEL 3
REMARK VINA RESULT:      -8.6      4.223      5.644
REMARK  Name = 
REMARK  5 active torsions:
REMARK  status: ('A' for Active; 'I' for Inactive)
REMARK    1  A    between atoms: C_2  and  OXT_3
REMARK    2  A    between atoms: C_2  and  CA_4
REMARK    3  A    between atoms: C_7  and  C_8
REMARK    4  A    between atoms: C_12  and  C_13
REMARK    5  A    between atoms: C_20  and  N_21
REMARK                            x       y       z     vdW  Elec       q    Type
REMARK                         _______ _______ _______ _____ _____    ______ ____
ROOT
ATOM      1  CA  UNL     1       7.314   6.656  17.386  0.00  0.00    +0.000 A 
ATOM      2  C   UNL     1       6.364   5.732  17.772  0.00  0.00    +0.000 A 
ATOM      3  C   UNL     1       5.954   4.966  16.635  0.00  0.00    +0.000 A 
ATOM      4  C   UNL     1       4.968   3.957  16.414  0.00  0.00    +0.000 A 
ATOM      5  C   UNL     1       4.916   3.382  15.123  0.00  0.00    +0.000 A 
ATOM      6  C   UNL     1       5.793   3.760  14.103  0.00  0.00    +0.000 A 
ATOM      7  C   UNL     1       6.745   4.767  14.313  0.00  0.00    +0.000 A 
ATOM      8  C   UNL     1       6.783   5.373  15.585  0.00  0.00    +0.000 A 
ATOM      9  N   UNL     1       7.558   6.415  16.055  0.00  0.00    +0.000 N 
ATOM     10  H   UNL     1       8.224   6.936  15.491  0.00  0.00    +0.000 HD
ENDROOT
BRANCH   4  11
ATOM     11  C   UNL     1       4.072   3.520  17.511  0.00  0.00    +0.000 A 
ATOM     12  C   UNL     1       3.755   2.166  17.723  0.00  0.00    +0.000 A 
ATOM     13  C   UNL     1       2.803   1.765  18.663  0.00  0.00    +0.000 A 
ATOM     14  C   UNL     1       2.201   2.709  19.486  0.00  0.00    +0.000 A 
ATOM     15  C   UNL     1       2.554   4.059  19.378  0.00  0.00    +0.000 A 
ATOM     16  C   UNL     1       3.474   4.450  18.384  0.00  0.00    +0.000 A 
BRANCH  15  17
ATOM     17  C   UNL     1       1.968   5.092  20.308  0.00  0.00    +0.000 C 
ATOM     18  F   UNL     1       2.171   6.375  19.897  0.00  0.00    +0.000 F 
ATOM     19  F   UNL     1       0.619   4.955  20.449  0.00  0.00    +0.000 F 
ATOM     20  F   UNL     1       2.485   5.014  21.565  0.00  0.00    +0.000 F 
ENDBRANCH  15  17
ENDBRANCH   4  11
BRANCH   7  21
ATOM     21  N   UNL     1       7.657   5.130  13.220  0.00  0.00    +0.000 N 
ATOM     22  O   UNL     1       7.454   4.638  12.102  0.00  0.00    +0.000 OA
ATOM     23  O   UNL     1       8.587   5.904  13.495  0.00  0.00    +0.000 OA
ENDBRANCH   7  21
BRANCH   1  25
ATOM     24  O   UNL     1       7.873   8.910  17.803  0.00  0.00    +0.000 OA
ATOM     25  C   UNL     1       7.946   7.727  18.109  0.00  0.00    +0.000 C 
BRANCH  25  26
ATOM     26  OXT UNL     1       8.650   7.295  19.180  0.00  0.00    +0.000 OA
ATOM     27  HXT UNL     1       8.904   8.013  19.785  0.00  0.00    +0.000 HD
ENDBRANCH  25  26
ENDBRANCH   1  25
TORSDOF 5
ENDMDL
MODEL 4
REMARK VINA RESULT:      -8.6      1.558      3.845
REMARK  Name = 
REMARK  5 active torsions:
REMARK  status: ('A' for Active; 'I' for Inactive)
REMARK    1  A    between atoms: C_2  and  OXT_3
REMARK    2  A    between atoms: C_2  and  CA_4
REMARK    3  A    between atoms: C_7  and  C_8
REMARK    4  A    between atoms: C_12  and  C_13
REMARK    5  A    between atoms: C_20  and  N_21
REMARK                            x       y       z     vdW  Elec       q    Type
REMARK                         _______ _______ _______ _____ _____    ______ ____
ROOT
ATOM      1  CA  UNL     1       5.932   5.403  17.394  0.00  0.00    +0.000 A 
ATOM      2  C   UNL     1       4.959   6.274  17.839  0.00  0.00    +0.000 A 
ATOM      3  C   UNL     1       3.976   5.548  18.585  0.00  0.00    +0.000 A 
ATOM      4  C   UNL     1       2.732   5.893  19.196  0.00  0.00    +0.000 A 
ATOM      5  C   UNL     1       2.069   4.875  19.920  0.00  0.00    +0.000 A 
ATOM      6  C   UNL     1       2.599   3.590  20.055  0.00  0.00    +0.000 A 
ATOM      7  C   UNL     1       3.808   3.245  19.435  0.00  0.00    +0.000 A 
ATOM      8  C   UNL     1       4.461   4.240  18.681  0.00  0.00    +0.000 A 
ATOM      9  N   UNL     1       5.614   4.175  17.923  0.00  0.00    +0.000 N 
ATOM     10  H   UNL     1       6.157   3.329  17.775  0.00  0.00    +0.000 HD
ENDROOT
BRANCH   4  11
ATOM     11  C   UNL     1       2.195   7.271  19.096  0.00  0.00    +0.000 A 
ATOM     12  C   UNL     1       2.185   7.983  17.883  0.00  0.00    +0.000 A 
ATOM     13  C   UNL     1       1.811   9.328  17.815  0.00  0.00    +0.000 A 
ATOM     14  C   UNL     1       1.350   9.977  18.954  0.00  0.00    +0.000 A 
ATOM     15  C   UNL     1       1.250   9.282  20.164  0.00  0.00    +0.000 A 
ATOM     16  C   UNL     1       1.686   7.943  20.224  0.00  0.00    +0.000 A 
BRANCH  15  17
ATOM     17  C   UNL     1       0.684   9.945  21.395  0.00  0.00    +0.000 C 
ATOM     18  F   UNL     1       0.908  11.288  21.444  0.00  0.00    +0.000 F 
ATOM     19  F   UNL     1      -0.666   9.789  21.493  0.00  0.00    +0.000 F 
ATOM     20  F   UNL     1       1.205   9.437  22.546  0.00  0.00    +0.000 F 
ENDBRANCH  15  17
ENDBRANCH   4  11
BRANCH   7  21
ATOM     21  N   UNL     1       4.341   1.887  19.609  0.00  0.00    +0.000 N 
ATOM     22  O   UNL     1       3.976   1.010  18.813  0.00  0.00    +0.000 OA
ATOM     23  O   UNL     1       5.120   1.703  20.556  0.00  0.00    +0.000 OA
ENDBRANCH   7  21
BRANCH   1  25
ATOM     24  O   UNL     1       7.490   4.758  15.744  0.00  0.00    +0.000 OA
ATOM     25  C   UNL     1       7.054   5.602  16.516  0.00  0.00    +0.000 C 
BRANCH  25  26
ATOM     26  OXT UNL     1       7.600   6.834  16.630  0.00  0.00    +0.000 OA
ATOM     27  HXT UNL     1       7.200   7.487  16.031  0.00  0.00    +0.000 HD
ENDBRANCH  25  26
ENDBRANCH   1  25
TORSDOF 5
ENDMDL
MODEL 5
REMARK VINA RESULT:      -8.5      1.582      1.962
REMARK  Name = 
REMARK  5 active torsions:
REMARK  status: ('A' for Active; 'I' for Inactive)
REMARK    1  A    between atoms: C_2  and  OXT_3
REMARK    2  A    between atoms: C_2  and  CA_4
REMARK    3  A    between atoms: C_7  and  C_8
REMARK    4  A    between atoms: C_12  and  C_13
REMARK    5  A    between atoms: C_20  and  N_21
REMARK                            x       y       z     vdW  Elec       q    Type
REMARK                         _______ _______ _______ _____ _____    ______ ____
ROOT
ATOM      1  CA  UNL     1       2.497   4.089  20.362  0.00  0.00    +0.000 A 
ATOM      2  C   UNL     1       1.947   5.326  20.100  0.00  0.00    +0.000 A 
ATOM      3  C   UNL     1       2.776   6.028  19.167  0.00  0.00    +0.000 A 
ATOM      4  C   UNL     1       2.759   7.342  18.608  0.00  0.00    +0.000 A 
ATOM      5  C   UNL     1       3.744   7.641  17.639  0.00  0.00    +0.000 A 
ATOM      6  C   UNL     1       4.689   6.700  17.223  0.00  0.00    +0.000 A 
ATOM      7  C   UNL     1       4.722   5.418  17.789  0.00  0.00    +0.000 A 
ATOM      8  C   UNL     1       3.766   5.120  18.781  0.00  0.00    +0.000 A 
ATOM      9  N   UNL     1       3.597   3.981  19.545  0.00  0.00    +0.000 N 
ATOM     10  H   UNL     1       4.207   3.168  19.508  0.00  0.00    +0.000 HD
ENDROOT
BRANCH   4  11
ATOM     11  C   UNL     1       1.724   8.324  19.012  0.00  0.00    +0.000 A 
ATOM     12  C   UNL     1       1.090   9.168  18.082  0.00  0.00    +0.000 A 
ATOM     13  C   UNL     1       0.222  10.188  18.477  0.00  0.00    +0.000 A 
ATOM     14  C   UNL     1      -0.109  10.336  19.819  0.00  0.00    +0.000 A 
ATOM     15  C   UNL     1       0.421   9.458  20.771  0.00  0.00    +0.000 A 
ATOM     16  C   UNL     1       1.340   8.473  20.359  0.00  0.00    +0.000 A 
BRANCH  15  17
ATOM     17  C   UNL     1       0.020   9.554  22.222  0.00  0.00    +0.000 C 
ATOM     18  F   UNL     1      -0.510  10.762  22.564  0.00  0.00    +0.000 F 
ATOM     19  F   UNL     1      -0.918   8.625  22.563  0.00  0.00    +0.000 F 
ATOM     20  F   UNL     1       1.069   9.353  23.066  0.00  0.00    +0.000 F 
ENDBRANCH  15  17
ENDBRANCH   4  11
BRANCH   7  21
ATOM     21  N   UNL     1       5.723   4.451  17.318  0.00  0.00    +0.000 N 
ATOM     22  O   UNL     1       5.601   3.995  16.173  0.00  0.00    +0.000 OA
ATOM     23  O   UNL     1       6.627   4.144  18.110  0.00  0.00    +0.000 OA
ENDBRANCH   7  21
BRANCH   1  25
ATOM     24  O   UNL     1       2.917   2.462  22.019  0.00  0.00    +0.000 OA
ATOM     25  C   UNL     1       2.128   3.066  21.304  0.00  0.00    +0.000 C 
BRANCH  25  26
ATOM     26  OXT UNL     1       0.797   2.822  21.322  0.00  0.00    +0.000 OA
ATOM     27  HXT UNL     1       0.542   2.049  20.792  0.00  0.00    +0.000 HD
ENDBRANCH  25  26
ENDBRANCH   1  25
TORSDOF 5
ENDMDL
MODEL 6
REMARK VINA RESULT:      -8.5      3.985      5.480
REMARK  Name = 
REMARK  5 active torsions:
REMARK  status: ('A' for Active; 'I' for Inactive)
REMARK    1  A    between atoms: C_2  and  OXT_3
REMARK    2  A    between atoms: C_2  and  CA_4
REMARK    3  A    between atoms: C_7  and  C_8
REMARK    4  A    between atoms: C_12  and  C_13
REMARK    5  A    between atoms: C_20  and  N_21
REMARK                            x       y       z     vdW  Elec       q    Type
REMARK                         _______ _______ _______ _____ _____    ______ ____
ROOT
ATOM      1  CA  UNL     1       7.288   7.351  17.634  0.00  0.00    +0.000 A 
ATOM      2  C   UNL     1       6.179   6.769  18.213  0.00  0.00    +0.000 A 
ATOM      3  C   UNL     1       5.580   5.857  17.287  0.00  0.00    +0.000 A 
ATOM      4  C   UNL     1       4.398   5.057  17.297  0.00  0.00    +0.000 A 
ATOM      5  C   UNL     1       4.184   4.213  16.183  0.00  0.00    +0.000 A 
ATOM      6  C   UNL     1       5.086   4.141  15.118  0.00  0.00    +0.000 A 
ATOM      7  C   UNL     1       6.234   4.944  15.097  0.00  0.00    +0.000 A 
ATOM      8  C   UNL     1       6.441   5.815  16.185  0.00  0.00    +0.000 A 
ATOM      9  N   UNL     1       7.432   6.752  16.405  0.00  0.00    +0.000 N 
ATOM     10  H   UNL     1       8.174   6.969  15.744  0.00  0.00    +0.000 HD
ENDROOT
BRANCH   4  11
ATOM     11  C   UNL     1       3.467   5.095  18.450  0.00  0.00    +0.000 A 
ATOM     12  C   UNL     1       2.882   6.293  18.900  0.00  0.00    +0.000 A 
ATOM     13  C   UNL     1       2.119   6.353  20.068  0.00  0.00    +0.000 A 
ATOM     14  C   UNL     1       1.845   5.191  20.778  0.00  0.00    +0.000 A 
ATOM     15  C   UNL     1       2.325   3.960  20.317  0.00  0.00    +0.000 A 
ATOM     16  C   UNL     1       3.141   3.928  19.168  0.00  0.00    +0.000 A 
BRANCH  15  17
ATOM     17  C   UNL     1       1.980   2.676  21.031  0.00  0.00    +0.000 C 
ATOM     18  F   UNL     1       2.947   2.254  21.893  0.00  0.00    +0.000 F 
ATOM     19  F   UNL     1       0.841   2.785  21.771  0.00  0.00    +0.000 F 
ATOM     20  F   UNL     1       1.769   1.643  20.170  0.00  0.00    +0.000 F 
ENDBRANCH  15  17
ENDBRANCH   4  11
BRANCH   7  21
ATOM     21  N   UNL     1       7.166   4.833  13.967  0.00  0.00    +0.000 N 
ATOM     22  O   UNL     1       8.187   5.534  13.980  0.00  0.00    +0.000 OA
ATOM     23  O   UNL     1       6.861   4.045  13.058  0.00  0.00    +0.000 OA
ENDBRANCH   7  21
BRANCH   1  25
ATOM     24  O   UNL     1       8.201   9.526  17.598  0.00  0.00    +0.000 OA
ATOM     25  C   UNL     1       8.154   8.405  18.089  0.00  0.00    +0.000 C 
BRANCH  25  26
ATOM     26  OXT UNL     1       8.935   8.034  19.129  0.00  0.00    +0.000 OA
ATOM     27  HXT UNL     1       9.797   8.482  19.139  0.00  0.00    +0.000 HD
ENDBRANCH  25  26
ENDBRANCH   1  25
TORSDOF 5
ENDMDL
MODEL 7
REMARK VINA RESULT:      -8.5      0.615      1.172
REMARK  Name = 
REMARK  5 active torsions:
REMARK  status: ('A' for Active; 'I' for Inactive)
REMARK    1  A    between atoms: C_2  and  OXT_3
REMARK    2  A    between atoms: C_2  and  CA_4
REMARK    3  A    between atoms: C_7  and  C_8
REMARK    4  A    between atoms: C_12  and  C_13
REMARK    5  A    between atoms: C_20  and  N_21
REMARK                            x       y       z     vdW  Elec       q    Type
REMARK                         _______ _______ _______ _____ _____    ______ ____
ROOT
ATOM      1  CA  UNL     1       2.548   3.569  18.878  0.00  0.00    +0.000 A 
ATOM      2  C   UNL     1       2.108   4.877  18.838  0.00  0.00    +0.000 A 
ATOM      3  C   UNL     1       3.106   5.697  18.222  0.00  0.00    +0.000 A 
ATOM      4  C   UNL     1       3.243   7.099  17.990  0.00  0.00    +0.000 A 
ATOM      5  C   UNL     1       4.381   7.523  17.266  0.00  0.00    +0.000 A 
ATOM      6  C   UNL     1       5.331   6.622  16.777  0.00  0.00    +0.000 A 
ATOM      7  C   UNL     1       5.210   5.248  17.026  0.00  0.00    +0.000 A 
ATOM      8  C   UNL     1       4.098   4.817  17.776  0.00  0.00    +0.000 A 
ATOM      9  N   UNL     1       3.755   3.555  18.221  0.00  0.00    +0.000 N 
ATOM     10  H   UNL     1       4.321   2.722  18.080  0.00  0.00    +0.000 HD
ENDROOT
BRANCH   4  11
ATOM     11  C   UNL     1       2.208   8.050  18.464  0.00  0.00    +0.000 A 
ATOM     12  C   UNL     1       1.574   8.957  17.596  0.00  0.00    +0.000 A 
ATOM     13  C   UNL     1       0.705   9.946  18.064  0.00  0.00    +0.000 A 
ATOM     14  C   UNL     1       0.376   9.999  19.413  0.00  0.00    +0.000 A 
ATOM     15  C   UNL     1       0.908   9.057  20.300  0.00  0.00    +0.000 A 
ATOM     16  C   UNL     1       1.827   8.103  19.818  0.00  0.00    +0.000 A 
BRANCH  15  17
ATOM     17  C   UNL     1       0.509   9.049  21.755  0.00  0.00    +0.000 C 
ATOM     18  F   UNL     1       0.119  10.269  22.221  0.00  0.00    +0.000 F 
ATOM     19  F   UNL     1      -0.532   8.205  22.003  0.00  0.00    +0.000 F 
ATOM     20  F   UNL     1       1.521   8.644  22.570  0.00  0.00    +0.000 F 
ENDBRANCH  15  17
ENDBRANCH   4  11
BRANCH   7  21
ATOM     21  N   UNL     1       6.222   4.330  16.486  0.00  0.00    +0.000 N 
ATOM     22  O   UNL     1       5.839   3.389  15.778  0.00  0.00    +0.000 OA
ATOM     23  O   UNL     1       7.405   4.553  16.788  0.00  0.00    +0.000 OA
ENDBRANCH   7  21
BRANCH   1  25
ATOM     24  O   UNL     1       1.721   2.295  20.683  0.00  0.00    +0.000 OA
ATOM     25  C   UNL     1       1.984   2.397  19.492  0.00  0.00    +0.000 C 
BRANCH  25  26
ATOM     26  OXT UNL     1       1.774   1.391  18.613  0.00  0.00    +0.000 OA
ATOM     27  HXT UNL     1       1.623   0.532  19.042  0.00  0.00    +0.000 HD
ENDBRANCH  25  26
ENDBRANCH   1  25
TORSDOF 5
ENDMDL
MODEL 8
REMARK VINA RESULT:      -8.3      5.246      7.707
REMARK  Name = 
REMARK  5 active torsions:
REMARK  status: ('A' for Active; 'I' for Inactive)
REMARK    1  A    between atoms: C_2  and  OXT_3
REMARK    2  A    between atoms: C_2  and  CA_4
REMARK    3  A    between atoms: C_7  and  C_8
REMARK    4  A    between atoms: C_12  and  C_13
REMARK    5  A    between atoms: C_20  and  N_21
REMARK                            x       y       z     vdW  Elec       q    Type
REMARK                         _______ _______ _______ _____ _____    ______ ____
ROOT
ATOM      1  CA  UNL     1       2.518   6.783  18.248  0.00  0.00    +0.000 A 
ATOM      2  C   UNL     1       3.443   6.237  17.382  0.00  0.00    +0.000 A 
ATOM      3  C   UNL     1       3.482   4.817  17.558  0.00  0.00    +0.000 A 
ATOM      4  C   UNL     1       4.282   3.766  17.017  0.00  0.00    +0.000 A 
ATOM      5  C   UNL     1       3.954   2.446  17.403  0.00  0.00    +0.000 A 
ATOM      6  C   UNL     1       2.889   2.163  18.261  0.00  0.00    +0.000 A 
ATOM      7  C   UNL     1       2.118   3.197  18.812  0.00  0.00    +0.000 A 
ATOM      8  C   UNL     1       2.457   4.519  18.462  0.00  0.00    +0.000 A 
ATOM      9  N   UNL     1       1.926   5.721  18.889  0.00  0.00    +0.000 N 
ATOM     10  H   UNL     1       1.191   5.809  19.586  0.00  0.00    +0.000 HD
ENDROOT
BRANCH   4  11
ATOM     11  C   UNL     1       5.380   4.062  16.065  0.00  0.00    +0.000 A 
ATOM     12  C   UNL     1       6.549   4.737  16.460  0.00  0.00    +0.000 A 
ATOM     13  C   UNL     1       7.518   5.142  15.539  0.00  0.00    +0.000 A 
ATOM     14  C   UNL     1       7.386   4.801  14.198  0.00  0.00    +0.000 A 
ATOM     15  C   UNL     1       6.287   4.046  13.773  0.00  0.00    +0.000 A 
ATOM     16  C   UNL     1       5.292   3.697  14.708  0.00  0.00    +0.000 A 
BRANCH  15  17
ATOM     17  C   UNL     1       6.159   3.602  12.337  0.00  0.00    +0.000 C 
ATOM     18  F   UNL     1       6.495   2.297  12.136  0.00  0.00    +0.000 F 
ATOM     19  F   UNL     1       4.888   3.738  11.864  0.00  0.00    +0.000 F 
ATOM     20  F   UNL     1       6.950   4.325  11.496  0.00  0.00    +0.000 F 
ENDBRANCH  15  17
ENDBRANCH   4  11
BRANCH   7  21
ATOM     21  N   UNL     1       0.999   2.861  19.702  0.00  0.00    +0.000 N 
ATOM     22  O   UNL     1       0.056   2.209  19.233  0.00  0.00    +0.000 OA
ATOM     23  O   UNL     1       1.067   3.266  20.872  0.00  0.00    +0.000 OA
ENDBRANCH   7  21
BRANCH   1  25
ATOM     24  O   UNL     1       1.815   8.550  19.643  0.00  0.00    +0.000 OA
ATOM     25  C   UNL     1       2.190   8.150  18.549  0.00  0.00    +0.000 C 
BRANCH  25  26
ATOM     26  OXT UNL     1       2.332   8.973  17.485  0.00  0.00    +0.000 OA
ATOM     27  HXT UNL     1       1.734   8.756  16.750  0.00  0.00    +0.000 HD
ENDBRANCH  25  26
ENDBRANCH   1  25
TORSDOF 5
ENDMDL
MODEL 9
REMARK VINA RESULT:      -8.3      5.204      7.596
REMARK  Name = 
REMARK  5 active torsions:
REMARK  status: ('A' for Active; 'I' for Inactive)
REMARK    1  A    between atoms: C_2  and  OXT_3
REMARK    2  A    between atoms: C_2  and  CA_4
REMARK    3  A    between atoms: C_7  and  C_8
REMARK    4  A    between atoms: C_12  and  C_13
REMARK    5  A    between atoms: C_20  and  N_21
REMARK                            x       y       z     vdW  Elec       q    Type
REMARK                         _______ _______ _______ _____ _____    ______ ____
ROOT
ATOM      1  CA  UNL     1       2.567   6.892  18.353  0.00  0.00    +0.000 A 
ATOM      2  C   UNL     1       3.456   6.303  17.478  0.00  0.00    +0.000 A 
ATOM      3  C   UNL     1       3.632   4.927  17.831  0.00  0.00    +0.000 A 
ATOM      4  C   UNL     1       4.469   3.873  17.354  0.00  0.00    +0.000 A 
ATOM      5  C   UNL     1       4.291   2.598  17.938  0.00  0.00    +0.000 A 
ATOM      6  C   UNL     1       3.334   2.358  18.927  0.00  0.00    +0.000 A 
ATOM      7  C   UNL     1       2.529   3.398  19.413  0.00  0.00    +0.000 A 
ATOM      8  C   UNL     1       2.721   4.681  18.863  0.00  0.00    +0.000 A 
ATOM      9  N   UNL     1       2.127   5.887  19.181  0.00  0.00    +0.000 N 
ATOM     10  H   UNL     1       1.452   6.016  19.931  0.00  0.00    +0.000 HD
ENDROOT
BRANCH   4  11
ATOM     11  C   UNL     1       5.449   4.116  16.268  0.00  0.00    +0.000 A 
ATOM     12  C   UNL     1       6.669   4.778  16.497  0.00  0.00    +0.000 A 
ATOM     13  C   UNL     1       7.527   5.133  15.454  0.00  0.00    +0.000 A 
ATOM     14  C   UNL     1       7.228   4.754  14.150  0.00  0.00    +0.000 A 
ATOM     15  C   UNL     1       6.073   4.010  13.886  0.00  0.00    +0.000 A 
ATOM     16  C   UNL     1       5.191   3.712  14.945  0.00  0.00    +0.000 A 
BRANCH  15  17
ATOM     17  C   UNL     1       5.764   3.526  12.491  0.00  0.00    +0.000 C 
ATOM     18  F   UNL     1       6.539   4.102  11.529  0.00  0.00    +0.000 F 
ATOM     19  F   UNL     1       5.943   2.181  12.358  0.00  0.00    +0.000 F 
ATOM     20  F   UNL     1       4.475   3.769  12.128  0.00  0.00    +0.000 F 
ENDBRANCH  15  17
ENDBRANCH   4  11
BRANCH   7  21
ATOM     21  N   UNL     1       1.525   3.105  20.445  0.00  0.00    +0.000 N 
ATOM     22  O   UNL     1       1.863   2.398  21.404  0.00  0.00    +0.000 OA
ATOM     23  O   UNL     1       0.392   3.582  20.281  0.00  0.00    +0.000 OA
ENDBRANCH   7  21
BRANCH   1  25
ATOM     24  O   UNL     1       1.639   8.722  19.517  0.00  0.00    +0.000 OA
ATOM     25  C   UNL     1       2.151   8.260  18.506  0.00  0.00    +0.000 C 
BRANCH  25  26
ATOM     26  OXT UNL     1       2.376   9.006  17.400  0.00  0.00    +0.000 OA
ATOM     27  HXT UNL     1       2.236   9.957  17.544  0.00  0.00    +0.000 HD
ENDBRANCH  25  26
ENDBRANCH   1  25
TORSDOF 5
ENDMDL
