MODEL 1
REMARK VINA RESULT:      -8.1      0.000      0.000
REMARK  Name = 
REMARK  9 active torsions:
REMARK  status: ('A' for Active; 'I' for Inactive)
REMARK    1  A    between atoms: C_1  and  C_2
REMARK    2  A    between atoms: C_2  and  O_3
REMARK    3  A    between atoms: O_3  and  C_4
REMARK    4  A    between atoms: C_4  and  C_6
REMARK    5  A    between atoms: C_6  and  N_7
REMARK    6  A    between atoms: C_13  and  C_14
REMARK    7  A    between atoms: C_16  and  N_17
REMARK    8  A    between atoms: N_17  and  C_18
REMARK    9  A    between atoms: N_21  and  C_22
REMARK                            x       y       z     vdW  Elec       q    Type
REMARK                         _______ _______ _______ _____ _____    ______ ____
ROOT
ATOM      1  N   UNL     1       0.054   9.569  20.506  0.00  0.00    +0.000 N 
ATOM      2  N   UNL     1      -0.362  10.662  19.831  0.00  0.00    +0.000 NA
ATOM      3  C   UNL     1       0.385  10.651  18.727  0.00  0.00    +0.000 A 
ATOM      4  C   UNL     1       1.245   9.536  18.663  0.00  0.00    +0.000 A 
ATOM      5  C   UNL     1       2.192   9.053  17.744  0.00  0.00    +0.000 A 
ATOM      6  C   UNL     1       2.848   7.847  18.018  0.00  0.00    +0.000 A 
ATOM      7  C   UNL     1       2.576   7.128  19.188  0.00  0.00    +0.000 A 
ATOM      8  C   UNL     1       1.642   7.609  20.123  0.00  0.00    +0.000 A 
ATOM      9  C   UNL     1       0.992   8.821  19.832  0.00  0.00    +0.000 A 
ENDROOT
BRANCH   7  10
ATOM     10  C   UNL     1       3.219   5.819  19.391  0.00  0.00    +0.000 A 
ATOM     11  C   UNL     1       4.503   5.506  18.812  0.00  0.00    +0.000 A 
ATOM     12  C   UNL     1       5.127   4.330  18.987  0.00  0.00    +0.000 A 
ATOM     13  C   UNL     1       4.411   3.287  19.848  0.00  0.00    +0.000 A 
ATOM     14  O   UNL     1       4.952   2.190  20.029  0.00  0.00    +0.000 OA
ATOM     15  N   UNL     1       3.175   3.650  20.381  0.00  0.00    +0.000 N 
ATOM     16  C   UNL     1       2.454   2.708  21.219  0.00  0.00    +0.000 C 
ATOM     17  C   UNL     1       2.603   4.891  20.149  0.00  0.00    +0.000 A 
BRANCH  12  18
ATOM     18  N   UNL     1       6.354   3.964  18.459  0.00  0.00    +0.000 N 
ATOM     19  C   UNL     1       7.199   4.671  17.534  0.00  0.00    +0.000 C 
ATOM     20  H   UNL     1       6.705   3.085  18.847  0.00  0.00    +0.000 HD
ENDBRANCH  12  18
ENDBRANCH   7  10
BRANCH   1  21
ATOM     21  C   UNL     1      -0.573   9.266  21.774  0.00  0.00    +0.000 C 
BRANCH  21  22
ATOM     22  C   UNL     1       0.052  10.032  22.900  0.00  0.00    +0.000 C 
ATOM     23  O   UNL     1       0.548   9.550  23.910  0.00  0.00    +0.000 OA
BRANCH  22  24
ATOM     24  O   UNL     1      -0.180  11.367  22.711  0.00  0.00    +0.000 OA
BRANCH  24  26
ATOM     25  C   UNL     1      -1.412  13.322  23.282  0.00  0.00    +0.000 C 
ATOM     26  C   UNL     1      -1.495  11.823  23.061  0.00  0.00    +0.000 C 
ENDBRANCH  24  26
ENDBRANCH  22  24
ENDBRANCH  21  22
ENDBRANCH   1  21
TORSDOF 6
ENDMDL
MODEL 2
REMARK VINA RESULT:      -7.8      2.155      7.440
REMARK  Name = 
REMARK  9 active torsions:
REMARK  status: ('A' for Active; 'I' for Inactive)
REMARK    1  A    between atoms: C_1  and  C_2
REMARK    2  A    between atoms: C_2  and  O_3
REMARK    3  A    between atoms: O_3  and  C_4
REMARK    4  A    between atoms: C_4  and  C_6
REMARK    5  A    between atoms: C_6  and  N_7
REMARK    6  A    between atoms: C_13  and  C_14
REMARK    7  A    between atoms: C_16  and  N_17
REMARK    8  A    between atoms: N_17  and  C_18
REMARK    9  A    between atoms: N_21  and  C_22
REMARK                            x       y       z     vdW  Elec       q    Type
REMARK                         _______ _______ _______ _____ _____    ______ ____
ROOT
ATOM      1  N   UNL     1       3.642   3.563  17.309  0.00  0.00    +0.000 N 
ATOM      2  N   UNL     1       4.780   3.129  16.725  0.00  0.00    +0.000 NA
ATOM      3  C   UNL     1       5.422   4.256  16.418  0.00  0.00    +0.000 A 
ATOM      4  C   UNL     1       4.730   5.410  16.841  0.00  0.00    +0.000 A 
ATOM      5  C   UNL     1       4.963   6.795  16.784  0.00  0.00    +0.000 A 
ATOM      6  C   UNL     1       4.030   7.663  17.363  0.00  0.00    +0.000 A 
ATOM      7  C   UNL     1       2.877   7.170  17.986  0.00  0.00    +0.000 A 
ATOM      8  C   UNL     1       2.625   5.788  18.035  0.00  0.00    +0.000 A 
ATOM      9  C   UNL     1       3.573   4.930  17.450  0.00  0.00    +0.000 A 
ENDROOT
BRANCH   7  10
ATOM     10  C   UNL     1       1.971   8.112  18.664  0.00  0.00    +0.000 A 
ATOM     11  C   UNL     1       1.119   9.012  17.923  0.00  0.00    +0.000 A 
ATOM     12  C   UNL     1       0.270   9.873  18.505  0.00  0.00    +0.000 A 
ATOM     13  C   UNL     1       0.227   9.879  20.034  0.00  0.00    +0.000 A 
ATOM     14  O   UNL     1      -0.540  10.661  20.607  0.00  0.00    +0.000 OA
ATOM     15  N   UNL     1       1.070   8.984  20.692  0.00  0.00    +0.000 N 
ATOM     16  C   UNL     1       1.064   8.932  22.144  0.00  0.00    +0.000 C 
ATOM     17  C   UNL     1       1.918   8.127  20.010  0.00  0.00    +0.000 A 
BRANCH  12  18
ATOM     18  N   UNL     1      -0.570  10.765  17.857  0.00  0.00    +0.000 N 
ATOM     19  C   UNL     1      -1.820  10.521  17.187  0.00  0.00    +0.000 C 
ATOM     20  H   UNL     1      -0.252  11.733  17.932  0.00  0.00    +0.000 HD
ENDBRANCH  12  18
ENDBRANCH   7  10
BRANCH   1  21
ATOM     21  C   UNL     1       2.698   2.577  17.786  0.00  0.00    +0.000 C 
BRANCH  21  22
ATOM     22  C   UNL     1       2.926   2.243  19.230  0.00  0.00    +0.000 C 
ATOM     23  O   UNL     1       4.007   2.007  19.751  0.00  0.00    +0.000 OA
BRANCH  22  24
ATOM     24  O   UNL     1       1.714   2.063  19.839  0.00  0.00    +0.000 OA
BRANCH  24  26
ATOM     25  C   UNL     1       1.106   4.199  20.696  0.00  0.00    +0.000 C 
ATOM     26  C   UNL     1       1.522   2.786  21.063  0.00  0.00    +0.000 C 
ENDBRANCH  24  26
ENDBRANCH  22  24
ENDBRANCH  21  22
ENDBRANCH   1  21
TORSDOF 6
ENDMDL
MODEL 3
REMARK VINA RESULT:      -7.8      2.613      7.770
REMARK  Name = 
REMARK  9 active torsions:
REMARK  status: ('A' for Active; 'I' for Inactive)
REMARK    1  A    between atoms: C_1  and  C_2
REMARK    2  A    between atoms: C_2  and  O_3
REMARK    3  A    between atoms: O_3  and  C_4
REMARK    4  A    between atoms: C_4  and  C_6
REMARK    5  A    between atoms: C_6  and  N_7
REMARK    6  A    between atoms: C_13  and  C_14
REMARK    7  A    between atoms: C_16  and  N_17
REMARK    8  A    between atoms: N_17  and  C_18
REMARK    9  A    between atoms: N_21  and  C_22
REMARK                            x       y       z     vdW  Elec       q    Type
REMARK                         _______ _______ _______ _____ _____    ______ ____
ROOT
ATOM      1  N   UNL     1       6.021   5.427  17.026  0.00  0.00    +0.000 N 
ATOM      2  N   UNL     1       6.213   4.244  16.404  0.00  0.00    +0.000 NA
ATOM      3  C   UNL     1       5.018   3.656  16.477  0.00  0.00    +0.000 A 
ATOM      4  C   UNL     1       4.048   4.469  17.099  0.00  0.00    +0.000 A 
ATOM      5  C   UNL     1       2.683   4.343  17.404  0.00  0.00    +0.000 A 
ATOM      6  C   UNL     1       2.024   5.416  18.017  0.00  0.00    +0.000 A 
ATOM      7  C   UNL     1       2.707   6.597  18.330  0.00  0.00    +0.000 A 
ATOM      8  C   UNL     1       4.078   6.729  18.045  0.00  0.00    +0.000 A 
ATOM      9  C   UNL     1       4.723   5.643  17.428  0.00  0.00    +0.000 A 
ENDROOT
BRANCH   7  10
ATOM     10  C   UNL     1       1.956   7.733  18.889  0.00  0.00    +0.000 A 
ATOM     11  C   UNL     1       1.239   8.659  18.044  0.00  0.00    +0.000 A 
ATOM     12  C   UNL     1       0.532   9.697  18.517  0.00  0.00    +0.000 A 
ATOM     13  C   UNL     1       0.504   9.884  20.035  0.00  0.00    +0.000 A 
ATOM     14  O   UNL     1      -0.133  10.831  20.509  0.00  0.00    +0.000 OA
ATOM     15  N   UNL     1       1.213   8.955  20.797  0.00  0.00    +0.000 N 
ATOM     16  C   UNL     1       1.213   9.071  22.246  0.00  0.00    +0.000 C 
ATOM     17  C   UNL     1       1.919   7.910  20.224  0.00  0.00    +0.000 A 
BRANCH  12  18
ATOM     18  N   UNL     1      -0.174  10.622  17.765  0.00  0.00    +0.000 N 
ATOM     19  C   UNL     1      -1.590  10.719  17.529  0.00  0.00    +0.000 C 
ATOM     20  H   UNL     1       0.423  11.358  17.382  0.00  0.00    +0.000 HD
ENDBRANCH  12  18
ENDBRANCH   7  10
BRANCH   1  21
ATOM     21  C   UNL     1       7.138   6.343  17.115  0.00  0.00    +0.000 C 
BRANCH  21  22
ATOM     22  C   UNL     1       7.778   6.307  18.470  0.00  0.00    +0.000 C 
ATOM     23  O   UNL     1       7.640   5.425  19.308  0.00  0.00    +0.000 OA
BRANCH  22  24
ATOM     24  O   UNL     1       8.398   7.505  18.699  0.00  0.00    +0.000 OA
BRANCH  24  26
ATOM     25  C   UNL     1       8.721   9.831  18.314  0.00  0.00    +0.000 C 
ATOM     26  C   UNL     1       7.999   8.583  17.840  0.00  0.00    +0.000 C 
ENDBRANCH  24  26
ENDBRANCH  22  24
ENDBRANCH  21  22
ENDBRANCH   1  21
TORSDOF 6
ENDMDL
MODEL 4
REMARK VINA RESULT:      -7.6      2.308      7.884
REMARK  Name = 
REMARK  9 active torsions:
REMARK  status: ('A' for Active; 'I' for Inactive)
REMARK    1  A    between atoms: C_1  and  C_2
REMARK    2  A    between atoms: C_2  and  O_3
REMARK    3  A    between atoms: O_3  and  C_4
REMARK    4  A    between atoms: C_4  and  C_6
REMARK    5  A    between atoms: C_6  and  N_7
REMARK    6  A    between atoms: C_13  and  C_14
REMARK    7  A    between atoms: C_16  and  N_17
REMARK    8  A    between atoms: N_17  and  C_18
REMARK    9  A    between atoms: N_21  and  C_22
REMARK                            x       y       z     vdW  Elec       q    Type
REMARK                         _______ _______ _______ _____ _____    ______ ____
ROOT
ATOM      1  N   UNL     1       4.630   4.888  17.242  0.00  0.00    +0.000 N 
ATOM      2  N   UNL     1       4.752   3.544  17.199  0.00  0.00    +0.000 NA
ATOM      3  C   UNL     1       3.970   3.128  18.195  0.00  0.00    +0.000 A 
ATOM      4  C   UNL     1       3.308   4.188  18.848  0.00  0.00    +0.000 A 
ATOM      5  C   UNL     1       2.393   4.296  19.909  0.00  0.00    +0.000 A 
ATOM      6  C   UNL     1       1.915   5.563  20.265  0.00  0.00    +0.000 A 
ATOM      7  C   UNL     1       2.339   6.710  19.584  0.00  0.00    +0.000 A 
ATOM      8  C   UNL     1       3.267   6.617  18.532  0.00  0.00    +0.000 A 
ATOM      9  C   UNL     1       3.736   5.338  18.187  0.00  0.00    +0.000 A 
ENDROOT
BRANCH   7  10
ATOM     10  C   UNL     1       1.741   8.011  19.929  0.00  0.00    +0.000 A 
ATOM     11  C   UNL     1       1.731   9.114  18.998  0.00  0.00    +0.000 A 
ATOM     12  C   UNL     1       1.183  10.308  19.272  0.00  0.00    +0.000 A 
ATOM     13  C   UNL     1       0.544  10.479  20.652  0.00  0.00    +0.000 A 
ATOM     14  O   UNL     1       0.032  11.565  20.942  0.00  0.00    +0.000 OA
ATOM     15  N   UNL     1       0.583   9.376  21.504  0.00  0.00    +0.000 N 
ATOM     16  C   UNL     1      -0.020   9.471  22.823  0.00  0.00    +0.000 C 
ATOM     17  C   UNL     1       1.172   8.176  21.139  0.00  0.00    +0.000 A 
BRANCH  12  18
ATOM     18  N   UNL     1       1.142  11.406  18.429  0.00  0.00    +0.000 N 
ATOM     19  C   UNL     1       2.079  12.490  18.293  0.00  0.00    +0.000 C 
ATOM     20  H   UNL     1       0.346  11.384  17.788  0.00  0.00    +0.000 HD
ENDBRANCH  12  18
ENDBRANCH   7  10
BRANCH   1  21
ATOM     21  C   UNL     1       5.354   5.674  16.267  0.00  0.00    +0.000 C 
BRANCH  21  22
ATOM     22  C   UNL     1       6.832   5.433  16.346  0.00  0.00    +0.000 C 
ATOM     23  O   UNL     1       7.454   4.575  15.734  0.00  0.00    +0.000 OA
BRANCH  22  24
ATOM     24  O   UNL     1       7.353   6.203  17.349  0.00  0.00    +0.000 OA
BRANCH  24  26
ATOM     25  C   UNL     1       8.140   8.365  17.959  0.00  0.00    +0.000 C 
ATOM     26  C   UNL     1       7.008   7.595  17.305  0.00  0.00    +0.000 C 
ENDBRANCH  24  26
ENDBRANCH  22  24
ENDBRANCH  21  22
ENDBRANCH   1  21
TORSDOF 6
ENDMDL
MODEL 5
REMARK VINA RESULT:      -7.5      2.013      7.782
REMARK  Name = 
REMARK  9 active torsions:
REMARK  status: ('A' for Active; 'I' for Inactive)
REMARK    1  A    between atoms: C_1  and  C_2
REMARK    2  A    between atoms: C_2  and  O_3
REMARK    3  A    between atoms: O_3  and  C_4
REMARK    4  A    between atoms: C_4  and  C_6
REMARK    5  A    between atoms: C_6  and  N_7
REMARK    6  A    between atoms: C_13  and  C_14
REMARK    7  A    between atoms: C_16  and  N_17
REMARK    8  A    between atoms: N_17  and  C_18
REMARK    9  A    between atoms: N_21  and  C_22
REMARK                            x       y       z     vdW  Elec       q    Type
REMARK                         _______ _______ _______ _____ _____    ______ ____
ROOT
ATOM      1  N   UNL     1       4.304   3.884  18.076  0.00  0.00    +0.000 N 
ATOM      2  N   UNL     1       4.208   2.537  18.112  0.00  0.00    +0.000 NA
ATOM      3  C   UNL     1       3.242   2.317  19.003  0.00  0.00    +0.000 A 
ATOM      4  C   UNL     1       2.682   3.510  19.507  0.00  0.00    +0.000 A 
ATOM      5  C   UNL     1       1.664   3.831  20.420  0.00  0.00    +0.000 A 
ATOM      6  C   UNL     1       1.356   5.178  20.646  0.00  0.00    +0.000 A 
ATOM      7  C   UNL     1       2.051   6.196  19.982  0.00  0.00    +0.000 A 
ATOM      8  C   UNL     1       3.083   5.888  19.079  0.00  0.00    +0.000 A 
ATOM      9  C   UNL     1       3.377   4.531  18.862  0.00  0.00    +0.000 A 
ENDROOT
BRANCH   7  10
ATOM     10  C   UNL     1       1.633   7.594  20.179  0.00  0.00    +0.000 A 
ATOM     11  C   UNL     1       1.731   8.573  19.122  0.00  0.00    +0.000 A 
ATOM     12  C   UNL     1       1.347   9.851  19.259  0.00  0.00    +0.000 A 
ATOM     13  C   UNL     1       0.782  10.264  20.620  0.00  0.00    +0.000 A 
ATOM     14  O   UNL     1       0.421  11.434  20.786  0.00  0.00    +0.000 OA
ATOM     15  N   UNL     1       0.710   9.273  21.599  0.00  0.00    +0.000 N 
ATOM     16  C   UNL     1       0.168   9.599  22.907  0.00  0.00    +0.000 C 
ATOM     17  C   UNL     1       1.130   7.973  21.370  0.00  0.00    +0.000 A 
BRANCH  12  18
ATOM     18  N   UNL     1       1.417  10.839  18.291  0.00  0.00    +0.000 N 
ATOM     19  C   UNL     1       2.368  11.910  18.144  0.00  0.00    +0.000 C 
ATOM     20  H   UNL     1       0.709  10.730  17.562  0.00  0.00    +0.000 HD
ENDBRANCH  12  18
ENDBRANCH   7  10
BRANCH   1  21
ATOM     21  C   UNL     1       5.271   4.479  17.180  0.00  0.00    +0.000 C 
BRANCH  21  22
ATOM     22  C   UNL     1       6.578   4.738  17.866  0.00  0.00    +0.000 C 
ATOM     23  O   UNL     1       6.818   4.549  19.051  0.00  0.00    +0.000 OA
BRANCH  22  24
ATOM     24  O   UNL     1       7.411   5.391  17.000  0.00  0.00    +0.000 OA
BRANCH  24  26
ATOM     25  C   UNL     1       7.736   7.626  17.752  0.00  0.00    +0.000 C 
ATOM     26  C   UNL     1       7.062   6.752  16.711  0.00  0.00    +0.000 C 
ENDBRANCH  24  26
ENDBRANCH  22  24
ENDBRANCH  21  22
ENDBRANCH   1  21
TORSDOF 6
ENDMDL
MODEL 6
REMARK VINA RESULT:      -7.5      0.743      2.300
REMARK  Name = 
REMARK  9 active torsions:
REMARK  status: ('A' for Active; 'I' for Inactive)
REMARK    1  A    between atoms: C_1  and  C_2
REMARK    2  A    between atoms: C_2  and  O_3
REMARK    3  A    between atoms: O_3  and  C_4
REMARK    4  A    between atoms: C_4  and  C_6
REMARK    5  A    between atoms: C_6  and  N_7
REMARK    6  A    between atoms: C_13  and  C_14
REMARK    7  A    between atoms: C_16  and  N_17
REMARK    8  A    between atoms: N_17  and  C_18
REMARK    9  A    between atoms: N_21  and  C_22
REMARK                            x       y       z     vdW  Elec       q    Type
REMARK                         _______ _______ _______ _____ _____    ______ ____
ROOT
ATOM      1  N   UNL     1      -0.096   9.783  20.425  0.00  0.00    +0.000 N 
ATOM      2  N   UNL     1      -0.511  10.900  19.788  0.00  0.00    +0.000 NA
ATOM      3  C   UNL     1       0.255  10.940  18.698  0.00  0.00    +0.000 A 
ATOM      4  C   UNL     1       1.127   9.836  18.604  0.00  0.00    +0.000 A 
ATOM      5  C   UNL     1       2.095   9.399  17.684  0.00  0.00    +0.000 A 
ATOM      6  C   UNL     1       2.757   8.189  17.919  0.00  0.00    +0.000 A 
ATOM      7  C   UNL     1       2.471   7.420  19.054  0.00  0.00    +0.000 A 
ATOM      8  C   UNL     1       1.516   7.854  19.991  0.00  0.00    +0.000 A 
ATOM      9  C   UNL     1       0.860   9.071  19.738  0.00  0.00    +0.000 A 
ENDROOT
BRANCH   7  10
ATOM     10  C   UNL     1       3.122   6.109  19.215  0.00  0.00    +0.000 A 
ATOM     11  C   UNL     1       2.633   5.128  20.154  0.00  0.00    +0.000 A 
ATOM     12  C   UNL     1       3.191   3.919  20.318  0.00  0.00    +0.000 A 
ATOM     13  C   UNL     1       4.410   3.593  19.452  0.00  0.00    +0.000 A 
ATOM     14  O   UNL     1       4.953   2.491  19.577  0.00  0.00    +0.000 OA
ATOM     15  N   UNL     1       4.832   4.581  18.562  0.00  0.00    +0.000 N 
ATOM     16  C   UNL     1       5.975   4.326  17.702  0.00  0.00    +0.000 C 
ATOM     17  C   UNL     1       4.194   5.807  18.458  0.00  0.00    +0.000 A 
BRANCH  12  18
ATOM     18  N   UNL     1       2.776   2.934  21.200  0.00  0.00    +0.000 N 
ATOM     19  C   UNL     1       1.442   2.543  21.572  0.00  0.00    +0.000 C 
ATOM     20  H   UNL     1       3.554   2.392  21.582  0.00  0.00    +0.000 HD
ENDBRANCH  12  18
ENDBRANCH   7  10
BRANCH   1  21
ATOM     21  C   UNL     1      -0.743   9.423  21.667  0.00  0.00    +0.000 C 
BRANCH  21  22
ATOM     22  C   UNL     1      -0.021   9.986  22.854  0.00  0.00    +0.000 C 
ATOM     23  O   UNL     1       1.146   9.770  23.155  0.00  0.00    +0.000 OA
BRANCH  22  24
ATOM     24  O   UNL     1      -0.921  10.637  23.652  0.00  0.00    +0.000 OA
BRANCH  24  26
ATOM     25  C   UNL     1      -1.042  12.892  22.900  0.00  0.00    +0.000 C 
ATOM     26  C   UNL     1      -1.782  11.570  22.984  0.00  0.00    +0.000 C 
ENDBRANCH  24  26
ENDBRANCH  22  24
ENDBRANCH  21  22
ENDBRANCH   1  21
TORSDOF 6
ENDMDL
MODEL 7
REMARK VINA RESULT:      -7.4      2.223      7.790
REMARK  Name = 
REMARK  9 active torsions:
REMARK  status: ('A' for Active; 'I' for Inactive)
REMARK    1  A    between atoms: C_1  and  C_2
REMARK    2  A    between atoms: C_2  and  O_3
REMARK    3  A    between atoms: O_3  and  C_4
REMARK    4  A    between atoms: C_4  and  C_6
REMARK    5  A    between atoms: C_6  and  N_7
REMARK    6  A    between atoms: C_13  and  C_14
REMARK    7  A    between atoms: C_16  and  N_17
REMARK    8  A    between atoms: N_17  and  C_18
REMARK    9  A    between atoms: N_21  and  C_22
REMARK                            x       y       z     vdW  Elec       q    Type
REMARK                         _______ _______ _______ _____ _____    ______ ____
ROOT
ATOM      1  N   UNL     1       4.271   4.670  17.289  0.00  0.00    +0.000 N 
ATOM      2  N   UNL     1       4.355   3.322  17.298  0.00  0.00    +0.000 NA
ATOM      3  C   UNL     1       3.639   2.972  18.367  0.00  0.00    +0.000 A 
ATOM      4  C   UNL     1       3.057   4.079  19.019  0.00  0.00    +0.000 A 
ATOM      5  C   UNL     1       2.227   4.259  20.138  0.00  0.00    +0.000 A 
ATOM      6  C   UNL     1       1.810   5.554  20.471  0.00  0.00    +0.000 A 
ATOM      7  C   UNL     1       2.212   6.658  19.710  0.00  0.00    +0.000 A 
ATOM      8  C   UNL     1       3.055   6.492  18.597  0.00  0.00    +0.000 A 
ATOM      9  C   UNL     1       3.463   5.186  18.276  0.00  0.00    +0.000 A 
ENDROOT
BRANCH   7  10
ATOM     10  C   UNL     1       1.675   7.989  20.039  0.00  0.00    +0.000 A 
ATOM     11  C   UNL     1       1.665   9.064  19.076  0.00  0.00    +0.000 A 
ATOM     12  C   UNL     1       1.172  10.285  19.335  0.00  0.00    +0.000 A 
ATOM     13  C   UNL     1       0.599  10.519  20.734  0.00  0.00    +0.000 A 
ATOM     14  O   UNL     1       0.138  11.632  21.012  0.00  0.00    +0.000 OA
ATOM     15  N   UNL     1       0.635   9.442  21.618  0.00  0.00    +0.000 N 
ATOM     16  C   UNL     1       0.092   9.598  22.958  0.00  0.00    +0.000 C 
ATOM     17  C   UNL     1       1.165   8.211  21.266  0.00  0.00    +0.000 A 
BRANCH  12  18
ATOM     18  N   UNL     1       1.134  11.359  18.461  0.00  0.00    +0.000 N 
ATOM     19  C   UNL     1       2.120  12.379  18.223  0.00  0.00    +0.000 C 
ATOM     20  H   UNL     1       0.294  11.366  17.879  0.00  0.00    +0.000 HD
ENDBRANCH  12  18
ENDBRANCH   7  10
BRANCH   1  21
ATOM     21  C   UNL     1       4.940   5.391  16.228  0.00  0.00    +0.000 C 
BRANCH  21  22
ATOM     22  C   UNL     1       6.146   6.126  16.731  0.00  0.00    +0.000 C 
ATOM     23  O   UNL     1       6.349   7.328  16.631  0.00  0.00    +0.000 OA
BRANCH  22  24
ATOM     24  O   UNL     1       7.074   5.215  17.157  0.00  0.00    +0.000 OA
BRANCH  24  26
ATOM     25  C   UNL     1       6.798   5.427  19.511  0.00  0.00    +0.000 C 
ATOM     26  C   UNL     1       7.776   5.561  18.359  0.00  0.00    +0.000 C 
ENDBRANCH  24  26
ENDBRANCH  22  24
ENDBRANCH  21  22
ENDBRANCH   1  21
TORSDOF 6
ENDMDL
MODEL 8
REMARK VINA RESULT:      -7.4      2.236      8.214
REMARK  Name = 
REMARK  9 active torsions:
REMARK  status: ('A' for Active; 'I' for Inactive)
REMARK    1  A    between atoms: C_1  and  C_2
REMARK    2  A    between atoms: C_2  and  O_3
REMARK    3  A    between atoms: O_3  and  C_4
REMARK    4  A    between atoms: C_4  and  C_6
REMARK    5  A    between atoms: C_6  and  N_7
REMARK    6  A    between atoms: C_13  and  C_14
REMARK    7  A    between atoms: C_16  and  N_17
REMARK    8  A    between atoms: N_17  and  C_18
REMARK    9  A    between atoms: N_21  and  C_22
REMARK                            x       y       z     vdW  Elec       q    Type
REMARK                         _______ _______ _______ _____ _____    ______ ____
ROOT
ATOM      1  N   UNL     1       4.335   4.502  17.598  0.00  0.00    +0.000 N 
ATOM      2  N   UNL     1       4.400   3.154  17.643  0.00  0.00    +0.000 NA
ATOM      3  C   UNL     1       3.629   2.840  18.684  0.00  0.00    +0.000 A 
ATOM      4  C   UNL     1       3.032   3.969  19.281  0.00  0.00    +0.000 A 
ATOM      5  C   UNL     1       2.152   4.187  20.355  0.00  0.00    +0.000 A 
ATOM      6  C   UNL     1       1.738   5.494  20.637  0.00  0.00    +0.000 A 
ATOM      7  C   UNL     1       2.191   6.575  19.869  0.00  0.00    +0.000 A 
ATOM      8  C   UNL     1       3.083   6.371  18.803  0.00  0.00    +0.000 A 
ATOM      9  C   UNL     1       3.488   5.052  18.533  0.00  0.00    +0.000 A 
ENDROOT
BRANCH   7  10
ATOM     10  C   UNL     1       1.657   7.920  20.141  0.00  0.00    +0.000 A 
ATOM     11  C   UNL     1       1.675   8.960  19.140  0.00  0.00    +0.000 A 
ATOM     12  C   UNL     1       1.185  10.193  19.346  0.00  0.00    +0.000 A 
ATOM     13  C   UNL     1       0.585  10.480  20.724  0.00  0.00    +0.000 A 
ATOM     14  O   UNL     1       0.128  11.605  20.953  0.00  0.00    +0.000 OA
ATOM     15  N   UNL     1       0.595   9.434  21.646  0.00  0.00    +0.000 N 
ATOM     16  C   UNL     1       0.027   9.641  22.967  0.00  0.00    +0.000 C 
ATOM     17  C   UNL     1       1.123   8.188  21.348  0.00  0.00    +0.000 A 
BRANCH  12  18
ATOM     18  N   UNL     1       1.173  11.236  18.434  0.00  0.00    +0.000 N 
ATOM     19  C   UNL     1       2.141  12.281  18.228  0.00  0.00    +0.000 C 
ATOM     20  H   UNL     1       0.375  11.195  17.797  0.00  0.00    +0.000 HD
ENDBRANCH  12  18
ENDBRANCH   7  10
BRANCH   1  21
ATOM     21  C   UNL     1       5.064   5.189  16.554  0.00  0.00    +0.000 C 
BRANCH  21  22
ATOM     22  C   UNL     1       6.496   5.417  16.933  0.00  0.00    +0.000 C 
ATOM     23  O   UNL     1       6.896   6.181  17.801  0.00  0.00    +0.000 OA
BRANCH  22  24
ATOM     24  O   UNL     1       7.300   4.775  16.033  0.00  0.00    +0.000 OA
BRANCH  24  26
ATOM     25  C   UNL     1       7.373   4.939  13.659  0.00  0.00    +0.000 C 
ATOM     26  C   UNL     1       6.651   4.315  14.839  0.00  0.00    +0.000 C 
ENDBRANCH  24  26
ENDBRANCH  22  24
ENDBRANCH  21  22
ENDBRANCH   1  21
TORSDOF 6
ENDMDL
MODEL 9
REMARK VINA RESULT:      -7.4      2.169      7.432
REMARK  Name = 
REMARK  9 active torsions:
REMARK  status: ('A' for Active; 'I' for Inactive)
REMARK    1  A    between atoms: C_1  and  C_2
REMARK    2  A    between atoms: C_2  and  O_3
REMARK    3  A    between atoms: O_3  and  C_4
REMARK    4  A    between atoms: C_4  and  C_6
REMARK    5  A    between atoms: C_6  and  N_7
REMARK    6  A    between atoms: C_13  and  C_14
REMARK    7  A    between atoms: C_16  and  N_17
REMARK    8  A    between atoms: N_17  and  C_18
REMARK    9  A    between atoms: N_21  and  C_22
REMARK                            x       y       z     vdW  Elec       q    Type
REMARK                         _______ _______ _______ _____ _____    ______ ____
ROOT
ATOM      1  N   UNL     1       4.185   3.584  17.426  0.00  0.00    +0.000 N 
ATOM      2  N   UNL     1       5.205   3.142  16.658  0.00  0.00    +0.000 NA
ATOM      3  C   UNL     1       5.645   4.248  16.059  0.00  0.00    +0.000 A 
ATOM      4  C   UNL     1       4.950   5.405  16.470  0.00  0.00    +0.000 A 
ATOM      5  C   UNL     1       5.024   6.776  16.172  0.00  0.00    +0.000 A 
ATOM      6  C   UNL     1       4.159   7.659  16.830  0.00  0.00    +0.000 A 
ATOM      7  C   UNL     1       3.228   7.192  17.766  0.00  0.00    +0.000 A 
ATOM      8  C   UNL     1       3.134   5.821  18.060  0.00  0.00    +0.000 A 
ATOM      9  C   UNL     1       4.011   4.948  17.392  0.00  0.00    +0.000 A 
ENDROOT
BRANCH   7  10
ATOM     10  C   UNL     1       2.403   8.164  18.502  0.00  0.00    +0.000 A 
ATOM     11  C   UNL     1       2.049   9.444  17.934  0.00  0.00    +0.000 A 
ATOM     12  C   UNL     1       1.287  10.349  18.568  0.00  0.00    +0.000 A 
ATOM     13  C   UNL     1       0.785   9.977  19.965  0.00  0.00    +0.000 A 
ATOM     14  O   UNL     1       0.083  10.787  20.582  0.00  0.00    +0.000 OA
ATOM     15  N   UNL     1       1.158   8.727  20.456  0.00  0.00    +0.000 N 
ATOM     16  C   UNL     1       0.700   8.310  21.771  0.00  0.00    +0.000 C 
ATOM     17  C   UNL     1       1.950   7.851  19.731  0.00  0.00    +0.000 A 
BRANCH  12  18
ATOM     18  N   UNL     1       0.914  11.592  18.085  0.00  0.00    +0.000 N 
ATOM     19  C   UNL     1       1.541  12.874  18.276  0.00  0.00    +0.000 C 
ATOM     20  H   UNL     1       0.104  11.549  17.463  0.00  0.00    +0.000 HD
ENDBRANCH  12  18
ENDBRANCH   7  10
BRANCH   1  21
ATOM     21  C   UNL     1       3.475   2.623  18.241  0.00  0.00    +0.000 C 
BRANCH  21  22
ATOM     22  C   UNL     1       4.008   2.581  19.642  0.00  0.00    +0.000 C 
ATOM     23  O   UNL     1       4.936   1.888  20.038  0.00  0.00    +0.000 OA
BRANCH  22  24
ATOM     24  O   UNL     1       3.176   3.302  20.453  0.00  0.00    +0.000 OA
BRANCH  24  26
ATOM     25  C   UNL     1       1.331   2.606  21.786  0.00  0.00    +0.000 C 
ATOM     26  C   UNL     1       1.786   2.956  20.381  0.00  0.00    +0.000 C 
ENDBRANCH  24  26
ENDBRANCH  22  24
ENDBRANCH  21  22
ENDBRANCH   1  21
TORSDOF 6
ENDMDL
