MODEL 1
REMARK VINA RESULT:      -8.6      0.000      0.000
REMARK  Name = 
REMARK  7 active torsions:
REMARK  status: ('A' for Active; 'I' for Inactive)
REMARK    1  A    between atoms: C_2  and  C_3
REMARK    2  A    between atoms: C_3  and  C_4
REMARK    3  A    between atoms: C_4  and  C_5
REMARK    4  A    between atoms: C_8  and  C_9
REMARK    5  A    between atoms: N_18  and  C_19
REMARK    6  A    between atoms: C_20  and  C_21
REMARK    7  A    between atoms: C_21  and  O_23
REMARK                            x       y       z     vdW  Elec       q    Type
REMARK                         _______ _______ _______ _____ _____    ______ ____
ROOT
ATOM      1  C   UNL     1       7.715   8.984  17.509  0.00  0.00    +0.000 C 
ENDROOT
BRANCH   1   3
ATOM      2  O   UNL     1       9.122   9.194  19.448  0.00  0.00    +0.000 OA
ATOM      3  C   UNL     1       8.706   9.697  18.410  0.00  0.00    +0.000 C 
ATOM      4  N   UNL     1       9.072  10.942  17.906  0.00  0.00    +0.000 N 
ATOM      5  H   UNL     1       8.655  11.201  17.006  0.00  0.00    +0.000 HD
BRANCH   4   6
ATOM      6  C   UNL     1       9.982  11.858  18.434  0.00  0.00    +0.000 C 
ATOM      7  C   UNL     1       9.658  13.167  18.601  0.00  0.00    +0.000 C 
ATOM      8  C   UNL     1      10.656  14.182  19.108  0.00  0.00    +0.000 C 
ATOM      9  C   UNL     1      12.107  13.710  19.095  0.00  0.00    +0.000 C 
ATOM     10  C   UNL     1      12.202  12.299  19.641  0.00  0.00    +0.000 C 
ATOM     11  C   UNL     1      11.359  11.339  18.806  0.00  0.00    +0.000 C 
BRANCH   7  12
ATOM     12  C   UNL     1       8.300  13.661  18.237  0.00  0.00    +0.000 C 
ATOM     13  O   UNL     1       7.611  14.348  18.983  0.00  0.00    +0.000 OA
BRANCH  12  14
ATOM     14  O   UNL     1       7.854  13.318  17.009  0.00  0.00    +0.000 OA
ATOM     15  H   UNL     1       6.991  12.876  16.954  0.00  0.00    +0.000 HD
ENDBRANCH  12  14
ENDBRANCH   7  12
ENDBRANCH   4   6
ENDBRANCH   1   3
BRANCH   1  16
ATOM     16  C   UNL     1       7.936   7.467  17.492  0.00  0.00    +0.000 C 
BRANCH  16  17
ATOM     17  C   UNL     1       6.716   6.699  17.946  0.00  0.00    +0.000 A 
ATOM     18  C   UNL     1       5.470   6.940  17.364  0.00  0.00    +0.000 A 
ATOM     19  C   UNL     1       4.333   6.248  17.794  0.00  0.00    +0.000 A 
ATOM     20  C   UNL     1       4.396   5.244  18.779  0.00  0.00    +0.000 A 
ATOM     21  C   UNL     1       5.666   4.984  19.321  0.00  0.00    +0.000 A 
ATOM     22  C   UNL     1       6.804   5.711  18.930  0.00  0.00    +0.000 A 
BRANCH  20  23
ATOM     23  C   UNL     1       3.176   4.468  19.147  0.00  0.00    +0.000 A 
ATOM     24  C   UNL     1       2.285   5.026  20.098  0.00  0.00    +0.000 A 
ATOM     25  C   UNL     1       1.121   4.374  20.516  0.00  0.00    +0.000 A 
ATOM     26  C   UNL     1       0.786   3.144  19.970  0.00  0.00    +0.000 A 
ATOM     27  C   UNL     1       1.629   2.564  19.027  0.00  0.00    +0.000 A 
ATOM     28  C   UNL     1       2.818   3.202  18.632  0.00  0.00    +0.000 A 
ATOM     29 CL   UNL     1       3.814   2.295  17.539  0.00  0.00    +0.000 Cl
ENDBRANCH  20  23
ENDBRANCH  16  17
ENDBRANCH   1  16
TORSDOF 7
ENDMDL
MODEL 2
REMARK VINA RESULT:      -8.4      3.887     10.504
REMARK  Name = 
REMARK  7 active torsions:
REMARK  status: ('A' for Active; 'I' for Inactive)
REMARK    1  A    between atoms: C_2  and  C_3
REMARK    2  A    between atoms: C_3  and  C_4
REMARK    3  A    between atoms: C_4  and  C_5
REMARK    4  A    between atoms: C_8  and  C_9
REMARK    5  A    between atoms: N_18  and  C_19
REMARK    6  A    between atoms: C_20  and  C_21
REMARK    7  A    between atoms: C_21  and  O_23
REMARK                            x       y       z     vdW  Elec       q    Type
REMARK                         _______ _______ _______ _____ _____    ______ ____
ROOT
ATOM      1  C   UNL     1       8.010   8.599  17.612  0.00  0.00    +0.000 C 
ENDROOT
BRANCH   1   3
ATOM      2  O   UNL     1       7.883   6.499  18.778  0.00  0.00    +0.000 OA
ATOM      3  C   UNL     1       7.382   7.261  17.958  0.00  0.00    +0.000 C 
ATOM      4  N   UNL     1       6.201   7.038  17.256  0.00  0.00    +0.000 N 
ATOM      5  H   UNL     1       5.902   7.793  16.630  0.00  0.00    +0.000 HD
BRANCH   4   6
ATOM      6  C   UNL     1       5.334   5.948  17.340  0.00  0.00    +0.000 C 
ATOM      7  C   UNL     1       5.597   4.780  16.698  0.00  0.00    +0.000 C 
ATOM      8  C   UNL     1       4.634   3.616  16.725  0.00  0.00    +0.000 C 
ATOM      9  C   UNL     1       3.235   3.958  17.229  0.00  0.00    +0.000 C 
ATOM     10  C   UNL     1       3.323   4.825  18.469  0.00  0.00    +0.000 C 
ATOM     11  C   UNL     1       4.075   6.119  18.171  0.00  0.00    +0.000 C 
BRANCH   7  12
ATOM     12  C   UNL     1       6.840   4.625  15.891  0.00  0.00    +0.000 C 
ATOM     13  O   UNL     1       6.865   4.713  14.668  0.00  0.00    +0.000 OA
BRANCH  12  14
ATOM     14  O   UNL     1       7.972   4.389  16.588  0.00  0.00    +0.000 OA
ATOM     15  H   UNL     1       7.887   4.243  17.544  0.00  0.00    +0.000 HD
ENDBRANCH  12  14
ENDBRANCH   7  12
ENDBRANCH   4   6
ENDBRANCH   1   3
BRANCH   1  16
ATOM     16  C   UNL     1       8.826   9.173  18.776  0.00  0.00    +0.000 C 
BRANCH  16  17
ATOM     17  C   UNL     1       9.187  10.626  18.568  0.00  0.00    +0.000 A 
ATOM     18  C   UNL     1       8.383  11.450  17.780  0.00  0.00    +0.000 A 
ATOM     19  C   UNL     1       8.723  12.790  17.566  0.00  0.00    +0.000 A 
ATOM     20  C   UNL     1       9.846  13.383  18.176  0.00  0.00    +0.000 A 
ATOM     21  C   UNL     1      10.618  12.549  19.001  0.00  0.00    +0.000 A 
ATOM     22  C   UNL     1      10.311  11.189  19.179  0.00  0.00    +0.000 A 
BRANCH  20  23
ATOM     23  C   UNL     1      10.125  14.838  17.993  0.00  0.00    +0.000 A 
ATOM     24  C   UNL     1      11.197  15.216  17.145  0.00  0.00    +0.000 A 
ATOM     25  C   UNL     1      11.544  16.550  16.916  0.00  0.00    +0.000 A 
ATOM     26  C   UNL     1      10.807  17.566  17.506  0.00  0.00    +0.000 A 
ATOM     27  C   UNL     1       9.741  17.239  18.340  0.00  0.00    +0.000 A 
ATOM     28  C   UNL     1       9.413  15.896  18.599  0.00  0.00    +0.000 A 
ATOM     29 CL   UNL     1       8.136  15.657  19.749  0.00  0.00    +0.000 Cl
ENDBRANCH  20  23
ENDBRANCH  16  17
ENDBRANCH   1  16
TORSDOF 7
ENDMDL
MODEL 3
REMARK VINA RESULT:      -8.4      6.941      9.735
REMARK  Name = 
REMARK  7 active torsions:
REMARK  status: ('A' for Active; 'I' for Inactive)
REMARK    1  A    between atoms: C_2  and  C_3
REMARK    2  A    between atoms: C_3  and  C_4
REMARK    3  A    between atoms: C_4  and  C_5
REMARK    4  A    between atoms: C_8  and  C_9
REMARK    5  A    between atoms: N_18  and  C_19
REMARK    6  A    between atoms: C_20  and  C_21
REMARK    7  A    between atoms: C_21  and  O_23
REMARK                            x       y       z     vdW  Elec       q    Type
REMARK                         _______ _______ _______ _____ _____    ______ ____
ROOT
ATOM      1  C   UNL     1       0.630  11.796  19.243  0.00  0.00    +0.000 C 
ENDROOT
BRANCH   1   3
ATOM      2  O   UNL     1      -0.779  13.553  18.397  0.00  0.00    +0.000 OA
ATOM      3  C   UNL     1      -0.694  12.404  18.818  0.00  0.00    +0.000 C 
ATOM      4  N   UNL     1      -1.750  11.507  18.952  0.00  0.00    +0.000 N 
ATOM      5  H   UNL     1      -1.503  10.571  19.289  0.00  0.00    +0.000 HD
BRANCH   4   6
ATOM      6  C   UNL     1      -3.094  11.694  18.627  0.00  0.00    +0.000 C 
ATOM      7  C   UNL     1      -3.600  11.281  17.435  0.00  0.00    +0.000 C 
ATOM      8  C   UNL     1      -5.036  11.538  17.042  0.00  0.00    +0.000 C 
ATOM      9  C   UNL     1      -5.761  12.562  17.911  0.00  0.00    +0.000 C 
ATOM     10  C   UNL     1      -5.469  12.304  19.376  0.00  0.00    +0.000 C 
ATOM     11  C   UNL     1      -3.971  12.389  19.651  0.00  0.00    +0.000 C 
BRANCH   7  12
ATOM     12  C   UNL     1      -2.728  10.593  16.441  0.00  0.00    +0.000 C 
ATOM     13  O   UNL     1      -2.684  10.903  15.256  0.00  0.00    +0.000 OA
BRANCH  12  14
ATOM     14  O   UNL     1      -1.957   9.594  16.921  0.00  0.00    +0.000 OA
ATOM     15  H   UNL     1      -2.153   8.692  16.616  0.00  0.00    +0.000 HD
ENDBRANCH  12  14
ENDBRANCH   7  12
ENDBRANCH   4   6
ENDBRANCH   1   3
BRANCH   1  16
ATOM     16  C   UNL     1       0.441  10.519  20.070  0.00  0.00    +0.000 C 
BRANCH  16  17
ATOM     17  C   UNL     1       1.207   9.345  19.505  0.00  0.00    +0.000 A 
ATOM     18  C   UNL     1       1.611   9.340  18.169  0.00  0.00    +0.000 A 
ATOM     19  C   UNL     1       2.301   8.247  17.633  0.00  0.00    +0.000 A 
ATOM     20  C   UNL     1       2.672   7.138  18.419  0.00  0.00    +0.000 A 
ATOM     21  C   UNL     1       2.295   7.182  19.772  0.00  0.00    +0.000 A 
ATOM     22  C   UNL     1       1.557   8.253  20.304  0.00  0.00    +0.000 A 
BRANCH  20  23
ATOM     23  C   UNL     1       3.484   6.033  17.832  0.00  0.00    +0.000 A 
ATOM     24  C   UNL     1       4.831   6.302  17.478  0.00  0.00    +0.000 A 
ATOM     25  C   UNL     1       5.670   5.337  16.914  0.00  0.00    +0.000 A 
ATOM     26  C   UNL     1       5.200   4.049  16.708  0.00  0.00    +0.000 A 
ATOM     27  C   UNL     1       3.886   3.740  17.048  0.00  0.00    +0.000 A 
ATOM     28  C   UNL     1       3.029   4.719  17.584  0.00  0.00    +0.000 A 
ATOM     29 CL   UNL     1       1.393   4.206  17.843  0.00  0.00    +0.000 Cl
ENDBRANCH  20  23
ENDBRANCH  16  17
ENDBRANCH   1  16
TORSDOF 7
ENDMDL
MODEL 4
REMARK VINA RESULT:      -8.4      3.986     10.625
REMARK  Name = 
REMARK  7 active torsions:
REMARK  status: ('A' for Active; 'I' for Inactive)
REMARK    1  A    between atoms: C_2  and  C_3
REMARK    2  A    between atoms: C_3  and  C_4
REMARK    3  A    between atoms: C_4  and  C_5
REMARK    4  A    between atoms: C_8  and  C_9
REMARK    5  A    between atoms: N_18  and  C_19
REMARK    6  A    between atoms: C_20  and  C_21
REMARK    7  A    between atoms: C_21  and  O_23
REMARK                            x       y       z     vdW  Elec       q    Type
REMARK                         _______ _______ _______ _____ _____    ______ ____
ROOT
ATOM      1  C   UNL     1       7.969   8.749  17.686  0.00  0.00    +0.000 C 
ENDROOT
BRANCH   1   3
ATOM      2  O   UNL     1       7.968   6.528  18.611  0.00  0.00    +0.000 OA
ATOM      3  C   UNL     1       7.394   7.363  17.919  0.00  0.00    +0.000 C 
ATOM      4  N   UNL     1       6.172   7.187  17.277  0.00  0.00    +0.000 N 
ATOM      5  H   UNL     1       5.815   7.998  16.763  0.00  0.00    +0.000 HD
BRANCH   4   6
ATOM      6  C   UNL     1       5.337   6.070  17.294  0.00  0.00    +0.000 C 
ATOM      7  C   UNL     1       5.604   4.970  16.541  0.00  0.00    +0.000 C 
ATOM      8  C   UNL     1       4.672   3.782  16.498  0.00  0.00    +0.000 C 
ATOM      9  C   UNL     1       3.285   4.038  17.079  0.00  0.00    +0.000 C 
ATOM     10  C   UNL     1       3.398   4.795  18.388  0.00  0.00    +0.000 C 
ATOM     11  C   UNL     1       4.106   6.131  18.180  0.00  0.00    +0.000 C 
BRANCH   7  12
ATOM     12  C   UNL     1       6.820   4.922  15.680  0.00  0.00    +0.000 C 
ATOM     13  O   UNL     1       6.834   5.297  14.513  0.00  0.00    +0.000 OA
BRANCH  12  14
ATOM     14  O   UNL     1       7.940   4.445  16.264  0.00  0.00    +0.000 OA
ATOM     15  H   UNL     1       8.237   4.875  17.082  0.00  0.00    +0.000 HD
ENDBRANCH  12  14
ENDBRANCH   7  12
ENDBRANCH   4   6
ENDBRANCH   1   3
BRANCH   1  16
ATOM     16  C   UNL     1       8.873   9.200  18.839  0.00  0.00    +0.000 C 
BRANCH  16  17
ATOM     17  C   UNL     1       9.280  10.651  18.721  0.00  0.00    +0.000 A 
ATOM     18  C   UNL     1      10.362  11.145  19.451  0.00  0.00    +0.000 A 
ATOM     19  C   UNL     1      10.731  12.491  19.362  0.00  0.00    +0.000 A 
ATOM     20  C   UNL     1      10.077  13.391  18.498  0.00  0.00    +0.000 A 
ATOM     21  C   UNL     1       9.019  12.865  17.739  0.00  0.00    +0.000 A 
ATOM     22  C   UNL     1       8.611  11.526  17.860  0.00  0.00    +0.000 A 
BRANCH  20  23
ATOM     23  C   UNL     1      10.557  14.798  18.367  0.00  0.00    +0.000 A 
ATOM     24  C   UNL     1      11.083  15.216  17.119  0.00  0.00    +0.000 A 
ATOM     25  C   UNL     1      11.566  16.509  16.898  0.00  0.00    +0.000 A 
ATOM     26  C   UNL     1      11.512  17.449  17.917  0.00  0.00    +0.000 A 
ATOM     27  C   UNL     1      10.997  17.082  19.156  0.00  0.00    +0.000 A 
ATOM     28  C   UNL     1      10.543  15.772  19.390  0.00  0.00    +0.000 A 
ATOM     29 CL   UNL     1      10.041  15.444  21.018  0.00  0.00    +0.000 Cl
ENDBRANCH  20  23
ENDBRANCH  16  17
ENDBRANCH   1  16
TORSDOF 7
ENDMDL
MODEL 5
REMARK VINA RESULT:      -8.3      1.908      2.525
REMARK  Name = 
REMARK  7 active torsions:
REMARK  status: ('A' for Active; 'I' for Inactive)
REMARK    1  A    between atoms: C_2  and  C_3
REMARK    2  A    between atoms: C_3  and  C_4
REMARK    3  A    between atoms: C_4  and  C_5
REMARK    4  A    between atoms: C_8  and  C_9
REMARK    5  A    between atoms: N_18  and  C_19
REMARK    6  A    between atoms: C_20  and  C_21
REMARK    7  A    between atoms: C_21  and  O_23
REMARK                            x       y       z     vdW  Elec       q    Type
REMARK                         _______ _______ _______ _____ _____    ______ ____
ROOT
ATOM      1  C   UNL     1       8.650   8.449  18.588  0.00  0.00    +0.000 C 
ENDROOT
BRANCH   1   3
ATOM      2  O   UNL     1       8.078  10.666  17.849  0.00  0.00    +0.000 OA
ATOM      3  C   UNL     1       8.677   9.965  18.659  0.00  0.00    +0.000 C 
ATOM      4  N   UNL     1       9.431  10.427  19.733  0.00  0.00    +0.000 N 
ATOM      5  H   UNL     1       9.841   9.706  20.335  0.00  0.00    +0.000 HD
BRANCH   4   6
ATOM      6  C   UNL     1       9.650  11.744  20.137  0.00  0.00    +0.000 C 
ATOM      7  C   UNL     1      10.551  12.541  19.504  0.00  0.00    +0.000 C 
ATOM      8  C   UNL     1      10.846  13.947  19.974  0.00  0.00    +0.000 C 
ATOM      9  C   UNL     1      10.324  14.275  21.369  0.00  0.00    +0.000 C 
ATOM     10  C   UNL     1       8.907  13.765  21.531  0.00  0.00    +0.000 C 
ATOM     11  C   UNL     1       8.849  12.254  21.321  0.00  0.00    +0.000 C 
BRANCH   7  12
ATOM     12  C   UNL     1      11.325  12.028  18.339  0.00  0.00    +0.000 C 
ATOM     13  O   UNL     1      11.091  12.354  17.180  0.00  0.00    +0.000 OA
BRANCH  12  14
ATOM     14  O   UNL     1      12.331  11.175  18.626  0.00  0.00    +0.000 OA
ATOM     15  H   UNL     1      13.070  11.127  17.998  0.00  0.00    +0.000 HD
ENDBRANCH  12  14
ENDBRANCH   7  12
ENDBRANCH   4   6
ENDBRANCH   1   3
BRANCH   1  16
ATOM     16  C   UNL     1       7.952   7.942  17.320  0.00  0.00    +0.000 C 
BRANCH  16  17
ATOM     17  C   UNL     1       6.803   7.009  17.626  0.00  0.00    +0.000 A 
ATOM     18  C   UNL     1       5.567   7.179  17.001  0.00  0.00    +0.000 A 
ATOM     19  C   UNL     1       4.493   6.331  17.295  0.00  0.00    +0.000 A 
ATOM     20  C   UNL     1       4.620   5.242  18.178  0.00  0.00    +0.000 A 
ATOM     21  C   UNL     1       5.884   5.061  18.764  0.00  0.00    +0.000 A 
ATOM     22  C   UNL     1       6.953   5.938  18.512  0.00  0.00    +0.000 A 
BRANCH  20  23
ATOM     23  C   UNL     1       3.476   4.309  18.398  0.00  0.00    +0.000 A 
ATOM     24  C   UNL     1       3.463   3.081  17.690  0.00  0.00    +0.000 A 
ATOM     25  C   UNL     1       2.432   2.146  17.820  0.00  0.00    +0.000 A 
ATOM     26  C   UNL     1       1.384   2.391  18.693  0.00  0.00    +0.000 A 
ATOM     27  C   UNL     1       1.361   3.582  19.414  0.00  0.00    +0.000 A 
ATOM     28  C   UNL     1       2.379   4.540  19.258  0.00  0.00    +0.000 A 
ATOM     29 CL   UNL     1       2.144   6.016  20.137  0.00  0.00    +0.000 Cl
ENDBRANCH  20  23
ENDBRANCH  16  17
ENDBRANCH   1  16
TORSDOF 7
ENDMDL
MODEL 6
REMARK VINA RESULT:      -8.3      6.933      9.597
REMARK  Name = 
REMARK  7 active torsions:
REMARK  status: ('A' for Active; 'I' for Inactive)
REMARK    1  A    between atoms: C_2  and  C_3
REMARK    2  A    between atoms: C_3  and  C_4
REMARK    3  A    between atoms: C_4  and  C_5
REMARK    4  A    between atoms: C_8  and  C_9
REMARK    5  A    between atoms: N_18  and  C_19
REMARK    6  A    between atoms: C_20  and  C_21
REMARK    7  A    between atoms: C_21  and  O_23
REMARK                            x       y       z     vdW  Elec       q    Type
REMARK                         _______ _______ _______ _____ _____    ______ ____
ROOT
ATOM      1  C   UNL     1       0.858  11.937  19.089  0.00  0.00    +0.000 C 
ENDROOT
BRANCH   1   3
ATOM      2  O   UNL     1      -0.612  13.634  18.225  0.00  0.00    +0.000 OA
ATOM      3  C   UNL     1      -0.494  12.514  18.711  0.00  0.00    +0.000 C 
ATOM      4  N   UNL     1      -1.534  11.625  18.967  0.00  0.00    +0.000 N 
ATOM      5  H   UNL     1      -1.261  10.713  19.346  0.00  0.00    +0.000 HD
BRANCH   4   6
ATOM      6  C   UNL     1      -2.897  11.789  18.716  0.00  0.00    +0.000 C 
ATOM      7  C   UNL     1      -3.455  11.397  17.540  0.00  0.00    +0.000 C 
ATOM      8  C   UNL     1      -4.915  11.631  17.228  0.00  0.00    +0.000 C 
ATOM      9  C   UNL     1      -5.616  12.612  18.162  0.00  0.00    +0.000 C 
ATOM     10  C   UNL     1      -5.244  12.321  19.602  0.00  0.00    +0.000 C 
ATOM     11  C   UNL     1      -3.736  12.434  19.804  0.00  0.00    +0.000 C 
BRANCH   7  12
ATOM     12  C   UNL     1      -2.619  10.759  16.483  0.00  0.00    +0.000 C 
ATOM     13  O   UNL     1      -2.002   9.713  16.653  0.00  0.00    +0.000 OA
BRANCH  12  14
ATOM     14  O   UNL     1      -2.581  11.397  15.294  0.00  0.00    +0.000 OA
ATOM     15  H   UNL     1      -2.768  10.872  14.498  0.00  0.00    +0.000 HD
ENDBRANCH  12  14
ENDBRANCH   7  12
ENDBRANCH   4   6
ENDBRANCH   1   3
BRANCH   1  16
ATOM     16  C   UNL     1       0.734  10.786  20.094  0.00  0.00    +0.000 C 
BRANCH  16  17
ATOM     17  C   UNL     1       1.291   9.487  19.558  0.00  0.00    +0.000 A 
ATOM     18  C   UNL     1       1.592   9.351  18.202  0.00  0.00    +0.000 A 
ATOM     19  C   UNL     1       2.088   8.145  17.695  0.00  0.00    +0.000 A 
ATOM     20  C   UNL     1       2.363   7.042  18.526  0.00  0.00    +0.000 A 
ATOM     21  C   UNL     1       2.094   7.212  19.894  0.00  0.00    +0.000 A 
ATOM     22  C   UNL     1       1.548   8.403  20.402  0.00  0.00    +0.000 A 
BRANCH  20  23
ATOM     23  C   UNL     1       2.973   5.803  17.960  0.00  0.00    +0.000 A 
ATOM     24  C   UNL     1       2.215   4.606  17.988  0.00  0.00    +0.000 A 
ATOM     25  C   UNL     1       2.701   3.392  17.492  0.00  0.00    +0.000 A 
ATOM     26  C   UNL     1       3.962   3.338  16.917  0.00  0.00    +0.000 A 
ATOM     27  C   UNL     1       4.737   4.492  16.863  0.00  0.00    +0.000 A 
ATOM     28  C   UNL     1       4.263   5.706  17.393  0.00  0.00    +0.000 A 
ATOM     29 CL   UNL     1       5.394   7.020  17.353  0.00  0.00    +0.000 Cl
ENDBRANCH  20  23
ENDBRANCH  16  17
ENDBRANCH   1  16
TORSDOF 7
ENDMDL
MODEL 7
REMARK VINA RESULT:      -8.3      1.918      2.611
REMARK  Name = 
REMARK  7 active torsions:
REMARK  status: ('A' for Active; 'I' for Inactive)
REMARK    1  A    between atoms: C_2  and  C_3
REMARK    2  A    between atoms: C_3  and  C_4
REMARK    3  A    between atoms: C_4  and  C_5
REMARK    4  A    between atoms: C_8  and  C_9
REMARK    5  A    between atoms: N_18  and  C_19
REMARK    6  A    between atoms: C_20  and  C_21
REMARK    7  A    between atoms: C_21  and  O_23
REMARK                            x       y       z     vdW  Elec       q    Type
REMARK                         _______ _______ _______ _____ _____    ______ ____
ROOT
ATOM      1  C   UNL     1       8.180   9.537  17.838  0.00  0.00    +0.000 C 
ENDROOT
BRANCH   1   3
ATOM      2  O   UNL     1       9.452  10.023  19.821  0.00  0.00    +0.000 OA
ATOM      3  C   UNL     1       8.923  10.447  18.798  0.00  0.00    +0.000 C 
ATOM      4  N   UNL     1       8.933  11.770  18.366  0.00  0.00    +0.000 N 
ATOM      5  H   UNL     1       8.470  11.952  17.469  0.00  0.00    +0.000 HD
BRANCH   4   6
ATOM      6  C   UNL     1       9.546  12.873  18.961  0.00  0.00    +0.000 C 
ATOM      7  C   UNL     1      10.712  13.382  18.482  0.00  0.00    +0.000 C 
ATOM      8  C   UNL     1      11.421  14.533  19.157  0.00  0.00    +0.000 C 
ATOM      9  C   UNL     1      10.926  14.848  20.565  0.00  0.00    +0.000 C 
ATOM     10  C   UNL     1       9.411  14.840  20.601  0.00  0.00    +0.000 C 
ATOM     11  C   UNL     1       8.868  13.479  20.176  0.00  0.00    +0.000 C 
BRANCH   7  12
ATOM     12  C   UNL     1      11.363  12.781  17.284  0.00  0.00    +0.000 C 
ATOM     13  O   UNL     1      11.404  13.334  16.190  0.00  0.00    +0.000 OA
BRANCH  12  14
ATOM     14  O   UNL     1      11.933  11.570  17.465  0.00  0.00    +0.000 OA
ATOM     15  H   UNL     1      12.261  11.107  16.677  0.00  0.00    +0.000 HD
ENDBRANCH  12  14
ENDBRANCH   7  12
ENDBRANCH   4   6
ENDBRANCH   1   3
BRANCH   1  16
ATOM     16  C   UNL     1       8.572   8.065  18.016  0.00  0.00    +0.000 C 
BRANCH  16  17
ATOM     17  C   UNL     1       7.378   7.140  17.982  0.00  0.00    +0.000 A 
ATOM     18  C   UNL     1       7.286   6.068  18.872  0.00  0.00    +0.000 A 
ATOM     19  C   UNL     1       6.194   5.195  18.833  0.00  0.00    +0.000 A 
ATOM     20  C   UNL     1       5.116   5.386  17.946  0.00  0.00    +0.000 A 
ATOM     21  C   UNL     1       5.205   6.495  17.089  0.00  0.00    +0.000 A 
ATOM     22  C   UNL     1       6.324   7.346  17.088  0.00  0.00    +0.000 A 
BRANCH  20  23
ATOM     23  C   UNL     1       3.928   4.484  17.995  0.00  0.00    +0.000 A 
ATOM     24  C   UNL     1       4.139   3.087  17.875  0.00  0.00    +0.000 A 
ATOM     25  C   UNL     1       3.092   2.161  17.899  0.00  0.00    +0.000 A 
ATOM     26  C   UNL     1       1.789   2.597  18.078  0.00  0.00    +0.000 A 
ATOM     27  C   UNL     1       1.538   3.960  18.208  0.00  0.00    +0.000 A 
ATOM     28  C   UNL     1       2.586   4.896  18.148  0.00  0.00    +0.000 A 
ATOM     29 CL   UNL     1       2.095   6.559  18.208  0.00  0.00    +0.000 Cl
ENDBRANCH  20  23
ENDBRANCH  16  17
ENDBRANCH   1  16
TORSDOF 7
ENDMDL
MODEL 8
REMARK VINA RESULT:      -8.1      5.735      8.357
REMARK  Name = 
REMARK  7 active torsions:
REMARK  status: ('A' for Active; 'I' for Inactive)
REMARK    1  A    between atoms: C_2  and  C_3
REMARK    2  A    between atoms: C_3  and  C_4
REMARK    3  A    between atoms: C_4  and  C_5
REMARK    4  A    between atoms: C_8  and  C_9
REMARK    5  A    between atoms: N_18  and  C_19
REMARK    6  A    between atoms: C_20  and  C_21
REMARK    7  A    between atoms: C_21  and  O_23
REMARK                            x       y       z     vdW  Elec       q    Type
REMARK                         _______ _______ _______ _____ _____    ______ ____
ROOT
ATOM      1  C   UNL     1       2.055   4.618  18.922  0.00  0.00    +0.000 C 
ENDROOT
BRANCH   1   3
ATOM      2  O   UNL     1       2.964   2.873  17.539  0.00  0.00    +0.000 OA
ATOM      3  C   UNL     1       3.058   4.025  17.949  0.00  0.00    +0.000 C 
ATOM      4  N   UNL     1       4.046   4.938  17.593  0.00  0.00    +0.000 N 
ATOM      5  H   UNL     1       3.960   5.873  18.002  0.00  0.00    +0.000 HD
BRANCH   4   6
ATOM      6  C   UNL     1       5.103   4.766  16.699  0.00  0.00    +0.000 C 
ATOM      7  C   UNL     1       6.397   4.873  17.100  0.00  0.00    +0.000 C 
ATOM      8  C   UNL     1       7.550   4.757  16.129  0.00  0.00    +0.000 C 
ATOM      9  C   UNL     1       7.155   4.848  14.659  0.00  0.00    +0.000 C 
ATOM     10  C   UNL     1       5.926   4.001  14.393  0.00  0.00    +0.000 C 
ATOM     11  C   UNL     1       4.754   4.466  15.253  0.00  0.00    +0.000 C 
BRANCH   7  12
ATOM     12  C   UNL     1       6.725   5.162  18.525  0.00  0.00    +0.000 C 
ATOM     13  O   UNL     1       6.166   4.614  19.469  0.00  0.00    +0.000 OA
BRANCH  12  14
ATOM     14  O   UNL     1       7.700   6.071  18.735  0.00  0.00    +0.000 OA
ATOM     15  H   UNL     1       7.847   6.367  19.649  0.00  0.00    +0.000 HD
ENDBRANCH  12  14
ENDBRANCH   7  12
ENDBRANCH   4   6
ENDBRANCH   1   3
BRANCH   1  16
ATOM     16  C   UNL     1       2.705   5.622  19.882  0.00  0.00    +0.000 C 
BRANCH  16  17
ATOM     17  C   UNL     1       2.170   7.024  19.701  0.00  0.00    +0.000 A 
ATOM     18  C   UNL     1       2.265   7.665  18.464  0.00  0.00    +0.000 A 
ATOM     19  C   UNL     1       1.791   8.970  18.296  0.00  0.00    +0.000 A 
ATOM     20  C   UNL     1       1.148   9.673  19.333  0.00  0.00    +0.000 A 
ATOM     21  C   UNL     1       1.023   8.995  20.558  0.00  0.00    +0.000 A 
ATOM     22  C   UNL     1       1.542   7.703  20.749  0.00  0.00    +0.000 A 
BRANCH  20  23
ATOM     23  C   UNL     1       0.579  11.030  19.088  0.00  0.00    +0.000 A 
ATOM     24  C   UNL     1       1.309  12.158  19.539  0.00  0.00    +0.000 A 
ATOM     25  C   UNL     1       0.857  13.469  19.366  0.00  0.00    +0.000 A 
ATOM     26  C   UNL     1      -0.337  13.705  18.702  0.00  0.00    +0.000 A 
ATOM     27  C   UNL     1      -1.082  12.626  18.235  0.00  0.00    +0.000 A 
ATOM     28  C   UNL     1      -0.646  11.305  18.440  0.00  0.00    +0.000 A 
ATOM     29 CL   UNL     1      -1.744  10.074  17.904  0.00  0.00    +0.000 Cl
ENDBRANCH  20  23
ENDBRANCH  16  17
ENDBRANCH   1  16
TORSDOF 7
ENDMDL
MODEL 9
REMARK VINA RESULT:      -8.1      3.938     10.476
REMARK  Name = 
REMARK  7 active torsions:
REMARK  status: ('A' for Active; 'I' for Inactive)
REMARK    1  A    between atoms: C_2  and  C_3
REMARK    2  A    between atoms: C_3  and  C_4
REMARK    3  A    between atoms: C_4  and  C_5
REMARK    4  A    between atoms: C_8  and  C_9
REMARK    5  A    between atoms: N_18  and  C_19
REMARK    6  A    between atoms: C_20  and  C_21
REMARK    7  A    between atoms: C_21  and  O_23
REMARK                            x       y       z     vdW  Elec       q    Type
REMARK                         _______ _______ _______ _____ _____    ______ ____
ROOT
ATOM      1  C   UNL     1       8.157   8.747  17.872  0.00  0.00    +0.000 C 
ENDROOT
BRANCH   1   3
ATOM      2  O   UNL     1       7.961   6.567  18.870  0.00  0.00    +0.000 OA
ATOM      3  C   UNL     1       7.504   7.394  18.088  0.00  0.00    +0.000 C 
ATOM      4  N   UNL     1       6.356   7.237  17.316  0.00  0.00    +0.000 N 
ATOM      5  H   UNL     1       6.093   8.039  16.736  0.00  0.00    +0.000 HD
BRANCH   4   6
ATOM      6  C   UNL     1       5.479   6.152  17.278  0.00  0.00    +0.000 C 
ATOM      7  C   UNL     1       5.844   4.962  16.733  0.00  0.00    +0.000 C 
ATOM      8  C   UNL     1       4.882   3.801  16.625  0.00  0.00    +0.000 C 
ATOM      9  C   UNL     1       3.418   4.164  16.854  0.00  0.00    +0.000 C 
ATOM     10  C   UNL     1       3.288   5.074  18.060  0.00  0.00    +0.000 C 
ATOM     11  C   UNL     1       4.092   6.355  17.860  0.00  0.00    +0.000 C 
BRANCH   7  12
ATOM     12  C   UNL     1       7.212   4.776  16.172  0.00  0.00    +0.000 C 
ATOM     13  O   UNL     1       7.557   5.216  15.081  0.00  0.00    +0.000 OA
BRANCH  12  14
ATOM     14  O   UNL     1       8.082   4.091  16.945  0.00  0.00    +0.000 OA
ATOM     15  H   UNL     1       8.015   3.122  16.944  0.00  0.00    +0.000 HD
ENDBRANCH  12  14
ENDBRANCH   7  12
ENDBRANCH   4   6
ENDBRANCH   1   3
BRANCH   1  16
ATOM     16  C   UNL     1       9.112   9.117  19.014  0.00  0.00    +0.000 C 
BRANCH  16  17
ATOM     17  C   UNL     1       9.407  10.598  19.064  0.00  0.00    +0.000 A 
ATOM     18  C   UNL     1       9.452  11.270  20.287  0.00  0.00    +0.000 A 
ATOM     19  C   UNL     1       9.704  12.645  20.340  0.00  0.00    +0.000 A 
ATOM     20  C   UNL     1       9.981  13.400  19.183  0.00  0.00    +0.000 A 
ATOM     21  C   UNL     1       9.975  12.697  17.967  0.00  0.00    +0.000 A 
ATOM     22  C   UNL     1       9.672  11.326  17.901  0.00  0.00    +0.000 A 
BRANCH  20  23
ATOM     23  C   UNL     1      10.332  14.846  19.290  0.00  0.00    +0.000 A 
ATOM     24  C   UNL     1      11.429  15.214  20.109  0.00  0.00    +0.000 A 
ATOM     25  C   UNL     1      11.830  16.542  20.282  0.00  0.00    +0.000 A 
ATOM     26  C   UNL     1      11.163  17.557  19.613  0.00  0.00    +0.000 A 
ATOM     27  C   UNL     1      10.085  17.239  18.793  0.00  0.00    +0.000 A 
ATOM     28  C   UNL     1       9.657  15.907  18.646  0.00  0.00    +0.000 A 
ATOM     29 CL   UNL     1       8.230  15.692  17.685  0.00  0.00    +0.000 Cl
ENDBRANCH  20  23
ENDBRANCH  16  17
ENDBRANCH   1  16
TORSDOF 7
ENDMDL
