MODEL 1
REMARK VINA RESULT:      -8.1      0.000      0.000
REMARK  Name = 
REMARK  3 active torsions:
REMARK  status: ('A' for Active; 'I' for Inactive)
REMARK    1  A    between atoms: C_1  and  C_2
REMARK    2  A    between atoms: N_4  and  S_5
REMARK    3  A    between atoms: S_5  and  C_8
REMARK                            x       y       z     vdW  Elec       q    Type
REMARK                         _______ _______ _______ _____ _____    ______ ____
ROOT
ATOM      1  C   UNL     1       0.849   3.554  20.120  0.00  0.00    +0.000 C 
ATOM      2  C   UNL     1       2.075   4.093  20.857  0.00  0.00    +0.000 C 
ATOM      3  C   UNL     1       3.425   3.742  20.224  0.00  0.00    +0.000 C 
ATOM      4  N   UNL     1       3.560   4.418  18.907  0.00  0.00    +0.000 N 
ATOM      5  C   UNL     1       3.033   5.768  18.855  0.00  0.00    +0.000 A 
ATOM      6  C   UNL     1       3.344   6.639  17.805  0.00  0.00    +0.000 A 
ATOM      7  C   UNL     1       2.868   7.953  17.792  0.00  0.00    +0.000 A 
ATOM      8  C   UNL     1       2.119   8.435  18.860  0.00  0.00    +0.000 A 
ATOM      9  C   UNL     1       1.843   7.601  19.940  0.00  0.00    +0.000 A 
ATOM     10 CL   UNL     1       0.944   8.255  21.265  0.00  0.00    +0.000 Cl
ATOM     11  C   UNL     1       2.282   6.267  19.941  0.00  0.00    +0.000 A 
ATOM     12  O   UNL     1       1.951   5.508  21.043  0.00  0.00    +0.000 OA
ENDROOT
BRANCH   4  13
ATOM     13  S   UNL     1       3.595   3.414  17.531  0.00  0.00    +0.000 S 
ATOM     14  O   UNL     1       3.934   2.073  17.958  0.00  0.00    +0.000 OA
ATOM     15  O   UNL     1       2.444   3.640  16.683  0.00  0.00    +0.000 OA
BRANCH  13  16
ATOM     16  C   UNL     1       4.991   4.050  16.647  0.00  0.00    +0.000 A 
ATOM     17  C   UNL     1       4.947   4.237  15.265  0.00  0.00    +0.000 A 
ATOM     18  C   UNL     1       6.101   4.649  14.600  0.00  0.00    +0.000 A 
ATOM     19  C   UNL     1       7.252   4.855  15.346  0.00  0.00    +0.000 A 
ATOM     20  N   UNL     1       7.320   4.671  16.684  0.00  0.00    +0.000 NA
ATOM     21  C   UNL     1       6.190   4.252  17.307  0.00  0.00    +0.000 A 
ENDBRANCH  13  16
ENDBRANCH   4  13
TORSDOF 2
ENDMDL
MODEL 2
REMARK VINA RESULT:      -7.8      0.608      1.057
REMARK  Name = 
REMARK  3 active torsions:
REMARK  status: ('A' for Active; 'I' for Inactive)
REMARK    1  A    between atoms: C_1  and  C_2
REMARK    2  A    between atoms: N_4  and  S_5
REMARK    3  A    between atoms: S_5  and  C_8
REMARK                            x       y       z     vdW  Elec       q    Type
REMARK                         _______ _______ _______ _____ _____    ______ ____
ROOT
ATOM      1  C   UNL     1       0.744   3.499  20.128  0.00  0.00    +0.000 C 
ATOM      2  C   UNL     1       1.970   4.011  20.885  0.00  0.00    +0.000 C 
ATOM      3  C   UNL     1       3.322   3.632  20.274  0.00  0.00    +0.000 C 
ATOM      4  N   UNL     1       3.492   4.306  18.960  0.00  0.00    +0.000 N 
ATOM      5  C   UNL     1       2.995   5.667  18.901  0.00  0.00    +0.000 A 
ATOM      6  C   UNL     1       3.341   6.532  17.857  0.00  0.00    +0.000 A 
ATOM      7  C   UNL     1       2.894   7.857  17.838  0.00  0.00    +0.000 A 
ATOM      8  C   UNL     1       2.138   8.353  18.895  0.00  0.00    +0.000 A 
ATOM      9  C   UNL     1       1.827   7.524  19.969  0.00  0.00    +0.000 A 
ATOM     10 CL   UNL     1       0.922   8.197  21.280  0.00  0.00    +0.000 Cl
ATOM     11  C   UNL     1       2.237   6.181  19.976  0.00  0.00    +0.000 A 
ATOM     12  O   UNL     1       1.874   5.429  21.071  0.00  0.00    +0.000 OA
ENDROOT
BRANCH   4  13
ATOM     13  S   UNL     1       3.528   3.303  17.583  0.00  0.00    +0.000 S 
ATOM     14  O   UNL     1       3.769   1.944  18.019  0.00  0.00    +0.000 OA
ATOM     15  O   UNL     1       2.429   3.597  16.688  0.00  0.00    +0.000 OA
BRANCH  13  16
ATOM     16  C   UNL     1       4.995   3.856  16.762  0.00  0.00    +0.000 A 
ATOM     17  C   UNL     1       6.141   4.197  17.482  0.00  0.00    +0.000 A 
ATOM     18  C   UNL     1       7.240   4.717  16.800  0.00  0.00    +0.000 A 
ATOM     19  C   UNL     1       7.146   4.877  15.425  0.00  0.00    +0.000 A 
ATOM     20  N   UNL     1       6.042   4.563  14.709  0.00  0.00    +0.000 NA
ATOM     21  C   UNL     1       4.979   4.075  15.396  0.00  0.00    +0.000 A 
ENDBRANCH  13  16
ENDBRANCH   4  13
TORSDOF 2
ENDMDL
MODEL 3
REMARK VINA RESULT:      -6.3      2.323      3.675
REMARK  Name = 
REMARK  3 active torsions:
REMARK  status: ('A' for Active; 'I' for Inactive)
REMARK    1  A    between atoms: C_1  and  C_2
REMARK    2  A    between atoms: N_4  and  S_5
REMARK    3  A    between atoms: S_5  and  C_8
REMARK                            x       y       z     vdW  Elec       q    Type
REMARK                         _______ _______ _______ _____ _____    ______ ____
ROOT
ATOM      1  C   UNL     1       2.327   6.998  20.179  0.00  0.00    +0.000 C 
ATOM      2  C   UNL     1       1.684   6.014  19.201  0.00  0.00    +0.000 C 
ATOM      3  C   UNL     1       2.432   5.825  17.878  0.00  0.00    +0.000 C 
ATOM      4  N   UNL     1       3.744   5.172  18.124  0.00  0.00    +0.000 N 
ATOM      5  C   UNL     1       3.730   4.132  19.135  0.00  0.00    +0.000 A 
ATOM      6  C   UNL     1       4.787   3.226  19.272  0.00  0.00    +0.000 A 
ATOM      7  C   UNL     1       4.739   2.198  20.220  0.00  0.00    +0.000 A 
ATOM      8  C   UNL     1       3.605   2.027  21.006  0.00  0.00    +0.000 A 
ATOM      9  C   UNL     1       2.520   2.885  20.848  0.00  0.00    +0.000 A 
ATOM     10 CL   UNL     1       1.115   2.608  21.818  0.00  0.00    +0.000 Cl
ATOM     11  C   UNL     1       2.577   3.945  19.929  0.00  0.00    +0.000 A 
ATOM     12  O   UNL     1       1.465   4.754  19.847  0.00  0.00    +0.000 OA
ENDROOT
BRANCH   4  13
ATOM     13  S   UNL     1       5.135   6.105  17.816  0.00  0.00    +0.000 S 
ATOM     14  O   UNL     1       4.715   7.460  17.524  0.00  0.00    +0.000 OA
ATOM     15  O   UNL     1       6.165   5.859  18.802  0.00  0.00    +0.000 OA
BRANCH  13  16
ATOM     16  C   UNL     1       5.723   5.403  16.301  0.00  0.00    +0.000 A 
ATOM     17  C   UNL     1       5.004   4.407  15.640  0.00  0.00    +0.000 A 
ATOM     18  C   UNL     1       5.552   3.818  14.502  0.00  0.00    +0.000 A 
ATOM     19  C   UNL     1       6.799   4.249  14.074  0.00  0.00    +0.000 A 
ATOM     20  N   UNL     1       7.517   5.206  14.704  0.00  0.00    +0.000 NA
ATOM     21  C   UNL     1       6.971   5.753  15.820  0.00  0.00    +0.000 A 
ENDBRANCH  13  16
ENDBRANCH   4  13
TORSDOF 2
ENDMDL
MODEL 4
REMARK VINA RESULT:      -6.3      2.533      5.267
REMARK  Name = 
REMARK  3 active torsions:
REMARK  status: ('A' for Active; 'I' for Inactive)
REMARK    1  A    between atoms: C_1  and  C_2
REMARK    2  A    between atoms: N_4  and  S_5
REMARK    3  A    between atoms: S_5  and  C_8
REMARK                            x       y       z     vdW  Elec       q    Type
REMARK                         _______ _______ _______ _____ _____    ______ ____
ROOT
ATOM      1  C   UNL     1       3.564   6.119  19.008  0.00  0.00    +0.000 C 
ATOM      2  C   UNL     1       4.899   5.530  19.467  0.00  0.00    +0.000 C 
ATOM      3  C   UNL     1       4.945   4.001  19.550  0.00  0.00    +0.000 C 
ATOM      4  N   UNL     1       4.824   3.415  18.190  0.00  0.00    +0.000 N 
ATOM      5  C   UNL     1       5.533   4.134  17.148  0.00  0.00    +0.000 A 
ATOM      6  C   UNL     1       5.771   3.563  15.893  0.00  0.00    +0.000 A 
ATOM      7  C   UNL     1       6.498   4.249  14.915  0.00  0.00    +0.000 A 
ATOM      8  C   UNL     1       7.046   5.495  15.198  0.00  0.00    +0.000 A 
ATOM      9  C   UNL     1       6.865   6.058  16.459  0.00  0.00    +0.000 A 
ATOM     10 CL   UNL     1       7.601   7.590  16.779  0.00  0.00    +0.000 Cl
ATOM     11  C   UNL     1       6.102   5.394  17.432  0.00  0.00    +0.000 A 
ATOM     12  O   UNL     1       5.962   6.029  18.647  0.00  0.00    +0.000 OA
ENDROOT
BRANCH   4  13
ATOM     13  S   UNL     1       3.411   2.523  17.863  0.00  0.00    +0.000 S 
ATOM     14  O   UNL     1       2.634   3.250  16.880  0.00  0.00    +0.000 OA
ATOM     15  O   UNL     1       3.705   1.120  17.665  0.00  0.00    +0.000 OA
BRANCH  13  16
ATOM     16  C   UNL     1       2.541   2.632  19.401  0.00  0.00    +0.000 A 
ATOM     17  C   UNL     1       1.267   3.199  19.472  0.00  0.00    +0.000 A 
ATOM     18  C   UNL     1       0.662   3.349  20.718  0.00  0.00    +0.000 A 
ATOM     19  C   UNL     1       1.356   2.927  21.842  0.00  0.00    +0.000 A 
ATOM     20  N   UNL     1       2.595   2.385  21.798  0.00  0.00    +0.000 NA
ATOM     21  C   UNL     1       3.172   2.265  20.576  0.00  0.00    +0.000 A 
ENDBRANCH  13  16
ENDBRANCH   4  13
TORSDOF 2
ENDMDL
MODEL 5
REMARK VINA RESULT:      -6.2      3.538      5.910
REMARK  Name = 
REMARK  3 active torsions:
REMARK  status: ('A' for Active; 'I' for Inactive)
REMARK    1  A    between atoms: C_1  and  C_2
REMARK    2  A    between atoms: N_4  and  S_5
REMARK    3  A    between atoms: S_5  and  C_8
REMARK                            x       y       z     vdW  Elec       q    Type
REMARK                         _______ _______ _______ _____ _____    ______ ____
ROOT
ATOM      1  C   UNL     1       6.736   7.888  17.299  0.00  0.00    +0.000 C 
ATOM      2  C   UNL     1       7.471   6.571  17.554  0.00  0.00    +0.000 C 
ATOM      3  C   UNL     1       6.730   5.571  18.447  0.00  0.00    +0.000 C 
ATOM      4  N   UNL     1       5.503   5.090  17.761  0.00  0.00    +0.000 N 
ATOM      5  C   UNL     1       5.647   4.862  16.336  0.00  0.00    +0.000 A 
ATOM      6  C   UNL     1       4.700   4.134  15.608  0.00  0.00    +0.000 A 
ATOM      7  C   UNL     1       4.877   3.881  14.244  0.00  0.00    +0.000 A 
ATOM      8  C   UNL     1       6.034   4.304  13.600  0.00  0.00    +0.000 A 
ATOM      9  C   UNL     1       7.014   4.984  14.318  0.00  0.00    +0.000 A 
ATOM     10 CL   UNL     1       8.455   5.454  13.485  0.00  0.00    +0.000 Cl
ATOM     11  C   UNL     1       6.825   5.278  15.678  0.00  0.00    +0.000 A 
ATOM     12  O   UNL     1       7.838   5.967  16.308  0.00  0.00    +0.000 OA
ENDROOT
BRANCH   4  13
ATOM     13  S   UNL     1       4.012   5.540  18.451  0.00  0.00    +0.000 S 
ATOM     14  O   UNL     1       4.250   5.943  19.821  0.00  0.00    +0.000 OA
ATOM     15  O   UNL     1       3.255   6.394  17.561  0.00  0.00    +0.000 OA
BRANCH  13  16
ATOM     16  C   UNL     1       3.149   3.995  18.504  0.00  0.00    +0.000 A 
ATOM     17  C   UNL     1       1.763   3.937  18.349  0.00  0.00    +0.000 A 
ATOM     18  C   UNL     1       1.117   2.710  18.493  0.00  0.00    +0.000 A 
ATOM     19  C   UNL     1       1.884   1.593  18.788  0.00  0.00    +0.000 A 
ATOM     20  N   UNL     1       3.226   1.628  18.953  0.00  0.00    +0.000 NA
ATOM     21  C   UNL     1       3.831   2.836  18.825  0.00  0.00    +0.000 A 
ENDBRANCH  13  16
ENDBRANCH   4  13
TORSDOF 2
ENDMDL
MODEL 6
REMARK VINA RESULT:      -6.1      2.639      3.398
REMARK  Name = 
REMARK  3 active torsions:
REMARK  status: ('A' for Active; 'I' for Inactive)
REMARK    1  A    between atoms: C_1  and  C_2
REMARK    2  A    between atoms: N_4  and  S_5
REMARK    3  A    between atoms: S_5  and  C_8
REMARK                            x       y       z     vdW  Elec       q    Type
REMARK                         _______ _______ _______ _____ _____    ______ ____
ROOT
ATOM      1  C   UNL     1       3.199   1.768  17.707  0.00  0.00    +0.000 C 
ATOM      2  C   UNL     1       4.024   1.924  18.985  0.00  0.00    +0.000 C 
ATOM      3  C   UNL     1       5.246   2.840  18.866  0.00  0.00    +0.000 C 
ATOM      4  N   UNL     1       4.809   4.241  18.632  0.00  0.00    +0.000 N 
ATOM      5  C   UNL     1       3.632   4.649  19.376  0.00  0.00    +0.000 A 
ATOM      6  C   UNL     1       3.273   5.995  19.504  0.00  0.00    +0.000 A 
ATOM      7  C   UNL     1       2.164   6.377  20.265  0.00  0.00    +0.000 A 
ATOM      8  C   UNL     1       1.429   5.420  20.957  0.00  0.00    +0.000 A 
ATOM      9  C   UNL     1       1.802   4.080  20.885  0.00  0.00    +0.000 A 
ATOM     10 CL   UNL     1       0.885   2.931  21.796  0.00  0.00    +0.000 Cl
ATOM     11  C   UNL     1       2.889   3.684  20.090  0.00  0.00    +0.000 A 
ATOM     12  O   UNL     1       3.180   2.338  20.066  0.00  0.00    +0.000 OA
ENDROOT
BRANCH   4  13
ATOM     13  S   UNL     1       5.193   4.920  17.117  0.00  0.00    +0.000 S 
ATOM     14  O   UNL     1       5.811   3.894  16.305  0.00  0.00    +0.000 OA
ATOM     15  O   UNL     1       4.091   5.698  16.593  0.00  0.00    +0.000 OA
BRANCH  13  16
ATOM     16  C   UNL     1       6.458   6.082  17.544  0.00  0.00    +0.000 A 
ATOM     17  C   UNL     1       7.369   5.815  18.567  0.00  0.00    +0.000 A 
ATOM     18  C   UNL     1       8.287   6.799  18.930  0.00  0.00    +0.000 A 
ATOM     19  C   UNL     1       8.254   8.010  18.256  0.00  0.00    +0.000 A 
ATOM     20  N   UNL     1       7.374   8.295  17.269  0.00  0.00    +0.000 NA
ATOM     21  C   UNL     1       6.479   7.328  16.944  0.00  0.00    +0.000 A 
ENDBRANCH  13  16
ENDBRANCH   4  13
TORSDOF 2
ENDMDL
MODEL 7
REMARK VINA RESULT:      -6.0      3.559      5.952
REMARK  Name = 
REMARK  3 active torsions:
REMARK  status: ('A' for Active; 'I' for Inactive)
REMARK    1  A    between atoms: C_1  and  C_2
REMARK    2  A    between atoms: N_4  and  S_5
REMARK    3  A    between atoms: S_5  and  C_8
REMARK                            x       y       z     vdW  Elec       q    Type
REMARK                         _______ _______ _______ _____ _____    ______ ____
ROOT
ATOM      1  C   UNL     1       6.700   7.953  17.223  0.00  0.00    +0.000 C 
ATOM      2  C   UNL     1       7.472   6.660  17.493  0.00  0.00    +0.000 C 
ATOM      3  C   UNL     1       6.773   5.662  18.420  0.00  0.00    +0.000 C 
ATOM      4  N   UNL     1       5.546   5.135  17.767  0.00  0.00    +0.000 N 
ATOM      5  C   UNL     1       5.672   4.879  16.345  0.00  0.00    +0.000 A 
ATOM      6  C   UNL     1       4.731   4.112  15.649  0.00  0.00    +0.000 A 
ATOM      7  C   UNL     1       4.890   3.833  14.289  0.00  0.00    +0.000 A 
ATOM      8  C   UNL     1       6.025   4.271  13.615  0.00  0.00    +0.000 A 
ATOM      9  C   UNL     1       7.000   4.991  14.301  0.00  0.00    +0.000 A 
ATOM     10 CL   UNL     1       8.414   5.478  13.432  0.00  0.00    +0.000 Cl
ATOM     11  C   UNL     1       6.827   5.311  15.657  0.00  0.00    +0.000 A 
ATOM     12  O   UNL     1       7.833   6.038  16.254  0.00  0.00    +0.000 OA
ENDROOT
BRANCH   4  13
ATOM     13  S   UNL     1       4.057   5.563  18.473  0.00  0.00    +0.000 S 
ATOM     14  O   UNL     1       4.305   5.974  19.839  0.00  0.00    +0.000 OA
ATOM     15  O   UNL     1       3.275   6.402  17.591  0.00  0.00    +0.000 OA
BRANCH  13  16
ATOM     16  C   UNL     1       3.220   4.005  18.542  0.00  0.00    +0.000 A 
ATOM     17  C   UNL     1       3.912   2.824  18.815  0.00  0.00    +0.000 A 
ATOM     18  C   UNL     1       3.228   1.610  18.765  0.00  0.00    +0.000 A 
ATOM     19  C   UNL     1       1.879   1.629  18.441  0.00  0.00    +0.000 A 
ATOM     20  N   UNL     1       1.191   2.759  18.163  0.00  0.00    +0.000 NA
ATOM     21  C   UNL     1       1.881   3.927  18.201  0.00  0.00    +0.000 A 
ENDBRANCH  13  16
ENDBRANCH   4  13
TORSDOF 2
ENDMDL
MODEL 8
REMARK VINA RESULT:      -6.0      2.877      5.458
REMARK  Name = 
REMARK  3 active torsions:
REMARK  status: ('A' for Active; 'I' for Inactive)
REMARK    1  A    between atoms: C_1  and  C_2
REMARK    2  A    between atoms: N_4  and  S_5
REMARK    3  A    between atoms: S_5  and  C_8
REMARK                            x       y       z     vdW  Elec       q    Type
REMARK                         _______ _______ _______ _____ _____    ______ ____
ROOT
ATOM      1  C   UNL     1       5.231   5.853  15.035  0.00  0.00    +0.000 C 
ATOM      2  C   UNL     1       4.695   6.846  16.066  0.00  0.00    +0.000 C 
ATOM      3  C   UNL     1       3.696   6.268  17.074  0.00  0.00    +0.000 C 
ATOM      4  N   UNL     1       4.374   5.279  17.951  0.00  0.00    +0.000 N 
ATOM      5  C   UNL     1       5.722   5.637  18.349  0.00  0.00    +0.000 A 
ATOM      6  C   UNL     1       6.378   4.981  19.397  0.00  0.00    +0.000 A 
ATOM      7  C   UNL     1       7.659   5.369  19.802  0.00  0.00    +0.000 A 
ATOM      8  C   UNL     1       8.281   6.458  19.201  0.00  0.00    +0.000 A 
ATOM      9  C   UNL     1       7.624   7.157  18.192  0.00  0.00    +0.000 A 
ATOM     10 CL   UNL     1       8.419   8.530  17.503  0.00  0.00    +0.000 Cl
ATOM     11  C   UNL     1       6.355   6.748  17.752  0.00  0.00    +0.000 A 
ATOM     12  O   UNL     1       5.784   7.488  16.740  0.00  0.00    +0.000 OA
ENDROOT
BRANCH   4  13
ATOM     13  S   UNL     1       3.886   3.654  17.796  0.00  0.00    +0.000 S 
ATOM     14  O   UNL     1       2.928   3.571  16.713  0.00  0.00    +0.000 OA
ATOM     15  O   UNL     1       5.020   2.756  17.836  0.00  0.00    +0.000 OA
BRANCH  13  16
ATOM     16  C   UNL     1       2.995   3.391  19.302  0.00  0.00    +0.000 A 
ATOM     17  C   UNL     1       1.746   3.977  19.514  0.00  0.00    +0.000 A 
ATOM     18  C   UNL     1       1.125   3.818  20.752  0.00  0.00    +0.000 A 
ATOM     19  C   UNL     1       1.781   3.082  21.728  0.00  0.00    +0.000 A 
ATOM     20  N   UNL     1       2.996   2.515  21.548  0.00  0.00    +0.000 NA
ATOM     21  C   UNL     1       3.588   2.697  20.341  0.00  0.00    +0.000 A 
ENDBRANCH  13  16
ENDBRANCH   4  13
TORSDOF 2
ENDMDL
MODEL 9
REMARK VINA RESULT:      -6.0      2.984      5.588
REMARK  Name = 
REMARK  3 active torsions:
REMARK  status: ('A' for Active; 'I' for Inactive)
REMARK    1  A    between atoms: C_1  and  C_2
REMARK    2  A    between atoms: N_4  and  S_5
REMARK    3  A    between atoms: S_5  and  C_8
REMARK                            x       y       z     vdW  Elec       q    Type
REMARK                         _______ _______ _______ _____ _____    ______ ____
ROOT
ATOM      1  C   UNL     1       3.380   2.354  18.454  0.00  0.00    +0.000 C 
ATOM      2  C   UNL     1       2.732   3.040  17.250  0.00  0.00    +0.000 C 
ATOM      3  C   UNL     1       1.868   4.261  17.580  0.00  0.00    +0.000 C 
ATOM      4  N   UNL     1       2.718   5.356  18.114  0.00  0.00    +0.000 N 
ATOM      5  C   UNL     1       4.008   5.501  17.466  0.00  0.00    +0.000 A 
ATOM      6  C   UNL     1       4.791   6.648  17.634  0.00  0.00    +0.000 A 
ATOM      7  C   UNL     1       6.010   6.795  16.965  0.00  0.00    +0.000 A 
ATOM      8  C   UNL     1       6.438   5.819  16.072  0.00  0.00    +0.000 A 
ATOM      9  C   UNL     1       5.648   4.693  15.850  0.00  0.00    +0.000 A 
ATOM     10 CL   UNL     1       6.200   3.527  14.699  0.00  0.00    +0.000 Cl
ATOM     11  C   UNL     1       4.443   4.519  16.549  0.00  0.00    +0.000 A 
ATOM     12  O   UNL     1       3.732   3.371  16.279  0.00  0.00    +0.000 OA
ENDROOT
BRANCH   4  13
ATOM     13  S   UNL     1       2.480   5.788  19.744  0.00  0.00    +0.000 S 
ATOM     14  O   UNL     1       1.407   4.973  20.276  0.00  0.00    +0.000 OA
ATOM     15  O   UNL     1       3.738   5.888  20.453  0.00  0.00    +0.000 OA
BRANCH  13  16
ATOM     16  C   UNL     1       1.860   7.439  19.602  0.00  0.00    +0.000 A 
ATOM     17  C   UNL     1       1.906   8.126  18.388  0.00  0.00    +0.000 A 
ATOM     18  C   UNL     1       1.494   9.457  18.347  0.00  0.00    +0.000 A 
ATOM     19  C   UNL     1       1.054  10.046  19.523  0.00  0.00    +0.000 A 
ATOM     20  N   UNL     1       1.010   9.403  20.712  0.00  0.00    +0.000 NA
ATOM     21  C   UNL     1       1.433   8.114  20.731  0.00  0.00    +0.000 A 
ENDBRANCH  13  16
ENDBRANCH   4  13
TORSDOF 2
ENDMDL
