MODEL 1
REMARK VINA RESULT:      -8.0      0.000      0.000
REMARK  Name = 
REMARK  3 active torsions:
REMARK  status: ('A' for Active; 'I' for Inactive)
REMARK    1  A    between atoms: C_2  and  C_3
REMARK    2  A    between atoms: C_2  and  C_11
REMARK    3  A    between atoms: C_4  and  C_5
REMARK                            x       y       z     vdW  Elec       q    Type
REMARK                         _______ _______ _______ _____ _____    ______ ____
ROOT
ATOM      1  O   UNL     1       6.666   4.603  19.064  0.00  0.00    +0.000 OA
ATOM      2  C   UNL     1       5.954   4.788  18.087  0.00  0.00    +0.000 C 
ENDROOT
BRANCH   2   3
ATOM      3  C   UNL     1       4.489   5.123  18.211  0.00  0.00    +0.000 A 
ATOM      4  C   UNL     1       4.121   6.480  18.303  0.00  0.00    +0.000 A 
ATOM      5  C   UNL     1       2.802   6.852  18.542  0.00  0.00    +0.000 A 
ATOM      6  C   UNL     1       1.845   5.873  18.768  0.00  0.00    +0.000 A 
ATOM      7  C   UNL     1       2.178   4.513  18.716  0.00  0.00    +0.000 A 
ATOM      8  C   UNL     1       1.200   3.556  19.028  0.00  0.00    +0.000 A 
ATOM      9  C   UNL     1       1.478   2.193  18.950  0.00  0.00    +0.000 A 
ATOM     10  C   UNL     1       2.724   1.774  18.509  0.00  0.00    +0.000 A 
ATOM     11  C   UNL     1       3.716   2.716  18.221  0.00  0.00    +0.000 A 
ATOM     12  C   UNL     1       3.497   4.108  18.371  0.00  0.00    +0.000 A 
ENDBRANCH   2   3
BRANCH   2  13
ATOM     13  C   UNL     1       6.527   4.747  16.710  0.00  0.00    +0.000 C 
ATOM     14  C   UNL     1       5.740   4.595  15.632  0.00  0.00    +0.000 C 
BRANCH  14  15
ATOM     15  C   UNL     1       6.265   4.430  14.267  0.00  0.00    +0.000 A 
ATOM     16  C   UNL     1       7.354   5.209  13.849  0.00  0.00    +0.000 A 
ATOM     17  C   UNL     1       7.860   5.095  12.550  0.00  0.00    +0.000 A 
ATOM     18  C   UNL     1       7.287   4.196  11.654  0.00  0.00    +0.000 A 
ATOM     19  C   UNL     1       6.219   3.402  12.059  0.00  0.00    +0.000 A 
ATOM     20  C   UNL     1       5.719   3.511  13.359  0.00  0.00    +0.000 A 
ENDBRANCH  14  15
ENDBRANCH   2  13
TORSDOF 3
ENDMDL
MODEL 2
REMARK VINA RESULT:      -7.9      0.234      1.093
REMARK  Name = 
REMARK  3 active torsions:
REMARK  status: ('A' for Active; 'I' for Inactive)
REMARK    1  A    between atoms: C_2  and  C_3
REMARK    2  A    between atoms: C_2  and  C_11
REMARK    3  A    between atoms: C_4  and  C_5
REMARK                            x       y       z     vdW  Elec       q    Type
REMARK                         _______ _______ _______ _____ _____    ______ ____
ROOT
ATOM      1  O   UNL     1       6.728   4.723  18.964  0.00  0.00    +0.000 OA
ATOM      2  C   UNL     1       5.985   4.761  17.994  0.00  0.00    +0.000 C 
ENDROOT
BRANCH   2   3
ATOM      3  C   UNL     1       4.525   5.119  18.112  0.00  0.00    +0.000 A 
ATOM      4  C   UNL     1       4.178   6.481  18.208  0.00  0.00    +0.000 A 
ATOM      5  C   UNL     1       2.864   6.872  18.443  0.00  0.00    +0.000 A 
ATOM      6  C   UNL     1       1.891   5.907  18.660  0.00  0.00    +0.000 A 
ATOM      7  C   UNL     1       2.203   4.542  18.604  0.00  0.00    +0.000 A 
ATOM      8  C   UNL     1       1.209   3.599  18.908  0.00  0.00    +0.000 A 
ATOM      9  C   UNL     1       1.466   2.233  18.825  0.00  0.00    +0.000 A 
ATOM     10  C   UNL     1       2.707   1.796  18.388  0.00  0.00    +0.000 A 
ATOM     11  C   UNL     1       3.716   2.724  18.109  0.00  0.00    +0.000 A 
ATOM     12  C   UNL     1       3.517   4.119  18.264  0.00  0.00    +0.000 A 
ENDBRANCH   2   3
BRANCH   2  13
ATOM     13  C   UNL     1       6.514   4.509  16.622  0.00  0.00    +0.000 C 
ATOM     14  C   UNL     1       5.809   4.850  15.531  0.00  0.00    +0.000 C 
BRANCH  14  15
ATOM     15  C   UNL     1       6.232   4.516  14.161  0.00  0.00    +0.000 A 
ATOM     16  C   UNL     1       5.509   3.561  13.430  0.00  0.00    +0.000 A 
ATOM     17  C   UNL     1       5.901   3.203  12.136  0.00  0.00    +0.000 A 
ATOM     18  C   UNL     1       7.017   3.799  11.553  0.00  0.00    +0.000 A 
ATOM     19  C   UNL     1       7.733   4.763  12.257  0.00  0.00    +0.000 A 
ATOM     20  C   UNL     1       7.337   5.125  13.547  0.00  0.00    +0.000 A 
ENDBRANCH  14  15
ENDBRANCH   2  13
TORSDOF 3
ENDMDL
MODEL 3
REMARK VINA RESULT:      -7.8      1.078      1.127
REMARK  Name = 
REMARK  3 active torsions:
REMARK  status: ('A' for Active; 'I' for Inactive)
REMARK    1  A    between atoms: C_2  and  C_3
REMARK    2  A    between atoms: C_2  and  C_11
REMARK    3  A    between atoms: C_4  and  C_5
REMARK                            x       y       z     vdW  Elec       q    Type
REMARK                         _______ _______ _______ _____ _____    ______ ____
ROOT
ATOM      1  O   UNL     1       6.592   4.450  18.993  0.00  0.00    +0.000 OA
ATOM      2  C   UNL     1       5.863   4.886  18.112  0.00  0.00    +0.000 C 
ENDROOT
BRANCH   2   3
ATOM      3  C   UNL     1       4.482   5.418  18.401  0.00  0.00    +0.000 A 
ATOM      4  C   UNL     1       4.139   6.689  17.897  0.00  0.00    +0.000 A 
ATOM      5  C   UNL     1       2.929   7.289  18.229  0.00  0.00    +0.000 A 
ATOM      6  C   UNL     1       2.078   6.665  19.129  0.00  0.00    +0.000 A 
ATOM      7  C   UNL     1       2.400   5.416  19.677  0.00  0.00    +0.000 A 
ATOM      8  C   UNL     1       1.552   4.853  20.645  0.00  0.00    +0.000 A 
ATOM      9  C   UNL     1       1.812   3.596  21.184  0.00  0.00    +0.000 A 
ATOM     10  C   UNL     1       2.898   2.866  20.725  0.00  0.00    +0.000 A 
ATOM     11  C   UNL     1       3.767   3.425  19.782  0.00  0.00    +0.000 A 
ATOM     12  C   UNL     1       3.581   4.735  19.273  0.00  0.00    +0.000 A 
ENDBRANCH   2   3
BRANCH   2  13
ATOM     13  C   UNL     1       6.341   4.965  16.701  0.00  0.00    +0.000 C 
ATOM     14  C   UNL     1       5.708   4.309  15.715  0.00  0.00    +0.000 C 
BRANCH  14  15
ATOM     15  C   UNL     1       6.207   4.259  14.330  0.00  0.00    +0.000 A 
ATOM     16  C   UNL     1       7.303   5.054  13.964  0.00  0.00    +0.000 A 
ATOM     17  C   UNL     1       7.784   5.049  12.650  0.00  0.00    +0.000 A 
ATOM     18  C   UNL     1       7.179   4.244  11.688  0.00  0.00    +0.000 A 
ATOM     19  C   UNL     1       6.103   3.435  12.040  0.00  0.00    +0.000 A 
ATOM     20  C   UNL     1       5.629   3.435  13.353  0.00  0.00    +0.000 A 
ENDBRANCH  14  15
ENDBRANCH   2  13
TORSDOF 3
ENDMDL
MODEL 4
REMARK VINA RESULT:      -7.7      1.019      1.480
REMARK  Name = 
REMARK  3 active torsions:
REMARK  status: ('A' for Active; 'I' for Inactive)
REMARK    1  A    between atoms: C_2  and  C_3
REMARK    2  A    between atoms: C_2  and  C_11
REMARK    3  A    between atoms: C_4  and  C_5
REMARK                            x       y       z     vdW  Elec       q    Type
REMARK                         _______ _______ _______ _____ _____    ______ ____
ROOT
ATOM      1  O   UNL     1       6.825   4.876  19.198  0.00  0.00    +0.000 OA
ATOM      2  C   UNL     1       6.076   5.069  18.251  0.00  0.00    +0.000 C 
ENDROOT
BRANCH   2   3
ATOM      3  C   UNL     1       4.638   5.484  18.434  0.00  0.00    +0.000 A 
ATOM      4  C   UNL     1       4.240   6.743  17.942  0.00  0.00    +0.000 A 
ATOM      5  C   UNL     1       2.963   7.237  18.186  0.00  0.00    +0.000 A 
ATOM      6  C   UNL     1       2.090   6.515  18.988  0.00  0.00    +0.000 A 
ATOM      7  C   UNL     1       2.461   5.274  19.522  0.00  0.00    +0.000 A 
ATOM      8  C   UNL     1       1.581   4.612  20.393  0.00  0.00    +0.000 A 
ATOM      9  C   UNL     1       1.893   3.358  20.913  0.00  0.00    +0.000 A 
ATOM     10  C   UNL     1       3.068   2.731  20.527  0.00  0.00    +0.000 A 
ATOM     11  C   UNL     1       3.967   3.390  19.682  0.00  0.00    +0.000 A 
ATOM     12  C   UNL     1       3.722   4.701  19.202  0.00  0.00    +0.000 A 
ENDBRANCH   2   3
BRANCH   2  13
ATOM     13  C   UNL     1       6.578   4.957  16.850  0.00  0.00    +0.000 C 
ATOM     14  C   UNL     1       5.740   4.723  15.827  0.00  0.00    +0.000 C 
BRANCH  14  15
ATOM     15  C   UNL     1       6.197   4.487  14.448  0.00  0.00    +0.000 A 
ATOM     16  C   UNL     1       5.471   3.617  13.621  0.00  0.00    +0.000 A 
ATOM     17  C   UNL     1       5.894   3.351  12.315  0.00  0.00    +0.000 A 
ATOM     18  C   UNL     1       7.045   3.957  11.816  0.00  0.00    +0.000 A 
ATOM     19  C   UNL     1       7.766   4.837  12.616  0.00  0.00    +0.000 A 
ATOM     20  C   UNL     1       7.338   5.108  13.919  0.00  0.00    +0.000 A 
ENDBRANCH  14  15
ENDBRANCH   2  13
TORSDOF 3
ENDMDL
MODEL 5
REMARK VINA RESULT:      -7.6      2.052      6.603
REMARK  Name = 
REMARK  3 active torsions:
REMARK  status: ('A' for Active; 'I' for Inactive)
REMARK    1  A    between atoms: C_2  and  C_3
REMARK    2  A    between atoms: C_2  and  C_11
REMARK    3  A    between atoms: C_4  and  C_5
REMARK                            x       y       z     vdW  Elec       q    Type
REMARK                         _______ _______ _______ _____ _____    ______ ____
ROOT
ATOM      1  O   UNL     1       2.984   3.126  18.201  0.00  0.00    +0.000 OA
ATOM      2  C   UNL     1       3.435   4.257  18.318  0.00  0.00    +0.000 C 
ENDROOT
BRANCH   2   3
ATOM      3  C   UNL     1       4.904   4.558  18.157  0.00  0.00    +0.000 A 
ATOM      4  C   UNL     1       5.624   4.989  19.289  0.00  0.00    +0.000 A 
ATOM      5  C   UNL     1       6.948   5.400  19.183  0.00  0.00    +0.000 A 
ATOM      6  C   UNL     1       7.550   5.458  17.934  0.00  0.00    +0.000 A 
ATOM      7  C   UNL     1       6.856   5.068  16.781  0.00  0.00    +0.000 A 
ATOM      8  C   UNL     1       7.472   5.215  15.528  0.00  0.00    +0.000 A 
ATOM      9  C   UNL     1       6.834   4.802  14.361  0.00  0.00    +0.000 A 
ATOM     10  C   UNL     1       5.593   4.190  14.440  0.00  0.00    +0.000 A 
ATOM     11  C   UNL     1       4.956   4.061  15.679  0.00  0.00    +0.000 A 
ATOM     12  C   UNL     1       5.537   4.547  16.877  0.00  0.00    +0.000 A 
ENDBRANCH   2   3
BRANCH   2  13
ATOM     13  C   UNL     1       2.528   5.414  18.570  0.00  0.00    +0.000 C 
ATOM     14  C   UNL     1       2.975   6.678  18.493  0.00  0.00    +0.000 C 
BRANCH  14  15
ATOM     15  C   UNL     1       2.153   7.847  18.847  0.00  0.00    +0.000 A 
ATOM     16  C   UNL     1       1.828   8.786  17.857  0.00  0.00    +0.000 A 
ATOM     17  C   UNL     1       1.071   9.921  18.167  0.00  0.00    +0.000 A 
ATOM     18  C   UNL     1       0.625  10.129  19.470  0.00  0.00    +0.000 A 
ATOM     19  C   UNL     1       0.922   9.197  20.460  0.00  0.00    +0.000 A 
ATOM     20  C   UNL     1       1.671   8.060  20.147  0.00  0.00    +0.000 A 
ENDBRANCH  14  15
ENDBRANCH   2  13
TORSDOF 3
ENDMDL
MODEL 6
REMARK VINA RESULT:      -7.5      2.183      6.735
REMARK  Name = 
REMARK  3 active torsions:
REMARK  status: ('A' for Active; 'I' for Inactive)
REMARK    1  A    between atoms: C_2  and  C_3
REMARK    2  A    between atoms: C_2  and  C_11
REMARK    3  A    between atoms: C_4  and  C_5
REMARK                            x       y       z     vdW  Elec       q    Type
REMARK                         _______ _______ _______ _____ _____    ______ ____
ROOT
ATOM      1  O   UNL     1       2.723   3.551  17.862  0.00  0.00    +0.000 OA
ATOM      2  C   UNL     1       3.289   4.574  18.220  0.00  0.00    +0.000 C 
ENDROOT
BRANCH   2   3
ATOM      3  C   UNL     1       4.784   4.743  18.118  0.00  0.00    +0.000 A 
ATOM      4  C   UNL     1       5.492   5.125  19.276  0.00  0.00    +0.000 A 
ATOM      5  C   UNL     1       6.850   5.418  19.222  0.00  0.00    +0.000 A 
ATOM      6  C   UNL     1       7.506   5.406  17.999  0.00  0.00    +0.000 A 
ATOM      7  C   UNL     1       6.829   5.063  16.822  0.00  0.00    +0.000 A 
ATOM      8  C   UNL     1       7.507   5.140  15.594  0.00  0.00    +0.000 A 
ATOM      9  C   UNL     1       6.884   4.769  14.405  0.00  0.00    +0.000 A 
ATOM     10  C   UNL     1       5.592   4.268  14.438  0.00  0.00    +0.000 A 
ATOM     11  C   UNL     1       4.895   4.211  15.649  0.00  0.00    +0.000 A 
ATOM     12  C   UNL     1       5.466   4.660  16.866  0.00  0.00    +0.000 A 
ENDBRANCH   2   3
BRANCH   2  13
ATOM     13  C   UNL     1       2.505   5.739  18.724  0.00  0.00    +0.000 C 
ATOM     14  C   UNL     1       2.658   6.963  18.192  0.00  0.00    +0.000 C 
BRANCH  14  15
ATOM     15  C   UNL     1       1.998   8.164  18.730  0.00  0.00    +0.000 A 
ATOM     16  C   UNL     1       1.607   8.190  20.077  0.00  0.00    +0.000 A 
ATOM     17  C   UNL     1       0.955   9.305  20.612  0.00  0.00    +0.000 A 
ATOM     18  C   UNL     1       0.691  10.412  19.808  0.00  0.00    +0.000 A 
ATOM     19  C   UNL     1       1.090  10.410  18.475  0.00  0.00    +0.000 A 
ATOM     20  C   UNL     1       1.747   9.298  17.944  0.00  0.00    +0.000 A 
ENDBRANCH  14  15
ENDBRANCH   2  13
TORSDOF 3
ENDMDL
MODEL 7
REMARK VINA RESULT:      -7.2      4.352      5.956
REMARK  Name = 
REMARK  3 active torsions:
REMARK  status: ('A' for Active; 'I' for Inactive)
REMARK    1  A    between atoms: C_2  and  C_3
REMARK    2  A    between atoms: C_2  and  C_11
REMARK    3  A    between atoms: C_4  and  C_5
REMARK                            x       y       z     vdW  Elec       q    Type
REMARK                         _______ _______ _______ _____ _____    ______ ____
ROOT
ATOM      1  O   UNL     1       8.190   6.137  19.337  0.00  0.00    +0.000 OA
ATOM      2  C   UNL     1       7.681   6.587  18.320  0.00  0.00    +0.000 C 
ENDROOT
BRANCH   2   3
ATOM      3  C   UNL     1       6.756   5.768  17.454  0.00  0.00    +0.000 A 
ATOM      4  C   UNL     1       7.130   5.534  16.116  0.00  0.00    +0.000 A 
ATOM      5  C   UNL     1       6.268   4.894  15.232  0.00  0.00    +0.000 A 
ATOM      6  C   UNL     1       4.992   4.546  15.650  0.00  0.00    +0.000 A 
ATOM      7  C   UNL     1       4.572   4.791  16.964  0.00  0.00    +0.000 A 
ATOM      8  C   UNL     1       3.248   4.497  17.327  0.00  0.00    +0.000 A 
ATOM      9  C   UNL     1       2.802   4.687  18.632  0.00  0.00    +0.000 A 
ATOM     10  C   UNL     1       3.691   5.126  19.602  0.00  0.00    +0.000 A 
ATOM     11  C   UNL     1       5.005   5.449  19.249  0.00  0.00    +0.000 A 
ATOM     12  C   UNL     1       5.470   5.350  17.914  0.00  0.00    +0.000 A 
ENDBRANCH   2   3
BRANCH   2  13
ATOM     13  C   UNL     1       7.909   8.005  17.919  0.00  0.00    +0.000 C 
ATOM     14  C   UNL     1       8.722   8.806  18.628  0.00  0.00    +0.000 C 
BRANCH  14  15
ATOM     15  C   UNL     1       8.888  10.241  18.344  0.00  0.00    +0.000 A 
ATOM     16  C   UNL     1      10.017  10.914  18.835  0.00  0.00    +0.000 A 
ATOM     17  C   UNL     1      10.191  12.283  18.606  0.00  0.00    +0.000 A 
ATOM     18  C   UNL     1       9.241  12.995  17.877  0.00  0.00    +0.000 A 
ATOM     19  C   UNL     1       8.126  12.339  17.366  0.00  0.00    +0.000 A 
ATOM     20  C   UNL     1       7.957  10.970  17.590  0.00  0.00    +0.000 A 
ENDBRANCH  14  15
ENDBRANCH   2  13
TORSDOF 3
ENDMDL
MODEL 8
REMARK VINA RESULT:      -7.2      1.055      2.602
REMARK  Name = 
REMARK  3 active torsions:
REMARK  status: ('A' for Active; 'I' for Inactive)
REMARK    1  A    between atoms: C_2  and  C_3
REMARK    2  A    between atoms: C_2  and  C_11
REMARK    3  A    between atoms: C_4  and  C_5
REMARK                            x       y       z     vdW  Elec       q    Type
REMARK                         _______ _______ _______ _____ _____    ______ ____
ROOT
ATOM      1  O   UNL     1       6.068   5.336  19.170  0.00  0.00    +0.000 OA
ATOM      2  C   UNL     1       5.652   4.522  18.358  0.00  0.00    +0.000 C 
ENDROOT
BRANCH   2   3
ATOM      3  C   UNL     1       4.475   3.626  18.649  0.00  0.00    +0.000 A 
ATOM      4  C   UNL     1       4.474   2.327  18.102  0.00  0.00    +0.000 A 
ATOM      5  C   UNL     1       3.366   1.496  18.228  0.00  0.00    +0.000 A 
ATOM      6  C   UNL     1       2.214   1.977  18.836  0.00  0.00    +0.000 A 
ATOM      7  C   UNL     1       2.166   3.274  19.364  0.00  0.00    +0.000 A 
ATOM      8  C   UNL     1       0.959   3.751  19.900  0.00  0.00    +0.000 A 
ATOM      9  C   UNL     1       0.877   5.018  20.471  0.00  0.00    +0.000 A 
ATOM     10  C   UNL     1       2.017   5.803  20.557  0.00  0.00    +0.000 A 
ATOM     11  C   UNL     1       3.219   5.353  20.003  0.00  0.00    +0.000 A 
ATOM     12  C   UNL     1       3.319   4.105  19.338  0.00  0.00    +0.000 A 
ENDBRANCH   2   3
BRANCH   2  13
ATOM     13  C   UNL     1       6.266   4.419  17.002  0.00  0.00    +0.000 C 
ATOM     14  C   UNL     1       5.569   4.733  15.898  0.00  0.00    +0.000 C 
BRANCH  14  15
ATOM     15  C   UNL     1       6.088   4.537  14.534  0.00  0.00    +0.000 A 
ATOM     16  C   UNL     1       5.417   3.669  13.660  0.00  0.00    +0.000 A 
ATOM     17  C   UNL     1       5.899   3.440  12.367  0.00  0.00    +0.000 A 
ATOM     18  C   UNL     1       7.056   4.082  11.929  0.00  0.00    +0.000 A 
ATOM     19  C   UNL     1       7.722   4.961  12.777  0.00  0.00    +0.000 A 
ATOM     20  C   UNL     1       7.236   5.194  14.065  0.00  0.00    +0.000 A 
ENDBRANCH  14  15
ENDBRANCH   2  13
TORSDOF 3
ENDMDL
MODEL 9
REMARK VINA RESULT:      -7.2      1.377      1.414
REMARK  Name = 
REMARK  3 active torsions:
REMARK  status: ('A' for Active; 'I' for Inactive)
REMARK    1  A    between atoms: C_2  and  C_3
REMARK    2  A    between atoms: C_2  and  C_11
REMARK    3  A    between atoms: C_4  and  C_5
REMARK                            x       y       z     vdW  Elec       q    Type
REMARK                         _______ _______ _______ _____ _____    ______ ____
ROOT
ATOM      1  O   UNL     1       6.514   6.180  18.354  0.00  0.00    +0.000 OA
ATOM      2  C   UNL     1       5.503   5.645  17.921  0.00  0.00    +0.000 C 
ENDROOT
BRANCH   2   3
ATOM      3  C   UNL     1       4.184   5.712  18.648  0.00  0.00    +0.000 A 
ATOM      4  C   UNL     1       3.462   6.922  18.611  0.00  0.00    +0.000 A 
ATOM      5  C   UNL     1       2.302   7.089  19.359  0.00  0.00    +0.000 A 
ATOM      6  C   UNL     1       1.886   6.078  20.214  0.00  0.00    +0.000 A 
ATOM      7  C   UNL     1       2.595   4.873  20.303  0.00  0.00    +0.000 A 
ATOM      8  C   UNL     1       2.189   3.907  21.237  0.00  0.00    +0.000 A 
ATOM      9  C   UNL     1       2.839   2.679  21.330  0.00  0.00    +0.000 A 
ATOM     10  C   UNL     1       3.873   2.385  20.454  0.00  0.00    +0.000 A 
ATOM     11  C   UNL     1       4.307   3.348  19.537  0.00  0.00    +0.000 A 
ATOM     12  C   UNL     1       3.724   4.639  19.472  0.00  0.00    +0.000 A 
ENDBRANCH   2   3
BRANCH   2  13
ATOM     13  C   UNL     1       5.519   4.942  16.605  0.00  0.00    +0.000 C 
ATOM     14  C   UNL     1       6.448   5.225  15.677  0.00  0.00    +0.000 C 
BRANCH  14  15
ATOM     15  C   UNL     1       6.437   4.647  14.323  0.00  0.00    +0.000 A 
ATOM     16  C   UNL     1       7.494   4.930  13.445  0.00  0.00    +0.000 A 
ATOM     17  C   UNL     1       7.499   4.419  12.143  0.00  0.00    +0.000 A 
ATOM     18  C   UNL     1       6.452   3.612  11.704  0.00  0.00    +0.000 A 
ATOM     19  C   UNL     1       5.406   3.306  12.569  0.00  0.00    +0.000 A 
ATOM     20  C   UNL     1       5.405   3.811  13.872  0.00  0.00    +0.000 A 
ENDBRANCH  14  15
ENDBRANCH   2  13
TORSDOF 3
ENDMDL
