MODEL 1
REMARK VINA RESULT:      -8.1      0.000      0.000
REMARK  Name = 
REMARK  10 active torsions:
REMARK  status: ('A' for Active; 'I' for Inactive)
REMARK    1  A    between atoms: C_1  and  C_2
REMARK    2  A    between atoms: C_2  and  N_3
REMARK    3  A    between atoms: C_2  and  C_24
REMARK    4  A    between atoms: N_3  and  P_4
REMARK    5  A    between atoms: C_8  and  O_9
REMARK    6  A    between atoms: O_9  and  C_10
REMARK    7  A    between atoms: C_10  and  N_11
REMARK    8  A    between atoms: C_24  and  O_26
REMARK    9  A    between atoms: O_26  and  C_27
REMARK   10  A    between atoms: C_27  and  C_28
REMARK                            x       y       z     vdW  Elec       q    Type
REMARK                         _______ _______ _______ _____ _____    ______ ____
ROOT
ATOM      1  P   UNL     1       6.265   4.868  17.096  0.00  0.00    +0.000 P 
ATOM      2  O   UNL     1       6.270   3.993  15.884  0.00  0.00    +0.000 OA
ATOM      3  O   UNL     1       7.704   4.844  17.810  0.00  0.00    +0.000 OA
ATOM      4  C   UNL     1       8.027   5.875  18.711  0.00  0.00    +0.000 C 
ATOM      5  C   UNL     1       8.029   7.216  17.978  0.00  0.00    +0.000 C 
ATOM      6  C   UNL     1       6.592   7.471  17.502  0.00  0.00    +0.000 C 
ATOM      7  O   UNL     1       6.079   6.417  16.706  0.00  0.00    +0.000 OA
ENDROOT
BRANCH   1   8
ATOM      8  N   UNL     1       5.161   4.485  18.252  0.00  0.00    +0.000 NA
ATOM      9  H   UNL     1       4.962   5.308  18.815  0.00  0.00    +0.000 HD
BRANCH   8  11
ATOM     10  C   UNL     1       3.725   2.515  17.824  0.00  0.00    +0.000 C 
ATOM     11  C   UNL     1       3.848   4.031  17.711  0.00  0.00    +0.000 C 
BRANCH  11  12
ATOM     12  C   UNL     1       2.714   4.686  18.515  0.00  0.00    +0.000 C 
ATOM     13  O   UNL     1       1.608   4.169  18.643  0.00  0.00    +0.000 OA
BRANCH  12  14
ATOM     14  O   UNL     1       3.099   5.889  19.014  0.00  0.00    +0.000 OA
BRANCH  14  15
ATOM     15  C   UNL     1       2.225   6.485  19.985  0.00  0.00    +0.000 C 
BRANCH  15  16
ATOM     16  C   UNL     1       1.845   7.879  19.548  0.00  0.00    +0.000 A 
ATOM     17  C   UNL     1       1.191   8.762  20.418  0.00  0.00    +0.000 A 
ATOM     18  C   UNL     1       0.862  10.055  20.003  0.00  0.00    +0.000 A 
ATOM     19  C   UNL     1       1.181  10.481  18.713  0.00  0.00    +0.000 A 
ATOM     20  C   UNL     1       1.839   9.617  17.843  0.00  0.00    +0.000 A 
ATOM     21  C   UNL     1       2.177   8.328  18.263  0.00  0.00    +0.000 A 
ENDBRANCH  15  16
ENDBRANCH  14  15
ENDBRANCH  12  14
ENDBRANCH  11  12
ENDBRANCH   8  11
ENDBRANCH   1   8
BRANCH   5  22
ATOM     22  O   UNL     1       8.469   8.301  18.805  0.00  0.00    +0.000 OA
BRANCH  22  23
ATOM     23  C   UNL     1       8.651   9.517  18.068  0.00  0.00    +0.000 C 
BRANCH  23  24
ATOM     24  N   UNL     1       9.163  10.538  18.954  0.00  0.00    +0.000 N 
ATOM     25  C   UNL     1       8.967  10.605  20.306  0.00  0.00    +0.000 A 
ATOM     26  N   UNL     1       9.487  11.699  20.822  0.00  0.00    +0.000 NA
ATOM     27  C   UNL     1      10.030  12.378  19.750  0.00  0.00    +0.000 A 
ATOM     28  C   UNL     1      10.701  13.580  19.582  0.00  0.00    +0.000 A 
ATOM     29 CL   UNL     1      11.018  14.544  20.938  0.00  0.00    +0.000 Cl
ATOM     30  N   UNL     1      11.099  14.012  18.373  0.00  0.00    +0.000 NA
ATOM     31  C   UNL     1      10.818  13.240  17.316  0.00  0.00    +0.000 A 
ATOM     32  N   UNL     1      11.222  13.711  16.088  0.00  0.00    +0.000 N 
ATOM     33  N   UNL     1      10.202  12.039  17.338  0.00  0.00    +0.000 NA
ATOM     34  C   UNL     1       9.831  11.671  18.575  0.00  0.00    +0.000 A 
ATOM     35  H   UNL     1      11.969  14.386  16.199  0.00  0.00    +0.000 HD
ATOM     36  H   UNL     1      11.364  12.962  15.429  0.00  0.00    +0.000 HD
ENDBRANCH  23  24
ENDBRANCH  22  23
ENDBRANCH   5  22
TORSDOF 9
ENDMDL
MODEL 2
REMARK VINA RESULT:      -7.9      5.643      8.371
REMARK  Name = 
REMARK  10 active torsions:
REMARK  status: ('A' for Active; 'I' for Inactive)
REMARK    1  A    between atoms: C_1  and  C_2
REMARK    2  A    between atoms: C_2  and  N_3
REMARK    3  A    between atoms: C_2  and  C_24
REMARK    4  A    between atoms: N_3  and  P_4
REMARK    5  A    between atoms: C_8  and  O_9
REMARK    6  A    between atoms: O_9  and  C_10
REMARK    7  A    between atoms: C_10  and  N_11
REMARK    8  A    between atoms: C_24  and  O_26
REMARK    9  A    between atoms: O_26  and  C_27
REMARK   10  A    between atoms: C_27  and  C_28
REMARK                            x       y       z     vdW  Elec       q    Type
REMARK                         _______ _______ _______ _____ _____    ______ ____
ROOT
ATOM      1  P   UNL     1       3.942   3.561  18.453  0.00  0.00    +0.000 P 
ATOM      2  O   UNL     1       3.537   2.317  17.729  0.00  0.00    +0.000 OA
ATOM      3  O   UNL     1       3.523   4.862  17.608  0.00  0.00    +0.000 OA
ATOM      4  C   UNL     1       3.454   6.102  18.271  0.00  0.00    +0.000 C 
ATOM      5  C   UNL     1       2.387   6.042  19.363  0.00  0.00    +0.000 C 
ATOM      6  C   UNL     1       2.859   5.009  20.396  0.00  0.00    +0.000 C 
ATOM      7  O   UNL     1       3.124   3.739  19.826  0.00  0.00    +0.000 OA
ENDROOT
BRANCH   1   8
ATOM      8  N   UNL     1       5.546   3.710  18.778  0.00  0.00    +0.000 NA
ATOM      9  H   UNL     1       6.047   2.922  18.375  0.00  0.00    +0.000 HD
BRANCH   8  11
ATOM     10  C   UNL     1       7.075   5.601  19.231  0.00  0.00    +0.000 C 
ATOM     11  C   UNL     1       6.172   4.933  18.201  0.00  0.00    +0.000 C 
BRANCH  11  12
ATOM     12  C   UNL     1       7.014   4.543  16.976  0.00  0.00    +0.000 C 
ATOM     13  O   UNL     1       8.170   4.143  17.066  0.00  0.00    +0.000 OA
BRANCH  12  14
ATOM     14  O   UNL     1       6.318   4.731  15.824  0.00  0.00    +0.000 OA
BRANCH  14  15
ATOM     15  C   UNL     1       7.098   4.930  14.635  0.00  0.00    +0.000 C 
BRANCH  15  16
ATOM     16  C   UNL     1       6.491   4.159  13.488  0.00  0.00    +0.000 A 
ATOM     17  C   UNL     1       7.294   3.570  12.501  0.00  0.00    +0.000 A 
ATOM     18  C   UNL     1       6.717   2.844  11.455  0.00  0.00    +0.000 A 
ATOM     19  C   UNL     1       5.331   2.699  11.382  0.00  0.00    +0.000 A 
ATOM     20  C   UNL     1       4.524   3.271  12.360  0.00  0.00    +0.000 A 
ATOM     21  C   UNL     1       5.102   3.988  13.411  0.00  0.00    +0.000 A 
ENDBRANCH  15  16
ENDBRANCH  14  15
ENDBRANCH  12  14
ENDBRANCH  11  12
ENDBRANCH   8  11
ENDBRANCH   1   8
BRANCH   5  22
ATOM     22  O   UNL     1       2.174   7.308  20.002  0.00  0.00    +0.000 OA
BRANCH  22  23
ATOM     23  C   UNL     1       0.997   7.322  20.818  0.00  0.00    +0.000 C 
BRANCH  23  24
ATOM     24  N   UNL     1       0.777   8.662  21.314  0.00  0.00    +0.000 N 
ATOM     25  C   UNL     1       0.929   9.079  22.608  0.00  0.00    +0.000 A 
ATOM     26  N   UNL     1       0.571  10.337  22.761  0.00  0.00    +0.000 NA
ATOM     27  C   UNL     1       0.154  10.746  21.512  0.00  0.00    +0.000 A 
ATOM     28  C   UNL     1      -0.352  11.921  20.978  0.00  0.00    +0.000 A 
ATOM     29 CL   UNL     1      -0.538  13.271  21.985  0.00  0.00    +0.000 Cl
ATOM     30  N   UNL     1      -0.711  12.023  19.686  0.00  0.00    +0.000 NA
ATOM     31  C   UNL     1      -0.570  10.935  18.918  0.00  0.00    +0.000 A 
ATOM     32  N   UNL     1      -0.960  11.059  17.604  0.00  0.00    +0.000 N 
ATOM     33  N   UNL     1      -0.066   9.742  19.297  0.00  0.00    +0.000 NA
ATOM     34  C   UNL     1       0.269   9.712  20.597  0.00  0.00    +0.000 A 
ATOM     35  H   UNL     1      -0.961  12.034  17.329  0.00  0.00    +0.000 HD
ATOM     36  H   UNL     1      -0.475  10.406  17.008  0.00  0.00    +0.000 HD
ENDBRANCH  23  24
ENDBRANCH  22  23
ENDBRANCH   5  22
TORSDOF 9
ENDMDL
MODEL 3
REMARK VINA RESULT:      -7.8      5.111      8.030
REMARK  Name = 
REMARK  10 active torsions:
REMARK  status: ('A' for Active; 'I' for Inactive)
REMARK    1  A    between atoms: C_1  and  C_2
REMARK    2  A    between atoms: C_2  and  N_3
REMARK    3  A    between atoms: C_2  and  C_24
REMARK    4  A    between atoms: N_3  and  P_4
REMARK    5  A    between atoms: C_8  and  O_9
REMARK    6  A    between atoms: O_9  and  C_10
REMARK    7  A    between atoms: C_10  and  N_11
REMARK    8  A    between atoms: C_24  and  O_26
REMARK    9  A    between atoms: O_26  and  C_27
REMARK   10  A    between atoms: C_27  and  C_28
REMARK                            x       y       z     vdW  Elec       q    Type
REMARK                         _______ _______ _______ _____ _____    ______ ____
ROOT
ATOM      1  P   UNL     1       4.209   3.634  18.322  0.00  0.00    +0.000 P 
ATOM      2  O   UNL     1       3.853   2.299  17.751  0.00  0.00    +0.000 OA
ATOM      3  O   UNL     1       3.853   4.803  17.278  0.00  0.00    +0.000 OA
ATOM      4  C   UNL     1       3.740   6.122  17.756  0.00  0.00    +0.000 C 
ATOM      5  C   UNL     1       2.599   6.205  18.769  0.00  0.00    +0.000 C 
ATOM      6  C   UNL     1       2.995   5.329  19.965  0.00  0.00    +0.000 C 
ATOM      7  O   UNL     1       3.297   3.995  19.596  0.00  0.00    +0.000 OA
ENDROOT
BRANCH   1   8
ATOM      8  N   UNL     1       5.787   3.839  18.734  0.00  0.00    +0.000 NA
ATOM      9  H   UNL     1       6.309   2.999  18.498  0.00  0.00    +0.000 HD
BRANCH   8  11
ATOM     10  C   UNL     1       6.751   6.105  18.978  0.00  0.00    +0.000 C 
ATOM     11  C   UNL     1       6.462   4.957  18.017  0.00  0.00    +0.000 C 
BRANCH  11  12
ATOM     12  C   UNL     1       7.788   4.455  17.425  0.00  0.00    +0.000 C 
ATOM     13  O   UNL     1       8.688   3.989  18.117  0.00  0.00    +0.000 OA
BRANCH  12  14
ATOM     14  O   UNL     1       7.820   4.626  16.079  0.00  0.00    +0.000 OA
BRANCH  14  15
ATOM     15  C   UNL     1       6.652   5.213  15.483  0.00  0.00    +0.000 C 
BRANCH  15  16
ATOM     16  C   UNL     1       6.346   4.530  14.172  0.00  0.00    +0.000 A 
ATOM     17  C   UNL     1       5.079   3.990  13.911  0.00  0.00    +0.000 A 
ATOM     18  C   UNL     1       4.806   3.378  12.685  0.00  0.00    +0.000 A 
ATOM     19  C   UNL     1       5.797   3.296  11.705  0.00  0.00    +0.000 A 
ATOM     20  C   UNL     1       7.056   3.836  11.949  0.00  0.00    +0.000 A 
ATOM     21  C   UNL     1       7.324   4.458  13.171  0.00  0.00    +0.000 A 
ENDBRANCH  15  16
ENDBRANCH  14  15
ENDBRANCH  12  14
ENDBRANCH  11  12
ENDBRANCH   8  11
ENDBRANCH   1   8
BRANCH   5  22
ATOM     22  O   UNL     1       2.345   7.546  19.210  0.00  0.00    +0.000 OA
BRANCH  22  23
ATOM     23  C   UNL     1       1.680   8.336  18.216  0.00  0.00    +0.000 C 
BRANCH  23  24
ATOM     24  N   UNL     1       1.486   9.675  18.725  0.00  0.00    +0.000 N 
ATOM     25  C   UNL     1       1.940  10.831  18.150  0.00  0.00    +0.000 A 
ATOM     26  N   UNL     1       1.678  11.883  18.895  0.00  0.00    +0.000 NA
ATOM     27  C   UNL     1       1.040  11.383  20.011  0.00  0.00    +0.000 A 
ATOM     28  C   UNL     1       0.517  11.927  21.175  0.00  0.00    +0.000 A 
ATOM     29 CL   UNL     1       0.593  13.604  21.408  0.00  0.00    +0.000 Cl
ATOM     30  N   UNL     1      -0.039  11.165  22.132  0.00  0.00    +0.000 NA
ATOM     31  C   UNL     1      -0.069   9.842  21.930  0.00  0.00    +0.000 A 
ATOM     32  N   UNL     1      -0.629   9.082  22.932  0.00  0.00    +0.000 N 
ATOM     33  N   UNL     1       0.374   9.184  20.838  0.00  0.00    +0.000 NA
ATOM     34  C   UNL     1       0.917  10.005  19.925  0.00  0.00    +0.000 A 
ATOM     35  H   UNL     1      -1.244   9.650  23.501  0.00  0.00    +0.000 HD
ATOM     36  H   UNL     1      -0.992   8.210  22.580  0.00  0.00    +0.000 HD
ENDBRANCH  23  24
ENDBRANCH  22  23
ENDBRANCH   5  22
TORSDOF 9
ENDMDL
MODEL 4
REMARK VINA RESULT:      -7.7      5.279      8.518
REMARK  Name = 
REMARK  10 active torsions:
REMARK  status: ('A' for Active; 'I' for Inactive)
REMARK    1  A    between atoms: C_1  and  C_2
REMARK    2  A    between atoms: C_2  and  N_3
REMARK    3  A    between atoms: C_2  and  C_24
REMARK    4  A    between atoms: N_3  and  P_4
REMARK    5  A    between atoms: C_8  and  O_9
REMARK    6  A    between atoms: O_9  and  C_10
REMARK    7  A    between atoms: C_10  and  N_11
REMARK    8  A    between atoms: C_24  and  O_26
REMARK    9  A    between atoms: O_26  and  C_27
REMARK   10  A    between atoms: C_27  and  C_28
REMARK                            x       y       z     vdW  Elec       q    Type
REMARK                         _______ _______ _______ _____ _____    ______ ____
ROOT
ATOM      1  P   UNL     1       4.116   4.963  17.842  0.00  0.00    +0.000 P 
ATOM      2  O   UNL     1       3.847   3.888  16.837  0.00  0.00    +0.000 OA
ATOM      3  O   UNL     1       3.464   6.352  17.364  0.00  0.00    +0.000 OA
ATOM      4  C   UNL     1       3.261   7.365  18.319  0.00  0.00    +0.000 C 
ATOM      5  C   UNL     1       2.283   6.875  19.386  0.00  0.00    +0.000 C 
ATOM      6  C   UNL     1       2.960   5.705  20.113  0.00  0.00    +0.000 C 
ATOM      7  O   UNL     1       3.367   4.671  19.234  0.00  0.00    +0.000 OA
ENDROOT
BRANCH   1   8
ATOM      8  N   UNL     1       5.700   5.271  18.155  0.00  0.00    +0.000 NA
ATOM      9  H   UNL     1       6.178   4.399  18.368  0.00  0.00    +0.000 HD
BRANCH   8  11
ATOM     10  C   UNL     1       7.215   7.103  17.470  0.00  0.00    +0.000 C 
ATOM     11  C   UNL     1       6.439   5.875  17.010  0.00  0.00    +0.000 C 
BRANCH  11  12
ATOM     12  C   UNL     1       7.426   4.843  16.442  0.00  0.00    +0.000 C 
ATOM     13  O   UNL     1       8.123   4.130  17.156  0.00  0.00    +0.000 OA
BRANCH  12  14
ATOM     14  O   UNL     1       7.429   4.863  15.084  0.00  0.00    +0.000 OA
BRANCH  14  15
ATOM     15  C   UNL     1       6.151   5.019  14.447  0.00  0.00    +0.000 C 
BRANCH  15  16
ATOM     16  C   UNL     1       6.044   4.076  13.273  0.00  0.00    +0.000 A 
ATOM     17  C   UNL     1       7.187   3.560  12.647  0.00  0.00    +0.000 A 
ATOM     18  C   UNL     1       7.071   2.674  11.573  0.00  0.00    +0.000 A 
ATOM     19  C   UNL     1       5.811   2.294  11.110  0.00  0.00    +0.000 A 
ATOM     20  C   UNL     1       4.669   2.792  11.729  0.00  0.00    +0.000 A 
ATOM     21  C   UNL     1       4.786   3.669  12.809  0.00  0.00    +0.000 A 
ENDBRANCH  15  16
ENDBRANCH  14  15
ENDBRANCH  12  14
ENDBRANCH  11  12
ENDBRANCH   8  11
ENDBRANCH   1   8
BRANCH   5  22
ATOM     22  O   UNL     1       1.933   7.897  20.329  0.00  0.00    +0.000 OA
BRANCH  22  23
ATOM     23  C   UNL     1       1.109   8.919  19.754  0.00  0.00    +0.000 C 
BRANCH  23  24
ATOM     24  N   UNL     1       0.655   9.809  20.799  0.00  0.00    +0.000 N 
ATOM     25  C   UNL     1       0.562   9.509  22.130  0.00  0.00    +0.000 A 
ATOM     26  N   UNL     1       0.033  10.499  22.818  0.00  0.00    +0.000 NA
ATOM     27  C   UNL     1      -0.244  11.477  21.885  0.00  0.00    +0.000 A 
ATOM     28  C   UNL     1      -0.807  12.743  21.922  0.00  0.00    +0.000 A 
ATOM     29 CL   UNL     1      -1.305  13.381  23.411  0.00  0.00    +0.000 Cl
ATOM     30  N   UNL     1      -0.983  13.479  20.811  0.00  0.00    +0.000 NA
ATOM     31  C   UNL     1      -0.598  12.943  19.647  0.00  0.00    +0.000 A 
ATOM     32  N   UNL     1      -0.803  13.710  18.522  0.00  0.00    +0.000 N 
ATOM     33  N   UNL     1      -0.011  11.741  19.469  0.00  0.00    +0.000 NA
ATOM     34  C   UNL     1       0.132  11.061  20.617  0.00  0.00    +0.000 A 
ATOM     35  H   UNL     1      -0.884  14.687  18.774  0.00  0.00    +0.000 HD
ATOM     36  H   UNL     1      -0.159  13.470  17.785  0.00  0.00    +0.000 HD
ENDBRANCH  23  24
ENDBRANCH  22  23
ENDBRANCH   5  22
TORSDOF 9
ENDMDL
MODEL 5
REMARK VINA RESULT:      -7.6      1.206      2.296
REMARK  Name = 
REMARK  10 active torsions:
REMARK  status: ('A' for Active; 'I' for Inactive)
REMARK    1  A    between atoms: C_1  and  C_2
REMARK    2  A    between atoms: C_2  and  N_3
REMARK    3  A    between atoms: C_2  and  C_24
REMARK    4  A    between atoms: N_3  and  P_4
REMARK    5  A    between atoms: C_8  and  O_9
REMARK    6  A    between atoms: O_9  and  C_10
REMARK    7  A    between atoms: C_10  and  N_11
REMARK    8  A    between atoms: C_24  and  O_26
REMARK    9  A    between atoms: O_26  and  C_27
REMARK   10  A    between atoms: C_27  and  C_28
REMARK                            x       y       z     vdW  Elec       q    Type
REMARK                         _______ _______ _______ _____ _____    ______ ____
ROOT
ATOM      1  P   UNL     1       6.792   5.058  17.170  0.00  0.00    +0.000 P 
ATOM      2  O   UNL     1       7.117   4.002  16.163  0.00  0.00    +0.000 OA
ATOM      3  O   UNL     1       8.131   5.569  17.898  0.00  0.00    +0.000 OA
ATOM      4  C   UNL     1       8.101   6.803  18.573  0.00  0.00    +0.000 C 
ATOM      5  C   UNL     1       7.798   7.925  17.581  0.00  0.00    +0.000 C 
ATOM      6  C   UNL     1       6.383   7.678  17.041  0.00  0.00    +0.000 C 
ATOM      7  O   UNL     1       6.228   6.390  16.469  0.00  0.00    +0.000 OA
ENDROOT
BRANCH   1   8
ATOM      8  N   UNL     1       5.751   4.615  18.363  0.00  0.00    +0.000 NA
ATOM      9  H   UNL     1       5.880   5.223  19.167  0.00  0.00    +0.000 HD
BRANCH   8  11
ATOM     10  C   UNL     1       3.930   3.622  17.013  0.00  0.00    +0.000 C 
ATOM     11  C   UNL     1       4.313   4.730  17.988  0.00  0.00    +0.000 C 
BRANCH  11  12
ATOM     12  C   UNL     1       3.447   4.607  19.251  0.00  0.00    +0.000 C 
ATOM     13  O   UNL     1       3.355   3.566  19.893  0.00  0.00    +0.000 OA
BRANCH  12  14
ATOM     14  O   UNL     1       2.803   5.773  19.518  0.00  0.00    +0.000 OA
BRANCH  14  15
ATOM     15  C   UNL     1       2.982   6.833  18.566  0.00  0.00    +0.000 C 
BRANCH  15  16
ATOM     16  C   UNL     1       2.065   7.984  18.901  0.00  0.00    +0.000 A 
ATOM     17  C   UNL     1       1.613   8.198  20.210  0.00  0.00    +0.000 A 
ATOM     18  C   UNL     1       0.779   9.279  20.507  0.00  0.00    +0.000 A 
ATOM     19  C   UNL     1       0.385  10.159  19.498  0.00  0.00    +0.000 A 
ATOM     20  C   UNL     1       0.835   9.964  18.196  0.00  0.00    +0.000 A 
ATOM     21  C   UNL     1       1.677   8.889  17.903  0.00  0.00    +0.000 A 
ENDBRANCH  15  16
ENDBRANCH  14  15
ENDBRANCH  12  14
ENDBRANCH  11  12
ENDBRANCH   8  11
ENDBRANCH   1   8
BRANCH   5  22
ATOM     22  O   UNL     1       7.872   9.228  18.176  0.00  0.00    +0.000 OA
BRANCH  22  23
ATOM     23  C   UNL     1       9.108   9.450  18.866  0.00  0.00    +0.000 C 
BRANCH  23  24
ATOM     24  N   UNL     1       9.356  10.871  18.954  0.00  0.00    +0.000 N 
ATOM     25  C   UNL     1       9.807  11.675  17.943  0.00  0.00    +0.000 A 
ATOM     26  N   UNL     1      10.016  12.908  18.356  0.00  0.00    +0.000 NA
ATOM     27  C   UNL     1       9.700  12.895  19.699  0.00  0.00    +0.000 A 
ATOM     28  C   UNL     1       9.708  13.831  20.722  0.00  0.00    +0.000 A 
ATOM     29 CL   UNL     1      10.179  15.422  20.381  0.00  0.00    +0.000 Cl
ATOM     30  N   UNL     1       9.364  13.514  21.982  0.00  0.00    +0.000 NA
ATOM     31  C   UNL     1       9.014  12.245  22.227  0.00  0.00    +0.000 A 
ATOM     32  N   UNL     1       8.682  11.942  23.528  0.00  0.00    +0.000 N 
ATOM     33  N   UNL     1       8.934  11.244  21.326  0.00  0.00    +0.000 NA
ATOM     34  C   UNL     1       9.292  11.630  20.091  0.00  0.00    +0.000 A 
ATOM     35  H   UNL     1       8.412  12.781  24.026  0.00  0.00    +0.000 HD
ATOM     36  H   UNL     1       8.062  11.149  23.579  0.00  0.00    +0.000 HD
ENDBRANCH  23  24
ENDBRANCH  22  23
ENDBRANCH   5  22
TORSDOF 9
ENDMDL
MODEL 6
REMARK VINA RESULT:      -7.5      5.634      8.578
REMARK  Name = 
REMARK  10 active torsions:
REMARK  status: ('A' for Active; 'I' for Inactive)
REMARK    1  A    between atoms: C_1  and  C_2
REMARK    2  A    between atoms: C_2  and  N_3
REMARK    3  A    between atoms: C_2  and  C_24
REMARK    4  A    between atoms: N_3  and  P_4
REMARK    5  A    between atoms: C_8  and  O_9
REMARK    6  A    between atoms: O_9  and  C_10
REMARK    7  A    between atoms: C_10  and  N_11
REMARK    8  A    between atoms: C_24  and  O_26
REMARK    9  A    between atoms: O_26  and  C_27
REMARK   10  A    between atoms: C_27  and  C_28
REMARK                            x       y       z     vdW  Elec       q    Type
REMARK                         _______ _______ _______ _____ _____    ______ ____
ROOT
ATOM      1  P   UNL     1       3.972   3.744  18.636  0.00  0.00    +0.000 P 
ATOM      2  O   UNL     1       3.805   2.683  17.596  0.00  0.00    +0.000 OA
ATOM      3  O   UNL     1       3.528   5.175  18.053  0.00  0.00    +0.000 OA
ATOM      4  C   UNL     1       3.236   6.210  18.960  0.00  0.00    +0.000 C 
ATOM      5  C   UNL     1       2.047   5.810  19.832  0.00  0.00    +0.000 C 
ATOM      6  C   UNL     1       2.488   4.598  20.665  0.00  0.00    +0.000 C 
ATOM      7  O   UNL     1       2.964   3.526  19.870  0.00  0.00    +0.000 OA
ENDROOT
BRANCH   1   8
ATOM      8  N   UNL     1       5.493   3.931  19.231  0.00  0.00    +0.000 NA
ATOM      9  H   UNL     1       6.050   3.113  18.997  0.00  0.00    +0.000 HD
BRANCH   8  11
ATOM     10  C   UNL     1       7.220   5.642  19.689  0.00  0.00    +0.000 C 
ATOM     11  C   UNL     1       6.225   5.101  18.668  0.00  0.00    +0.000 C 
BRANCH  11  12
ATOM     12  C   UNL     1       6.989   4.664  17.409  0.00  0.00    +0.000 C 
ATOM     13  O   UNL     1       8.118   4.187  17.450  0.00  0.00    +0.000 OA
BRANCH  12  14
ATOM     14  O   UNL     1       6.262   4.906  16.287  0.00  0.00    +0.000 OA
BRANCH  14  15
ATOM     15  C   UNL     1       6.059   3.789  15.407  0.00  0.00    +0.000 C 
BRANCH  15  16
ATOM     16  C   UNL     1       6.580   4.120  14.029  0.00  0.00    +0.000 A 
ATOM     17  C   UNL     1       6.196   3.373  12.907  0.00  0.00    +0.000 A 
ATOM     18  C   UNL     1       6.673   3.703  11.636  0.00  0.00    +0.000 A 
ATOM     19  C   UNL     1       7.542   4.782  11.471  0.00  0.00    +0.000 A 
ATOM     20  C   UNL     1       7.923   5.537  12.576  0.00  0.00    +0.000 A 
ATOM     21  C   UNL     1       7.437   5.213  13.844  0.00  0.00    +0.000 A 
ENDBRANCH  15  16
ENDBRANCH  14  15
ENDBRANCH  12  14
ENDBRANCH  11  12
ENDBRANCH   8  11
ENDBRANCH   1   8
BRANCH   5  22
ATOM     22  O   UNL     1       1.614   6.866  20.699  0.00  0.00    +0.000 OA
BRANCH  22  23
ATOM     23  C   UNL     1       2.220   8.125  20.381  0.00  0.00    +0.000 C 
BRANCH  23  24
ATOM     24  N   UNL     1       1.269   8.943  19.663  0.00  0.00    +0.000 N 
ATOM     25  C   UNL     1       1.176   9.065  18.303  0.00  0.00    +0.000 A 
ATOM     26  N   UNL     1       0.266   9.951  17.954  0.00  0.00    +0.000 NA
ATOM     27  C   UNL     1      -0.239  10.434  19.143  0.00  0.00    +0.000 A 
ATOM     28  C   UNL     1      -1.191  11.377  19.499  0.00  0.00    +0.000 A 
ATOM     29 CL   UNL     1      -2.033  12.200  18.279  0.00  0.00    +0.000 Cl
ATOM     30  N   UNL     1      -1.463  11.670  20.782  0.00  0.00    +0.000 NA
ATOM     31  C   UNL     1      -0.770  11.019  21.724  0.00  0.00    +0.000 A 
ATOM     32  N   UNL     1      -1.054  11.348  23.030  0.00  0.00    +0.000 N 
ATOM     33  N   UNL     1       0.159  10.061  21.523  0.00  0.00    +0.000 NA
ATOM     34  C   UNL     1       0.380   9.821  20.221  0.00  0.00    +0.000 A 
ATOM     35  H   UNL     1      -1.975  11.765  23.095  0.00  0.00    +0.000 HD
ATOM     36  H   UNL     1      -0.839  10.591  23.661  0.00  0.00    +0.000 HD
ENDBRANCH  23  24
ENDBRANCH  22  23
ENDBRANCH   5  22
TORSDOF 9
ENDMDL
MODEL 7
REMARK VINA RESULT:      -7.5      6.221      9.291
REMARK  Name = 
REMARK  10 active torsions:
REMARK  status: ('A' for Active; 'I' for Inactive)
REMARK    1  A    between atoms: C_1  and  C_2
REMARK    2  A    between atoms: C_2  and  N_3
REMARK    3  A    between atoms: C_2  and  C_24
REMARK    4  A    between atoms: N_3  and  P_4
REMARK    5  A    between atoms: C_8  and  O_9
REMARK    6  A    between atoms: O_9  and  C_10
REMARK    7  A    between atoms: C_10  and  N_11
REMARK    8  A    between atoms: C_24  and  O_26
REMARK    9  A    between atoms: O_26  and  C_27
REMARK   10  A    between atoms: C_27  and  C_28
REMARK                            x       y       z     vdW  Elec       q    Type
REMARK                         _______ _______ _______ _____ _____    ______ ____
ROOT
ATOM      1  P   UNL     1       2.837   6.318  19.304  0.00  0.00    +0.000 P 
ATOM      2  O   UNL     1       4.127   5.786  19.841  0.00  0.00    +0.000 OA
ATOM      3  O   UNL     1       2.209   7.395  20.318  0.00  0.00    +0.000 OA
ATOM      4  C   UNL     1       1.232   8.285  19.835  0.00  0.00    +0.000 C 
ATOM      5  C   UNL     1       1.831   9.158  18.733  0.00  0.00    +0.000 C 
ATOM      6  C   UNL     1       2.199   8.225  17.571  0.00  0.00    +0.000 C 
ATOM      7  O   UNL     1       3.064   7.172  17.960  0.00  0.00    +0.000 OA
ENDROOT
BRANCH   1   8
ATOM      8  N   UNL     1       1.664   5.202  19.021  0.00  0.00    +0.000 NA
ATOM      9  H   UNL     1       1.245   5.375  18.111  0.00  0.00    +0.000 HD
BRANCH   8  11
ATOM     10  C   UNL     1       1.012   2.825  19.242  0.00  0.00    +0.000 C 
ATOM     11  C   UNL     1       2.159   3.796  18.984  0.00  0.00    +0.000 C 
BRANCH  11  12
ATOM     12  C   UNL     1       2.760   3.505  17.600  0.00  0.00    +0.000 C 
ATOM     13  O   UNL     1       2.074   3.399  16.589  0.00  0.00    +0.000 OA
BRANCH  12  14
ATOM     14  O   UNL     1       4.108   3.361  17.673  0.00  0.00    +0.000 OA
BRANCH  14  15
ATOM     15  C   UNL     1       4.869   3.928  16.594  0.00  0.00    +0.000 C 
BRANCH  15  16
ATOM     16  C   UNL     1       5.852   4.938  17.134  0.00  0.00    +0.000 A 
ATOM     17  C   UNL     1       6.811   4.580  18.091  0.00  0.00    +0.000 A 
ATOM     18  C   UNL     1       7.726   5.523  18.568  0.00  0.00    +0.000 A 
ATOM     19  C   UNL     1       7.692   6.835  18.095  0.00  0.00    +0.000 A 
ATOM     20  C   UNL     1       6.750   7.201  17.138  0.00  0.00    +0.000 A 
ATOM     21  C   UNL     1       5.843   6.255  16.655  0.00  0.00    +0.000 A 
ENDBRANCH  15  16
ENDBRANCH  14  15
ENDBRANCH  12  14
ENDBRANCH  11  12
ENDBRANCH   8  11
ENDBRANCH   1   8
BRANCH   5  22
ATOM     22  O   UNL     1       0.928  10.173  18.276  0.00  0.00    +0.000 OA
BRANCH  22  23
ATOM     23  C   UNL     1      -0.034  10.544  19.271  0.00  0.00    +0.000 C 
BRANCH  23  24
ATOM     24  N   UNL     1      -1.343  10.624  18.661  0.00  0.00    +0.000 N 
ATOM     25  C   UNL     1      -1.723  10.036  17.486  0.00  0.00    +0.000 A 
ATOM     26  N   UNL     1      -2.953  10.364  17.151  0.00  0.00    +0.000 NA
ATOM     27  C   UNL     1      -3.380  11.217  18.147  0.00  0.00    +0.000 A 
ATOM     28  C   UNL     1      -4.544  11.927  18.405  0.00  0.00    +0.000 A 
ATOM     29 CL   UNL     1      -5.846  11.794  17.329  0.00  0.00    +0.000 Cl
ATOM     30  N   UNL     1      -4.669  12.728  19.477  0.00  0.00    +0.000 NA
ATOM     31  C   UNL     1      -3.618  12.829  20.299  0.00  0.00    +0.000 A 
ATOM     32  N   UNL     1      -3.765  13.667  21.381  0.00  0.00    +0.000 N 
ATOM     33  N   UNL     1      -2.442  12.176  20.187  0.00  0.00    +0.000 NA
ATOM     34  C   UNL     1      -2.386  11.396  19.096  0.00  0.00    +0.000 A 
ATOM     35  H   UNL     1      -4.747  13.806  21.587  0.00  0.00    +0.000 HD
ATOM     36  H   UNL     1      -3.161  13.403  22.143  0.00  0.00    +0.000 HD
ENDBRANCH  23  24
ENDBRANCH  22  23
ENDBRANCH   5  22
TORSDOF 9
ENDMDL
MODEL 8
REMARK VINA RESULT:      -7.5      5.861      8.673
REMARK  Name = 
REMARK  10 active torsions:
REMARK  status: ('A' for Active; 'I' for Inactive)
REMARK    1  A    between atoms: C_1  and  C_2
REMARK    2  A    between atoms: C_2  and  N_3
REMARK    3  A    between atoms: C_2  and  C_24
REMARK    4  A    between atoms: N_3  and  P_4
REMARK    5  A    between atoms: C_8  and  O_9
REMARK    6  A    between atoms: O_9  and  C_10
REMARK    7  A    between atoms: C_10  and  N_11
REMARK    8  A    between atoms: C_24  and  O_26
REMARK    9  A    between atoms: O_26  and  C_27
REMARK   10  A    between atoms: C_27  and  C_28
REMARK                            x       y       z     vdW  Elec       q    Type
REMARK                         _______ _______ _______ _____ _____    ______ ____
ROOT
ATOM      1  P   UNL     1       3.047   6.026  19.458  0.00  0.00    +0.000 P 
ATOM      2  O   UNL     1       4.393   5.589  19.939  0.00  0.00    +0.000 OA
ATOM      3  O   UNL     1       2.387   7.057  20.500  0.00  0.00    +0.000 OA
ATOM      4  C   UNL     1       1.328   7.873  20.061  0.00  0.00    +0.000 C 
ATOM      5  C   UNL     1       1.815   8.785  18.936  0.00  0.00    +0.000 C 
ATOM      6  C   UNL     1       2.199   7.880  17.758  0.00  0.00    +0.000 C 
ATOM      7  O   UNL     1       3.154   6.893  18.108  0.00  0.00    +0.000 OA
ENDROOT
BRANCH   1   8
ATOM      8  N   UNL     1       1.947   4.828  19.223  0.00  0.00    +0.000 NA
ATOM      9  H   UNL     1       1.397   5.032  18.392  0.00  0.00    +0.000 HD
BRANCH   8  11
ATOM     10  C   UNL     1       1.533   2.389  19.294  0.00  0.00    +0.000 C 
ATOM     11  C   UNL     1       2.551   3.484  18.995  0.00  0.00    +0.000 C 
BRANCH  11  12
ATOM     12  C   UNL     1       2.994   3.369  17.529  0.00  0.00    +0.000 C 
ATOM     13  O   UNL     1       2.199   3.368  16.594  0.00  0.00    +0.000 OA
BRANCH  12  14
ATOM     14  O   UNL     1       4.343   3.242  17.433  0.00  0.00    +0.000 OA
BRANCH  14  15
ATOM     15  C   UNL     1       4.981   3.995  16.390  0.00  0.00    +0.000 C 
BRANCH  15  16
ATOM     16  C   UNL     1       5.952   4.983  16.989  0.00  0.00    +0.000 A 
ATOM     17  C   UNL     1       5.960   6.327  16.591  0.00  0.00    +0.000 A 
ATOM     18  C   UNL     1       6.853   7.234  17.168  0.00  0.00    +0.000 A 
ATOM     19  C   UNL     1       7.750   6.808  18.149  0.00  0.00    +0.000 A 
ATOM     20  C   UNL     1       7.745   5.479  18.559  0.00  0.00    +0.000 A 
ATOM     21  C   UNL     1       6.845   4.576  17.989  0.00  0.00    +0.000 A 
ENDBRANCH  15  16
ENDBRANCH  14  15
ENDBRANCH  12  14
ENDBRANCH  11  12
ENDBRANCH   8  11
ENDBRANCH   1   8
BRANCH   5  22
ATOM     22  O   UNL     1       0.823   9.732  18.520  0.00  0.00    +0.000 OA
BRANCH  22  23
ATOM     23  C   UNL     1       1.058  11.045  19.045  0.00  0.00    +0.000 C 
BRANCH  23  24
ATOM     24  N   UNL     1      -0.153  11.533  19.667  0.00  0.00    +0.000 N 
ATOM     25  C   UNL     1      -0.309  11.855  20.987  0.00  0.00    +0.000 A 
ATOM     26  N   UNL     1      -1.551  12.188  21.265  0.00  0.00    +0.000 NA
ATOM     27  C   UNL     1      -2.233  12.059  20.073  0.00  0.00    +0.000 A 
ATOM     28  C   UNL     1      -3.546  12.234  19.665  0.00  0.00    +0.000 A 
ATOM     29 CL   UNL     1      -4.700  12.747  20.795  0.00  0.00    +0.000 Cl
ATOM     30  N   UNL     1      -3.939  11.999  18.401  0.00  0.00    +0.000 NA
ATOM     31  C   UNL     1      -3.011  11.576  17.534  0.00  0.00    +0.000 A 
ATOM     32  N   UNL     1      -3.440  11.326  16.250  0.00  0.00    +0.000 N 
ATOM     33  N   UNL     1      -1.698  11.393  17.786  0.00  0.00    +0.000 NA
ATOM     34  C   UNL     1      -1.377  11.645  19.065  0.00  0.00    +0.000 A 
ATOM     35  H   UNL     1      -4.300  11.828  16.064  0.00  0.00    +0.000 HD
ATOM     36  H   UNL     1      -2.691  11.419  15.582  0.00  0.00    +0.000 HD
ENDBRANCH  23  24
ENDBRANCH  22  23
ENDBRANCH   5  22
TORSDOF 9
ENDMDL
MODEL 9
REMARK VINA RESULT:      -7.5      6.695      9.486
REMARK  Name = 
REMARK  10 active torsions:
REMARK  status: ('A' for Active; 'I' for Inactive)
REMARK    1  A    between atoms: C_1  and  C_2
REMARK    2  A    between atoms: C_2  and  N_3
REMARK    3  A    between atoms: C_2  and  C_24
REMARK    4  A    between atoms: N_3  and  P_4
REMARK    5  A    between atoms: C_8  and  O_9
REMARK    6  A    between atoms: O_9  and  C_10
REMARK    7  A    between atoms: C_10  and  N_11
REMARK    8  A    between atoms: C_24  and  O_26
REMARK    9  A    between atoms: O_26  and  C_27
REMARK   10  A    between atoms: C_27  and  C_28
REMARK                            x       y       z     vdW  Elec       q    Type
REMARK                         _______ _______ _______ _____ _____    ______ ____
ROOT
ATOM      1  P   UNL     1       2.469   6.961  19.417  0.00  0.00    +0.000 P 
ATOM      2  O   UNL     1       3.898   6.526  19.356  0.00  0.00    +0.000 OA
ATOM      3  O   UNL     1       2.166   7.696  20.814  0.00  0.00    +0.000 OA
ATOM      4  C   UNL     1       1.024   8.511  20.913  0.00  0.00    +0.000 C 
ATOM      5  C   UNL     1       1.136   9.674  19.929  0.00  0.00    +0.000 C 
ATOM      6  C   UNL     1       1.134   9.071  18.518  0.00  0.00    +0.000 C 
ATOM      7  O   UNL     1       2.150   8.101  18.330  0.00  0.00    +0.000 OA
ENDROOT
BRANCH   1   8
ATOM      8  N   UNL     1       1.350   5.766  19.265  0.00  0.00    +0.000 NA
ATOM      9  H   UNL     1       0.952   5.794  18.329  0.00  0.00    +0.000 HD
BRANCH   8  11
ATOM     10  C   UNL     1       0.989   3.564  20.332  0.00  0.00    +0.000 C 
ATOM     11  C   UNL     1       1.901   4.391  19.435  0.00  0.00    +0.000 C 
BRANCH  11  12
ATOM     12  C   UNL     1       2.004   3.711  18.061  0.00  0.00    +0.000 C 
ATOM     13  O   UNL     1       1.168   3.873  17.178  0.00  0.00    +0.000 OA
BRANCH  12  14
ATOM     14  O   UNL     1       3.100   2.913  17.990  0.00  0.00    +0.000 OA
BRANCH  14  15
ATOM     15  C   UNL     1       4.297   3.419  18.602  0.00  0.00    +0.000 C 
BRANCH  15  16
ATOM     16  C   UNL     1       5.210   3.994  17.547  0.00  0.00    +0.000 A 
ATOM     17  C   UNL     1       6.479   4.491  17.875  0.00  0.00    +0.000 A 
ATOM     18  C   UNL     1       7.320   5.004  16.884  0.00  0.00    +0.000 A 
ATOM     19  C   UNL     1       6.902   5.029  15.553  0.00  0.00    +0.000 A 
ATOM     20  C   UNL     1       5.648   4.530  15.213  0.00  0.00    +0.000 A 
ATOM     21  C   UNL     1       4.813   4.007  16.203  0.00  0.00    +0.000 A 
ENDBRANCH  15  16
ENDBRANCH  14  15
ENDBRANCH  12  14
ENDBRANCH  11  12
ENDBRANCH   8  11
ENDBRANCH   1   8
BRANCH   5  22
ATOM     22  O   UNL     1       0.063  10.616  20.058  0.00  0.00    +0.000 OA
BRANCH  22  23
ATOM     23  C   UNL     1      -0.199  11.323  18.839  0.00  0.00    +0.000 C 
BRANCH  23  24
ATOM     24  N   UNL     1      -1.610  11.628  18.760  0.00  0.00    +0.000 N 
ATOM     25  C   UNL     1      -2.384  12.135  19.768  0.00  0.00    +0.000 A 
ATOM     26  N   UNL     1      -3.649  12.224  19.415  0.00  0.00    +0.000 NA
ATOM     27  C   UNL     1      -3.697  11.736  18.126  0.00  0.00    +0.000 A 
ATOM     28  C   UNL     1      -4.695  11.536  17.184  0.00  0.00    +0.000 A 
ATOM     29 CL   UNL     1      -6.289  11.968  17.567  0.00  0.00    +0.000 Cl
ATOM     30  N   UNL     1      -4.442  10.998  15.979  0.00  0.00    +0.000 NA
ATOM     31  C   UNL     1      -3.178  10.649  15.710  0.00  0.00    +0.000 A 
ATOM     32  N   UNL     1      -2.948  10.086  14.476  0.00  0.00    +0.000 N 
ATOM     33  N   UNL     1      -2.109  10.814  16.517  0.00  0.00    +0.000 NA
ATOM     34  C   UNL     1      -2.434  11.354  17.702  0.00  0.00    +0.000 A 
ATOM     35  H   UNL     1      -3.686  10.340  13.830  0.00  0.00    +0.000 HD
ATOM     36  H   UNL     1      -1.996  10.225  14.174  0.00  0.00    +0.000 HD
ENDBRANCH  23  24
ENDBRANCH  22  23
ENDBRANCH   5  22
TORSDOF 9
ENDMDL
