MODEL 1
REMARK VINA RESULT:      -9.3      0.000      0.000
REMARK  Name = 
REMARK  6 active torsions:
REMARK  status: ('A' for Active; 'I' for Inactive)
REMARK    1  A    between atoms: C_1  and  C_2
REMARK    2  A    between atoms: C_4  and  N_5
REMARK    3  A    between atoms: N_5  and  C_6
REMARK    4  A    between atoms: C_9  and  O_10
REMARK    5  A    between atoms: O_10  and  C_11
REMARK    6  A    between atoms: C_11  and  C_12
REMARK                            x       y       z     vdW  Elec       q    Type
REMARK                         _______ _______ _______ _____ _____    ______ ____
ROOT
ATOM      1  N   UNL     1       2.904   7.192  19.779  0.00  0.00    +0.000 N 
ATOM      2  H   UNL     1       3.768   7.527  19.336  0.00  0.00    +0.000 HD
ENDROOT
BRANCH   1   6
ATOM      3  C   UNL     1       1.208   2.857  21.415  0.00  0.00    +0.000 C 
ATOM      4  C   UNL     1       1.975   3.674  20.421  0.00  0.00    +0.000 A 
ATOM      5  C   UNL     1       2.055   5.049  20.570  0.00  0.00    +0.000 A 
ATOM      6  C   UNL     1       2.757   5.797  19.634  0.00  0.00    +0.000 A 
ATOM      7  C   UNL     1       3.398   5.103  18.584  0.00  0.00    +0.000 A 
ATOM      8  C   UNL     1       3.281   3.690  18.490  0.00  0.00    +0.000 A 
ATOM      9  C   UNL     1       3.911   2.971  17.440  0.00  0.00    +0.000 A 
ATOM     10  C   UNL     1       4.693   3.523  16.396  0.00  0.00    +0.000 A 
ATOM     11  C   UNL     1       4.773   4.900  16.526  0.00  0.00    +0.000 A 
ATOM     12  C   UNL     1       5.442   5.741  15.683  0.00  0.00    +0.000 A 
ATOM     13  N   UNL     1       5.237   6.985  16.203  0.00  0.00    +0.000 N 
ATOM     14  N   UNL     1       4.486   7.003  17.323  0.00  0.00    +0.000 NA
ATOM     15  C   UNL     1       4.177   5.709  17.551  0.00  0.00    +0.000 A 
ATOM     16  N   UNL     1       2.571   3.003  19.398  0.00  0.00    +0.000 NA
ATOM     17  H   UNL     1       5.578   7.872  15.844  0.00  0.00    +0.000 HD
ENDBRANCH   1   6
BRANCH   1  18
ATOM     18  C   UNL     1       1.896   8.169  19.757  0.00  0.00    +0.000 A 
ATOM     19  C   UNL     1       1.682   8.846  18.561  0.00  0.00    +0.000 A 
ATOM     20  C   UNL     1       0.689   9.815  18.469  0.00  0.00    +0.000 A 
ATOM     21  C   UNL     1      -0.143  10.103  19.559  0.00  0.00    +0.000 A 
ATOM     22  C   UNL     1       0.052   9.410  20.754  0.00  0.00    +0.000 A 
ATOM     23  C   UNL     1       1.064   8.446  20.849  0.00  0.00    +0.000 A 
BRANCH  21  24
ATOM     24  O   UNL     1      -1.169  11.026  19.541  0.00  0.00    +0.000 OA
BRANCH  24  25
ATOM     25  C   UNL     1      -1.754  11.172  18.246  0.00  0.00    +0.000 C 
BRANCH  25  26
ATOM     26  C   UNL     1      -2.627   9.994  17.799  0.00  0.00    +0.000 C 
ATOM     27  C   UNL     1      -4.106  10.411  17.926  0.00  0.00    +0.000 C 
ATOM     28  C   UNL     1      -4.493  11.497  16.918  0.00  0.00    +0.000 C 
ATOM     29  C   UNL     1      -4.155  11.089  15.484  0.00  0.00    +0.000 C 
ATOM     30  C   UNL     1      -2.722  10.582  15.320  0.00  0.00    +0.000 C 
ATOM     31  C   UNL     1      -2.346   9.531  16.364  0.00  0.00    +0.000 C 
ENDBRANCH  25  26
ENDBRANCH  24  25
ENDBRANCH  21  24
ENDBRANCH   1  18
TORSDOF 5
ENDMDL
MODEL 2
REMARK VINA RESULT:      -9.0      1.045      3.339
REMARK  Name = 
REMARK  6 active torsions:
REMARK  status: ('A' for Active; 'I' for Inactive)
REMARK    1  A    between atoms: C_1  and  C_2
REMARK    2  A    between atoms: C_4  and  N_5
REMARK    3  A    between atoms: N_5  and  C_6
REMARK    4  A    between atoms: C_9  and  O_10
REMARK    5  A    between atoms: O_10  and  C_11
REMARK    6  A    between atoms: C_11  and  C_12
REMARK                            x       y       z     vdW  Elec       q    Type
REMARK                         _______ _______ _______ _____ _____    ______ ____
ROOT
ATOM      1  N   UNL     1       2.983   7.004  19.752  0.00  0.00    +0.000 N 
ATOM      2  H   UNL     1       3.721   7.270  20.414  0.00  0.00    +0.000 HD
ENDROOT
BRANCH   1   6
ATOM      3  C   UNL     1       5.327   6.345  15.460  0.00  0.00    +0.000 C 
ATOM      4  C   UNL     1       4.583   5.807  16.644  0.00  0.00    +0.000 A 
ATOM      5  C   UNL     1       4.155   6.667  17.641  0.00  0.00    +0.000 A 
ATOM      6  C   UNL     1       3.479   6.154  18.741  0.00  0.00    +0.000 A 
ATOM      7  C   UNL     1       3.221   4.766  18.767  0.00  0.00    +0.000 A 
ATOM      8  C   UNL     1       3.683   3.938  17.708  0.00  0.00    +0.000 A 
ATOM      9  C   UNL     1       3.443   2.538  17.715  0.00  0.00    +0.000 A 
ATOM     10  C   UNL     1       2.757   1.809  18.716  0.00  0.00    +0.000 A 
ATOM     11  C   UNL     1       2.331   2.656  19.727  0.00  0.00    +0.000 A 
ATOM     12  C   UNL     1       1.647   2.277  20.847  0.00  0.00    +0.000 A 
ATOM     13  N   UNL     1       1.455   3.435  21.542  0.00  0.00    +0.000 N 
ATOM     14  N   UNL     1       1.964   4.533  20.946  0.00  0.00    +0.000 NA
ATOM     15  C   UNL     1       2.523   4.076  19.805  0.00  0.00    +0.000 A 
ATOM     16  N   UNL     1       4.358   4.465  16.675  0.00  0.00    +0.000 NA
ATOM     17  H   UNL     1       0.985   3.553  22.435  0.00  0.00    +0.000 HD
ENDBRANCH   1   6
BRANCH   1  18
ATOM     18  C   UNL     1       2.007   8.006  19.630  0.00  0.00    +0.000 A 
ATOM     19  C   UNL     1       1.246   8.302  20.756  0.00  0.00    +0.000 A 
ATOM     20  C   UNL     1       0.274   9.295  20.706  0.00  0.00    +0.000 A 
ATOM     21  C   UNL     1       0.066  10.045  19.541  0.00  0.00    +0.000 A 
ATOM     22  C   UNL     1       0.842   9.768  18.416  0.00  0.00    +0.000 A 
ATOM     23  C   UNL     1       1.810   8.755  18.464  0.00  0.00    +0.000 A 
BRANCH  21  24
ATOM     24  O   UNL     1      -0.856  11.065  19.418  0.00  0.00    +0.000 OA
BRANCH  24  25
ATOM     25  C   UNL     1      -1.443  11.121  18.116  0.00  0.00    +0.000 C 
BRANCH  25  26
ATOM     26  C   UNL     1      -2.449  10.003  17.818  0.00  0.00    +0.000 C 
ATOM     27  C   UNL     1      -3.869  10.549  18.073  0.00  0.00    +0.000 C 
ATOM     28  C   UNL     1      -4.271  11.622  17.058  0.00  0.00    +0.000 C 
ATOM     29  C   UNL     1      -4.119  11.131  15.619  0.00  0.00    +0.000 C 
ATOM     30  C   UNL     1      -2.757  10.498  15.335  0.00  0.00    +0.000 C 
ATOM     31  C   UNL     1      -2.358   9.462  16.386  0.00  0.00    +0.000 C 
ENDBRANCH  25  26
ENDBRANCH  24  25
ENDBRANCH  21  24
ENDBRANCH   1  18
TORSDOF 5
ENDMDL
MODEL 3
REMARK VINA RESULT:      -8.9      1.036      1.128
REMARK  Name = 
REMARK  6 active torsions:
REMARK  status: ('A' for Active; 'I' for Inactive)
REMARK    1  A    between atoms: C_1  and  C_2
REMARK    2  A    between atoms: C_4  and  N_5
REMARK    3  A    between atoms: N_5  and  C_6
REMARK    4  A    between atoms: C_9  and  O_10
REMARK    5  A    between atoms: O_10  and  C_11
REMARK    6  A    between atoms: C_11  and  C_12
REMARK                            x       y       z     vdW  Elec       q    Type
REMARK                         _______ _______ _______ _____ _____    ______ ____
ROOT
ATOM      1  N   UNL     1       3.034   6.639  19.486  0.00  0.00    +0.000 N 
ATOM      2  H   UNL     1       4.022   6.918  19.526  0.00  0.00    +0.000 HD
ENDROOT
BRANCH   1   6
ATOM      3  C   UNL     1       0.624   2.381  18.848  0.00  0.00    +0.000 C 
ATOM      4  C   UNL     1       1.744   3.317  18.510  0.00  0.00    +0.000 A 
ATOM      5  C   UNL     1       1.840   4.541  19.152  0.00  0.00    +0.000 A 
ATOM      6  C   UNL     1       2.874   5.407  18.819  0.00  0.00    +0.000 A 
ATOM      7  C   UNL     1       3.813   4.972  17.859  0.00  0.00    +0.000 A 
ATOM      8  C   UNL     1       3.661   3.701  17.240  0.00  0.00    +0.000 A 
ATOM      9  C   UNL     1       4.589   3.244  16.267  0.00  0.00    +0.000 A 
ATOM     10  C   UNL     1       5.725   3.946  15.796  0.00  0.00    +0.000 A 
ATOM     11  C   UNL     1       5.828   5.178  16.422  0.00  0.00    +0.000 A 
ATOM     12  C   UNL     1       6.803   6.107  16.194  0.00  0.00    +0.000 A 
ATOM     13  N   UNL     1       6.492   7.145  17.023  0.00  0.00    +0.000 N 
ATOM     14  N   UNL     1       5.387   6.946  17.771  0.00  0.00    +0.000 NA
ATOM     15  C   UNL     1       4.946   5.721  17.416  0.00  0.00    +0.000 A 
ATOM     16  N   UNL     1       2.633   2.903  17.567  0.00  0.00    +0.000 NA
ATOM     17  H   UNL     1       6.988   8.024  17.130  0.00  0.00    +0.000 HD
ENDBRANCH   1   6
BRANCH   1  18
ATOM     18  C   UNL     1       2.180   7.752  19.451  0.00  0.00    +0.000 A 
ATOM     19  C   UNL     1       2.068   8.441  18.249  0.00  0.00    +0.000 A 
ATOM     20  C   UNL     1       1.227   9.543  18.144  0.00  0.00    +0.000 A 
ATOM     21  C   UNL     1       0.445   9.961  19.230  0.00  0.00    +0.000 A 
ATOM     22  C   UNL     1       0.536   9.260  20.432  0.00  0.00    +0.000 A 
ATOM     23  C   UNL     1       1.397   8.159  20.539  0.00  0.00    +0.000 A 
BRANCH  21  24
ATOM     24  O   UNL     1      -0.435  11.024  19.200  0.00  0.00    +0.000 OA
BRANCH  24  25
ATOM     25  C   UNL     1      -1.132  11.125  17.957  0.00  0.00    +0.000 C 
BRANCH  25  26
ATOM     26  C   UNL     1      -2.123   9.988  17.681  0.00  0.00    +0.000 C 
ATOM     27  C   UNL     1      -3.473  10.355  18.328  0.00  0.00    +0.000 C 
ATOM     28  C   UNL     1      -4.148  11.543  17.636  0.00  0.00    +0.000 C 
ATOM     29  C   UNL     1      -4.300  11.314  16.132  0.00  0.00    +0.000 C 
ATOM     30  C   UNL     1      -3.007  10.861  15.454  0.00  0.00    +0.000 C 
ATOM     31  C   UNL     1      -2.330   9.704  16.189  0.00  0.00    +0.000 C 
ENDBRANCH  25  26
ENDBRANCH  24  25
ENDBRANCH  21  24
ENDBRANCH   1  18
TORSDOF 5
ENDMDL
MODEL 4
REMARK VINA RESULT:      -8.8      3.299      8.834
REMARK  Name = 
REMARK  6 active torsions:
REMARK  status: ('A' for Active; 'I' for Inactive)
REMARK    1  A    between atoms: C_1  and  C_2
REMARK    2  A    between atoms: C_4  and  N_5
REMARK    3  A    between atoms: N_5  and  C_6
REMARK    4  A    between atoms: C_9  and  O_10
REMARK    5  A    between atoms: O_10  and  C_11
REMARK    6  A    between atoms: C_11  and  C_12
REMARK                            x       y       z     vdW  Elec       q    Type
REMARK                         _______ _______ _______ _____ _____    ______ ____
ROOT
ATOM      1  N   UNL     1       0.326  10.850  18.787  0.00  0.00    +0.000 N 
ATOM      2  H   UNL     1       0.617  11.581  19.448  0.00  0.00    +0.000 HD
ENDROOT
BRANCH   1   6
ATOM      3  C   UNL     1      -3.390  10.225  15.602  0.00  0.00    +0.000 C 
ATOM      4  C   UNL     1      -2.856  10.709  16.915  0.00  0.00    +0.000 A 
ATOM      5  C   UNL     1      -1.518  10.530  17.227  0.00  0.00    +0.000 A 
ATOM      6  C   UNL     1      -1.038  10.970  18.454  0.00  0.00    +0.000 A 
ATOM      7  C   UNL     1      -1.943  11.626  19.317  0.00  0.00    +0.000 A 
ATOM      8  C   UNL     1      -3.303  11.783  18.936  0.00  0.00    +0.000 A 
ATOM      9  C   UNL     1      -4.233  12.434  19.789  0.00  0.00    +0.000 A 
ATOM     10  C   UNL     1      -3.960  12.980  21.067  0.00  0.00    +0.000 A 
ATOM     11  C   UNL     1      -2.627  12.798  21.397  0.00  0.00    +0.000 A 
ATOM     12  C   UNL     1      -2.034  13.197  22.561  0.00  0.00    +0.000 A 
ATOM     13  N   UNL     1      -0.734  12.802  22.440  0.00  0.00    +0.000 N 
ATOM     14  N   UNL     1      -0.448  12.180  21.278  0.00  0.00    +0.000 NA
ATOM     15  C   UNL     1      -1.617  12.160  20.602  0.00  0.00    +0.000 A 
ATOM     16  N   UNL     1      -3.737  11.320  17.753  0.00  0.00    +0.000 NA
ATOM     17  H   UNL     1       0.017  12.922  23.113  0.00  0.00    +0.000 HD
ENDBRANCH   1   6
BRANCH   1  18
ATOM     18  C   UNL     1       1.070   9.671  18.956  0.00  0.00    +0.000 A 
ATOM     19  C   UNL     1       0.975   9.021  20.181  0.00  0.00    +0.000 A 
ATOM     20  C   UNL     1       1.674   7.840  20.407  0.00  0.00    +0.000 A 
ATOM     21  C   UNL     1       2.455   7.258  19.399  0.00  0.00    +0.000 A 
ATOM     22  C   UNL     1       2.534   7.894  18.161  0.00  0.00    +0.000 A 
ATOM     23  C   UNL     1       1.841   9.093  17.941  0.00  0.00    +0.000 A 
BRANCH  21  24
ATOM     24  O   UNL     1       3.154   6.076  19.532  0.00  0.00    +0.000 OA
BRANCH  24  25
ATOM     25  C   UNL     1       2.305   4.967  19.834  0.00  0.00    +0.000 C 
BRANCH  25  26
ATOM     26  C   UNL     1       1.627   4.328  18.616  0.00  0.00    +0.000 C 
ATOM     27  C   UNL     1       2.685   4.148  17.510  0.00  0.00    +0.000 C 
ATOM     28  C   UNL     1       3.738   3.098  17.877  0.00  0.00    +0.000 C 
ATOM     29  C   UNL     1       3.101   1.761  18.255  0.00  0.00    +0.000 C 
ATOM     30  C   UNL     1       1.981   1.893  19.287  0.00  0.00    +0.000 C 
ATOM     31  C   UNL     1       0.967   2.977  18.920  0.00  0.00    +0.000 C 
ENDBRANCH  25  26
ENDBRANCH  24  25
ENDBRANCH  21  24
ENDBRANCH   1  18
TORSDOF 5
ENDMDL
MODEL 5
REMARK VINA RESULT:      -8.7      3.342      8.911
REMARK  Name = 
REMARK  6 active torsions:
REMARK  status: ('A' for Active; 'I' for Inactive)
REMARK    1  A    between atoms: C_1  and  C_2
REMARK    2  A    between atoms: C_4  and  N_5
REMARK    3  A    between atoms: N_5  and  C_6
REMARK    4  A    between atoms: C_9  and  O_10
REMARK    5  A    between atoms: O_10  and  C_11
REMARK    6  A    between atoms: C_11  and  C_12
REMARK                            x       y       z     vdW  Elec       q    Type
REMARK                         _______ _______ _______ _____ _____    ______ ____
ROOT
ATOM      1  N   UNL     1       0.332  10.400  19.628  0.00  0.00    +0.000 N 
ATOM      2  H   UNL     1       0.349  10.622  20.631  0.00  0.00    +0.000 HD
ENDROOT
BRANCH   1   6
ATOM      3  C   UNL     1      -2.840  10.134  15.859  0.00  0.00    +0.000 C 
ATOM      4  C   UNL     1      -2.469  10.614  17.228  0.00  0.00    +0.000 A 
ATOM      5  C   UNL     1      -1.248  10.260  17.778  0.00  0.00    +0.000 A 
ATOM      6  C   UNL     1      -0.921  10.698  19.055  0.00  0.00    +0.000 A 
ATOM      7  C   UNL     1      -1.847  11.530  19.722  0.00  0.00    +0.000 A 
ATOM      8  C   UNL     1      -3.081  11.862  19.100  0.00  0.00    +0.000 A 
ATOM      9  C   UNL     1      -4.031  12.692  19.753  0.00  0.00    +0.000 A 
ATOM     10  C   UNL     1      -3.898  13.268  21.040  0.00  0.00    +0.000 A 
ATOM     11  C   UNL     1      -2.684  12.913  21.607  0.00  0.00    +0.000 A 
ATOM     12  C   UNL     1      -2.244  13.291  22.843  0.00  0.00    +0.000 A 
ATOM     13  N   UNL     1      -1.019  12.703  22.967  0.00  0.00    +0.000 N 
ATOM     14  N   UNL     1      -0.639  11.977  21.896  0.00  0.00    +0.000 NA
ATOM     15  C   UNL     1      -1.665  12.087  21.025  0.00  0.00    +0.000 A 
ATOM     16  N   UNL     1      -3.374  11.396  17.876  0.00  0.00    +0.000 NA
ATOM     17  H   UNL     1      -0.384  12.752  23.758  0.00  0.00    +0.000 HD
ENDBRANCH   1   6
BRANCH   1  18
ATOM     18  C   UNL     1       1.187   9.331  19.319  0.00  0.00    +0.000 A 
ATOM     19  C   UNL     1       1.357   8.343  20.283  0.00  0.00    +0.000 A 
ATOM     20  C   UNL     1       2.178   7.249  20.033  0.00  0.00    +0.000 A 
ATOM     21  C   UNL     1       2.818   7.094  18.796  0.00  0.00    +0.000 A 
ATOM     22  C   UNL     1       2.632   8.069  17.817  0.00  0.00    +0.000 A 
ATOM     23  C   UNL     1       1.817   9.180  18.078  0.00  0.00    +0.000 A 
BRANCH  21  24
ATOM     24  O   UNL     1       3.624   6.026  18.457  0.00  0.00    +0.000 OA
BRANCH  24  25
ATOM     25  C   UNL     1       3.615   4.996  19.448  0.00  0.00    +0.000 C 
BRANCH  25  26
ATOM     26  C   UNL     1       3.046   3.654  18.974  0.00  0.00    +0.000 C 
ATOM     27  C   UNL     1       3.485   2.562  19.970  0.00  0.00    +0.000 C 
ATOM     28  C   UNL     1       2.824   2.724  21.341  0.00  0.00    +0.000 C 
ATOM     29  C   UNL     1       1.300   2.793  21.233  0.00  0.00    +0.000 C 
ATOM     30  C   UNL     1       0.811   3.800  20.193  0.00  0.00    +0.000 C 
ATOM     31  C   UNL     1       1.517   3.646  18.846  0.00  0.00    +0.000 C 
ENDBRANCH  25  26
ENDBRANCH  24  25
ENDBRANCH  21  24
ENDBRANCH   1  18
TORSDOF 5
ENDMDL
MODEL 6
REMARK VINA RESULT:      -8.7      1.156      3.158
REMARK  Name = 
REMARK  6 active torsions:
REMARK  status: ('A' for Active; 'I' for Inactive)
REMARK    1  A    between atoms: C_1  and  C_2
REMARK    2  A    between atoms: C_4  and  N_5
REMARK    3  A    between atoms: N_5  and  C_6
REMARK    4  A    between atoms: C_9  and  O_10
REMARK    5  A    between atoms: O_10  and  C_11
REMARK    6  A    between atoms: C_11  and  C_12
REMARK                            x       y       z     vdW  Elec       q    Type
REMARK                         _______ _______ _______ _____ _____    ______ ____
ROOT
ATOM      1  N   UNL     1       2.558   6.874  19.982  0.00  0.00    +0.000 N 
ATOM      2  H   UNL     1       3.019   6.839  20.899  0.00  0.00    +0.000 HD
ENDROOT
BRANCH   1   6
ATOM      3  C   UNL     1       6.162   6.874  16.613  0.00  0.00    +0.000 C 
ATOM      4  C   UNL     1       5.039   6.191  17.331  0.00  0.00    +0.000 A 
ATOM      5  C   UNL     1       4.347   6.859  18.328  0.00  0.00    +0.000 A 
ATOM      6  C   UNL     1       3.317   6.210  18.997  0.00  0.00    +0.000 A 
ATOM      7  C   UNL     1       2.994   4.897  18.591  0.00  0.00    +0.000 A 
ATOM      8  C   UNL     1       3.739   4.269  17.557  0.00  0.00    +0.000 A 
ATOM      9  C   UNL     1       3.437   2.946  17.136  0.00  0.00    +0.000 A 
ATOM     10  C   UNL     1       2.419   2.112  17.657  0.00  0.00    +0.000 A 
ATOM     11  C   UNL     1       1.725   2.763  18.664  0.00  0.00    +0.000 A 
ATOM     12  C   UNL     1       0.688   2.240  19.382  0.00  0.00    +0.000 A 
ATOM     13  N   UNL     1       0.336   3.232  20.251  0.00  0.00    +0.000 N 
ATOM     14  N   UNL     1       1.071   4.357  20.139  0.00  0.00    +0.000 NA
ATOM     15  C   UNL     1       1.954   4.093  19.152  0.00  0.00    +0.000 A 
ATOM     16  N   UNL     1       4.746   4.917  16.952  0.00  0.00    +0.000 NA
ATOM     17  H   UNL     1      -0.398   3.210  20.952  0.00  0.00    +0.000 HD
ENDBRANCH   1   6
BRANCH   1  18
ATOM     18  C   UNL     1       1.784   8.036  19.834  0.00  0.00    +0.000 A 
ATOM     19  C   UNL     1       1.772   8.646  18.585  0.00  0.00    +0.000 A 
ATOM     20  C   UNL     1       1.015   9.791  18.367  0.00  0.00    +0.000 A 
ATOM     21  C   UNL     1       0.216  10.333  19.384  0.00  0.00    +0.000 A 
ATOM     22  C   UNL     1       0.206   9.712  20.632  0.00  0.00    +0.000 A 
ATOM     23  C   UNL     1       0.984   8.567  20.853  0.00  0.00    +0.000 A 
BRANCH  21  24
ATOM     24  O   UNL     1      -0.586  11.447  19.242  0.00  0.00    +0.000 OA
BRANCH  24  25
ATOM     25  C   UNL     1      -1.367  11.412  18.046  0.00  0.00    +0.000 C 
BRANCH  25  26
ATOM     26  C   UNL     1      -2.340  10.231  17.949  0.00  0.00    +0.000 C 
ATOM     27  C   UNL     1      -3.769  10.761  18.177  0.00  0.00    +0.000 C 
ATOM     28  C   UNL     1      -4.246  11.663  17.035  0.00  0.00    +0.000 C 
ATOM     29  C   UNL     1      -4.122  10.975  15.676  0.00  0.00    +0.000 C 
ATOM     30  C   UNL     1      -2.746  10.353  15.434  0.00  0.00    +0.000 C 
ATOM     31  C   UNL     1      -2.275   9.493  16.606  0.00  0.00    +0.000 C 
ENDBRANCH  25  26
ENDBRANCH  24  25
ENDBRANCH  21  24
ENDBRANCH   1  18
TORSDOF 5
ENDMDL
MODEL 7
REMARK VINA RESULT:      -8.6      3.269      8.631
REMARK  Name = 
REMARK  6 active torsions:
REMARK  status: ('A' for Active; 'I' for Inactive)
REMARK    1  A    between atoms: C_1  and  C_2
REMARK    2  A    between atoms: C_4  and  N_5
REMARK    3  A    between atoms: N_5  and  C_6
REMARK    4  A    between atoms: C_9  and  O_10
REMARK    5  A    between atoms: O_10  and  C_11
REMARK    6  A    between atoms: C_11  and  C_12
REMARK                            x       y       z     vdW  Elec       q    Type
REMARK                         _______ _______ _______ _____ _____    ______ ____
ROOT
ATOM      1  N   UNL     1       0.287  11.072  18.566  0.00  0.00    +0.000 N 
ATOM      2  H   UNL     1       0.866  11.796  18.123  0.00  0.00    +0.000 HD
ENDROOT
BRANCH   1   6
ATOM      3  C   UNL     1      -1.095  13.061  22.865  0.00  0.00    +0.000 C 
ATOM      4  C   UNL     1      -1.410  12.577  21.483  0.00  0.00    +0.000 A 
ATOM      5  C   UNL     1      -0.401  12.071  20.680  0.00  0.00    +0.000 A 
ATOM      6  C   UNL     1      -0.703  11.640  19.394  0.00  0.00    +0.000 A 
ATOM      7  C   UNL     1      -2.051  11.701  18.980  0.00  0.00    +0.000 A 
ATOM      8  C   UNL     1      -3.041  12.227  19.854  0.00  0.00    +0.000 A 
ATOM      9  C   UNL     1      -4.402  12.305  19.457  0.00  0.00    +0.000 A 
ATOM     10  C   UNL     1      -4.937  11.902  18.209  0.00  0.00    +0.000 A 
ATOM     11  C   UNL     1      -3.937  11.403  17.391  0.00  0.00    +0.000 A 
ATOM     12  C   UNL     1      -4.109  10.936  16.119  0.00  0.00    +0.000 A 
ATOM     13  N   UNL     1      -2.859  10.563  15.717  0.00  0.00    +0.000 N 
ATOM     14  N   UNL     1      -1.897  10.753  16.643  0.00  0.00    +0.000 NA
ATOM     15  C   UNL     1      -2.541  11.281  17.705  0.00  0.00    +0.000 A 
ATOM     16  N   UNL     1      -2.707  12.660  21.079  0.00  0.00    +0.000 NA
ATOM     17  H   UNL     1      -2.587  10.171  14.820  0.00  0.00    +0.000 HD
ENDBRANCH   1   6
BRANCH   1  18
ATOM     18  C   UNL     1       1.008   9.886  18.776  0.00  0.00    +0.000 A 
ATOM     19  C   UNL     1       0.911   9.288  20.028  0.00  0.00    +0.000 A 
ATOM     20  C   UNL     1       1.588   8.104  20.296  0.00  0.00    +0.000 A 
ATOM     21  C   UNL     1       2.347   7.465  19.306  0.00  0.00    +0.000 A 
ATOM     22  C   UNL     1       2.428   8.048  18.042  0.00  0.00    +0.000 A 
ATOM     23  C   UNL     1       1.758   9.250  17.779  0.00  0.00    +0.000 A 
BRANCH  21  24
ATOM     24  O   UNL     1       3.023   6.275  19.481  0.00  0.00    +0.000 OA
BRANCH  24  25
ATOM     25  C   UNL     1       2.142   5.159  19.628  0.00  0.00    +0.000 C 
BRANCH  25  26
ATOM     26  C   UNL     1       1.782   4.449  18.317  0.00  0.00    +0.000 C 
ATOM     27  C   UNL     1       3.081   4.209  17.523  0.00  0.00    +0.000 C 
ATOM     28  C   UNL     1       3.997   3.185  18.200  0.00  0.00    +0.000 C 
ATOM     29  C   UNL     1       3.270   1.870  18.482  0.00  0.00    +0.000 C 
ATOM     30  C   UNL     1       1.929   2.058  19.191  0.00  0.00    +0.000 C 
ATOM     31  C   UNL     1       1.052   3.116  18.522  0.00  0.00    +0.000 C 
ENDBRANCH  25  26
ENDBRANCH  24  25
ENDBRANCH  21  24
ENDBRANCH   1  18
TORSDOF 5
ENDMDL
MODEL 8
REMARK VINA RESULT:      -8.6      3.296      8.912
REMARK  Name = 
REMARK  6 active torsions:
REMARK  status: ('A' for Active; 'I' for Inactive)
REMARK    1  A    between atoms: C_1  and  C_2
REMARK    2  A    between atoms: C_4  and  N_5
REMARK    3  A    between atoms: N_5  and  C_6
REMARK    4  A    between atoms: C_9  and  O_10
REMARK    5  A    between atoms: O_10  and  C_11
REMARK    6  A    between atoms: C_11  and  C_12
REMARK                            x       y       z     vdW  Elec       q    Type
REMARK                         _______ _______ _______ _____ _____    ______ ____
ROOT
ATOM      1  N   UNL     1       0.003  10.986  18.549  0.00  0.00    +0.000 N 
ATOM      2  H   UNL     1       0.293  11.771  19.144  0.00  0.00    +0.000 HD
ENDROOT
BRANCH   1   6
ATOM      3  C   UNL     1      -3.632  10.389  15.266  0.00  0.00    +0.000 C 
ATOM      4  C   UNL     1      -3.137  10.837  16.607  0.00  0.00    +0.000 A 
ATOM      5  C   UNL     1      -1.802  10.679  16.940  0.00  0.00    +0.000 A 
ATOM      6  C   UNL     1      -1.358  11.084  18.192  0.00  0.00    +0.000 A 
ATOM      7  C   UNL     1      -2.295  11.685  19.060  0.00  0.00    +0.000 A 
ATOM      8  C   UNL     1      -3.651  11.824  18.656  0.00  0.00    +0.000 A 
ATOM      9  C   UNL     1      -4.614  12.419  19.514  0.00  0.00    +0.000 A 
ATOM     10  C   UNL     1      -4.380  12.923  20.816  0.00  0.00    +0.000 A 
ATOM     11  C   UNL     1      -3.050  12.761  21.167  0.00  0.00    +0.000 A 
ATOM     12  C   UNL     1      -2.491  13.131  22.358  0.00  0.00    +0.000 A 
ATOM     13  N   UNL     1      -1.178  12.773  22.248  0.00  0.00    +0.000 N 
ATOM     14  N   UNL     1      -0.854  12.202  21.070  0.00  0.00    +0.000 NA
ATOM     15  C   UNL     1      -2.008  12.178  20.370  0.00  0.00    +0.000 A 
ATOM     16  N   UNL     1      -4.050  11.394  17.449  0.00  0.00    +0.000 NA
ATOM     17  H   UNL     1      -0.445  12.886  22.941  0.00  0.00    +0.000 HD
ENDBRANCH   1   6
BRANCH   1  18
ATOM     18  C   UNL     1       0.736   9.822  18.831  0.00  0.00    +0.000 A 
ATOM     19  C   UNL     1       1.495   9.275  17.802  0.00  0.00    +0.000 A 
ATOM     20  C   UNL     1       2.256   8.132  18.020  0.00  0.00    +0.000 A 
ATOM     21  C   UNL     1       2.309   7.529  19.285  0.00  0.00    +0.000 A 
ATOM     22  C   UNL     1       1.568   8.088  20.326  0.00  0.00    +0.000 A 
ATOM     23  C   UNL     1       0.789   9.231  20.099  0.00  0.00    +0.000 A 
BRANCH  21  24
ATOM     24  O   UNL     1       3.060   6.413  19.591  0.00  0.00    +0.000 OA
BRANCH  24  25
ATOM     25  C   UNL     1       3.168   5.505  18.493  0.00  0.00    +0.000 C 
BRANCH  25  26
ATOM     26  C   UNL     1       1.956   4.587  18.298  0.00  0.00    +0.000 C 
ATOM     27  C   UNL     1       2.338   3.489  17.285  0.00  0.00    +0.000 C 
ATOM     28  C   UNL     1       3.387   2.522  17.841  0.00  0.00    +0.000 C 
ATOM     29  C   UNL     1       2.951   1.916  19.175  0.00  0.00    +0.000 C 
ATOM     30  C   UNL     1       2.478   2.957  20.189  0.00  0.00    +0.000 C 
ATOM     31  C   UNL     1       1.465   3.937  19.597  0.00  0.00    +0.000 C 
ENDBRANCH  25  26
ENDBRANCH  24  25
ENDBRANCH  21  24
ENDBRANCH   1  18
TORSDOF 5
ENDMDL
MODEL 9
REMARK VINA RESULT:      -8.5      1.773      2.964
REMARK  Name = 
REMARK  6 active torsions:
REMARK  status: ('A' for Active; 'I' for Inactive)
REMARK    1  A    between atoms: C_1  and  C_2
REMARK    2  A    between atoms: C_4  and  N_5
REMARK    3  A    between atoms: N_5  and  C_6
REMARK    4  A    between atoms: C_9  and  O_10
REMARK    5  A    between atoms: O_10  and  C_11
REMARK    6  A    between atoms: C_11  and  C_12
REMARK                            x       y       z     vdW  Elec       q    Type
REMARK                         _______ _______ _______ _____ _____    ______ ____
ROOT
ATOM      1  N   UNL     1       2.895   7.167  19.796  0.00  0.00    +0.000 N 
ATOM      2  H   UNL     1       3.851   7.477  19.583  0.00  0.00    +0.000 HD
ENDROOT
BRANCH   1   6
ATOM      3  C   UNL     1       1.228   2.824  21.441  0.00  0.00    +0.000 C 
ATOM      4  C   UNL     1       1.996   3.643  20.449  0.00  0.00    +0.000 A 
ATOM      5  C   UNL     1       2.061   5.019  20.592  0.00  0.00    +0.000 A 
ATOM      6  C   UNL     1       2.764   5.770  19.657  0.00  0.00    +0.000 A 
ATOM      7  C   UNL     1       3.422   5.077  18.618  0.00  0.00    +0.000 A 
ATOM      8  C   UNL     1       3.320   3.662  18.531  0.00  0.00    +0.000 A 
ATOM      9  C   UNL     1       3.968   2.943  17.491  0.00  0.00    +0.000 A 
ATOM     10  C   UNL     1       4.753   3.498  16.451  0.00  0.00    +0.000 A 
ATOM     11  C   UNL     1       4.818   4.876  16.574  0.00  0.00    +0.000 A 
ATOM     12  C   UNL     1       5.487   5.719  15.732  0.00  0.00    +0.000 A 
ATOM     13  N   UNL     1       5.263   6.964  16.243  0.00  0.00    +0.000 N 
ATOM     14  N   UNL     1       4.502   6.981  17.356  0.00  0.00    +0.000 NA
ATOM     15  C   UNL     1       4.204   5.685  17.588  0.00  0.00    +0.000 A 
ATOM     16  N   UNL     1       2.609   2.973  19.436  0.00  0.00    +0.000 NA
ATOM     17  H   UNL     1       5.599   7.852  15.882  0.00  0.00    +0.000 HD
ENDBRANCH   1   6
BRANCH   1  18
ATOM     18  C   UNL     1       1.947   8.154  19.485  0.00  0.00    +0.000 A 
ATOM     19  C   UNL     1       1.191   8.672  20.531  0.00  0.00    +0.000 A 
ATOM     20  C   UNL     1       0.245   9.663  20.293  0.00  0.00    +0.000 A 
ATOM     21  C   UNL     1       0.060  10.192  19.008  0.00  0.00    +0.000 A 
ATOM     22  C   UNL     1       0.832   9.693  17.960  0.00  0.00    +0.000 A 
ATOM     23  C   UNL     1       1.773   8.682  18.200  0.00  0.00    +0.000 A 
BRANCH  21  24
ATOM     24  O   UNL     1      -0.834  11.195  18.693  0.00  0.00    +0.000 OA
BRANCH  24  25
ATOM     25  C   UNL     1      -1.828  11.381  19.702  0.00  0.00    +0.000 C 
BRANCH  25  26
ATOM     26  C   UNL     1      -2.058  12.839  20.117  0.00  0.00    +0.000 C 
ATOM     27  C   UNL     1      -3.055  12.857  21.292  0.00  0.00    +0.000 C 
ATOM     28  C   UNL     1      -2.464  12.250  22.568  0.00  0.00    +0.000 C 
ATOM     29  C   UNL     1      -1.143  12.914  22.954  0.00  0.00    +0.000 C 
ATOM     30  C   UNL     1      -0.147  13.002  21.798  0.00  0.00    +0.000 C 
ATOM     31  C   UNL     1      -0.773  13.570  20.524  0.00  0.00    +0.000 C 
ENDBRANCH  25  26
ENDBRANCH  24  25
ENDBRANCH  21  24
ENDBRANCH   1  18
TORSDOF 5
ENDMDL
