MODEL 1
REMARK VINA RESULT:      -8.1      0.000      0.000
REMARK  Name = 
REMARK  2 active torsions:
REMARK  status: ('A' for Active; 'I' for Inactive)
REMARK    1  A    between atoms: N_13  and  C_14
REMARK    2  A    between atoms: C_14  and  C_15
REMARK                            x       y       z     vdW  Elec       q    Type
REMARK                         _______ _______ _______ _____ _____    ______ ____
ROOT
ATOM      1  F   UNL     1       6.508   5.545  14.868  0.00  0.00    +0.000 F 
ATOM      2  C   UNL     1       5.692   5.352  15.913  0.00  0.00    +0.000 A 
ATOM      3  C   UNL     1       5.621   4.092  16.498  0.00  0.00    +0.000 A 
ATOM      4  C   UNL     1       4.774   3.879  17.588  0.00  0.00    +0.000 A 
ATOM      5  C   UNL     1       4.008   4.946  18.062  0.00  0.00    +0.000 A 
ATOM      6  C   UNL     1       4.071   6.214  17.472  0.00  0.00    +0.000 A 
ATOM      7  C   UNL     1       4.929   6.410  16.388  0.00  0.00    +0.000 A 
ATOM      8  N   UNL     1       3.300   7.301  17.904  0.00  0.00    +0.000 NA
ATOM      9  C   UNL     1       2.471   7.190  18.917  0.00  0.00    +0.000 A 
ATOM     10  N   UNL     1       1.750   8.326  19.245  0.00  0.00    +0.000 N 
ATOM     11  C   UNL     1       1.220   8.615  20.578  0.00  0.00    +0.000 C 
ATOM     12  C   UNL     1       1.267  10.134  20.893  0.00  0.00    +0.000 C 
ATOM     13  N   UNL     1       0.720  11.030  19.843  0.00  0.00    +0.000 NA
ATOM     14  C   UNL     1       1.412  10.675  18.576  0.00  0.00    +0.000 C 
ATOM     15  C   UNL     1       1.267   9.202  18.169  0.00  0.00    +0.000 C 
ATOM     16  C   UNL     1       2.366   5.901  19.583  0.00  0.00    +0.000 A 
ATOM     17  C   UNL     1       1.563   5.443  20.614  0.00  0.00    +0.000 A 
ATOM     18  C   UNL     1       1.863   4.078  20.827  0.00  0.00    +0.000 A 
ATOM     19  C   UNL     1       2.825   3.724  19.912  0.00  0.00    +0.000 A 
ATOM     20  N   UNL     1       3.121   4.828  19.148  0.00  0.00    +0.000 N 
ENDROOT
BRANCH  13  21
ATOM     21  C   UNL     1      -0.748  10.846  19.752  0.00  0.00    +0.000 C 
BRANCH  21  22
ATOM     22  C   UNL     1      -1.516  12.004  20.365  0.00  0.00    +0.000 C 
ATOM     23  N   UNL     1      -1.740  12.059  21.657  0.00  0.00    +0.000 NA
ATOM     24  C   UNL     1      -2.453  13.362  21.830  0.00  0.00    +0.000 C 
ATOM     25  C   UNL     1      -2.173  14.163  20.553  0.00  0.00    +0.000 C 
ATOM     26  N   UNL     1      -1.941  13.085  19.630  0.00  0.00    +0.000 N 
ATOM     27  H   UNL     1      -1.488  13.246  18.737  0.00  0.00    +0.000 HD
ENDBRANCH  21  22
ENDBRANCH  13  21
TORSDOF 2
ENDMDL
MODEL 2
REMARK VINA RESULT:      -8.0      2.327      3.687
REMARK  Name = 
REMARK  2 active torsions:
REMARK  status: ('A' for Active; 'I' for Inactive)
REMARK    1  A    between atoms: N_13  and  C_14
REMARK    2  A    between atoms: C_14  and  C_15
REMARK                            x       y       z     vdW  Elec       q    Type
REMARK                         _______ _______ _______ _____ _____    ______ ____
ROOT
ATOM      1  F   UNL     1       1.882   1.945  22.257  0.00  0.00    +0.000 F 
ATOM      2  C   UNL     1       2.381   2.756  21.314  0.00  0.00    +0.000 A 
ATOM      3  C   UNL     1       3.398   2.293  20.486  0.00  0.00    +0.000 A 
ATOM      4  C   UNL     1       3.926   3.130  19.500  0.00  0.00    +0.000 A 
ATOM      5  C   UNL     1       3.418   4.425  19.376  0.00  0.00    +0.000 A 
ATOM      6  C   UNL     1       2.399   4.897  20.212  0.00  0.00    +0.000 A 
ATOM      7  C   UNL     1       1.879   4.043  21.186  0.00  0.00    +0.000 A 
ATOM      8  N   UNL     1       1.883   6.197  20.133  0.00  0.00    +0.000 NA
ATOM      9  C   UNL     1       2.324   7.054  19.242  0.00  0.00    +0.000 A 
ATOM     10  N   UNL     1       1.750   8.314  19.267  0.00  0.00    +0.000 N 
ATOM     11  C   UNL     1       1.662   9.208  18.112  0.00  0.00    +0.000 C 
ATOM     12  C   UNL     1       0.348  10.033  18.129  0.00  0.00    +0.000 C 
ATOM     13  N   UNL     1       0.023  10.707  19.411  0.00  0.00    +0.000 NA
ATOM     14  C   UNL     1       0.069   9.661  20.466  0.00  0.00    +0.000 C 
ATOM     15  C   UNL     1       1.409   8.919  20.562  0.00  0.00    +0.000 C 
ATOM     16  C   UNL     1       3.376   6.623  18.333  0.00  0.00    +0.000 A 
ATOM     17  C   UNL     1       4.088   7.282  17.345  0.00  0.00    +0.000 A 
ATOM     18  C   UNL     1       5.026   6.374  16.805  0.00  0.00    +0.000 A 
ATOM     19  C   UNL     1       4.884   5.188  17.483  0.00  0.00    +0.000 A 
ATOM     20  N   UNL     1       3.890   5.343  18.420  0.00  0.00    +0.000 N 
ENDROOT
BRANCH  13  21
ATOM     21  C   UNL     1       0.997  11.796  19.658  0.00  0.00    +0.000 C 
BRANCH  21  22
ATOM     22  C   UNL     1       0.424  12.900  20.531  0.00  0.00    +0.000 C 
ATOM     23  N   UNL     1       1.073  13.333  21.586  0.00  0.00    +0.000 NA
ATOM     24  C   UNL     1       0.203  14.434  22.101  0.00  0.00    +0.000 C 
ATOM     25  C   UNL     1      -0.730  14.804  20.941  0.00  0.00    +0.000 C 
ATOM     26  N   UNL     1      -0.744  13.556  20.226  0.00  0.00    +0.000 N 
ATOM     27  H   UNL     1      -1.070  13.503  19.268  0.00  0.00    +0.000 HD
ENDBRANCH  21  22
ENDBRANCH  13  21
TORSDOF 2
ENDMDL
MODEL 3
REMARK VINA RESULT:      -7.9      1.499      2.000
REMARK  Name = 
REMARK  2 active torsions:
REMARK  status: ('A' for Active; 'I' for Inactive)
REMARK    1  A    between atoms: N_13  and  C_14
REMARK    2  A    between atoms: C_14  and  C_15
REMARK                            x       y       z     vdW  Elec       q    Type
REMARK                         _______ _______ _______ _____ _____    ______ ____
ROOT
ATOM      1  F   UNL     1       6.472   5.535  14.797  0.00  0.00    +0.000 F 
ATOM      2  C   UNL     1       5.712   5.380  15.890  0.00  0.00    +0.000 A 
ATOM      3  C   UNL     1       5.753   4.175  16.583  0.00  0.00    +0.000 A 
ATOM      4  C   UNL     1       4.965   4.002  17.723  0.00  0.00    +0.000 A 
ATOM      5  C   UNL     1       4.142   5.053  18.136  0.00  0.00    +0.000 A 
ATOM      6  C   UNL     1       4.091   6.264  17.436  0.00  0.00    +0.000 A 
ATOM      7  C   UNL     1       4.892   6.421  16.304  0.00  0.00    +0.000 A 
ATOM      8  N   UNL     1       3.260   7.329  17.806  0.00  0.00    +0.000 NA
ATOM      9  C   UNL     1       2.479   7.253  18.859  0.00  0.00    +0.000 A 
ATOM     10  N   UNL     1       1.690   8.361  19.119  0.00  0.00    +0.000 N 
ATOM     11  C   UNL     1       1.190   8.731  20.443  0.00  0.00    +0.000 C 
ATOM     12  C   UNL     1       1.139  10.271  20.624  0.00  0.00    +0.000 C 
ATOM     13  N   UNL     1       0.491  11.030  19.525  0.00  0.00    +0.000 NA
ATOM     14  C   UNL     1       1.160  10.612  18.265  0.00  0.00    +0.000 C 
ATOM     15  C   UNL     1       1.106   9.102  17.993  0.00  0.00    +0.000 C 
ATOM     16  C   UNL     1       2.492   6.024  19.638  0.00  0.00    +0.000 A 
ATOM     17  C   UNL     1       1.763   5.605  20.739  0.00  0.00    +0.000 A 
ATOM     18  C   UNL     1       2.168   4.288  21.055  0.00  0.00    +0.000 A 
ATOM     19  C   UNL     1       3.119   3.922  20.134  0.00  0.00    +0.000 A 
ATOM     20  N   UNL     1       3.306   4.971  19.265  0.00  0.00    +0.000 N 
ENDROOT
BRANCH  13  21
ATOM     21  C   UNL     1      -0.962  10.739  19.514  0.00  0.00    +0.000 C 
BRANCH  21  22
ATOM     22  C   UNL     1      -1.539  10.721  18.109  0.00  0.00    +0.000 C 
ATOM     23  N   UNL     1      -2.086   9.635  17.615  0.00  0.00    +0.000 NA
ATOM     24  C   UNL     1      -2.566  10.070  16.268  0.00  0.00    +0.000 C 
ATOM     25  C   UNL     1      -2.598  11.603  16.312  0.00  0.00    +0.000 C 
ATOM     26  N   UNL     1      -1.598  11.843  17.317  0.00  0.00    +0.000 N 
ATOM     27  H   UNL     1      -1.522  12.742  17.778  0.00  0.00    +0.000 HD
ENDBRANCH  21  22
ENDBRANCH  13  21
TORSDOF 2
ENDMDL
MODEL 4
REMARK VINA RESULT:      -7.8      1.108      1.292
REMARK  Name = 
REMARK  2 active torsions:
REMARK  status: ('A' for Active; 'I' for Inactive)
REMARK    1  A    between atoms: N_13  and  C_14
REMARK    2  A    between atoms: C_14  and  C_15
REMARK                            x       y       z     vdW  Elec       q    Type
REMARK                         _______ _______ _______ _____ _____    ______ ____
ROOT
ATOM      1  F   UNL     1       6.289   5.708  14.948  0.00  0.00    +0.000 F 
ATOM      2  C   UNL     1       5.445   5.338  15.921  0.00  0.00    +0.000 A 
ATOM      3  C   UNL     1       5.251   3.984  16.177  0.00  0.00    +0.000 A 
ATOM      4  C   UNL     1       4.374   3.588  17.190  0.00  0.00    +0.000 A 
ATOM      5  C   UNL     1       3.703   4.571  17.921  0.00  0.00    +0.000 A 
ATOM      6  C   UNL     1       3.890   5.934  17.661  0.00  0.00    +0.000 A 
ATOM      7  C   UNL     1       4.777   6.311  16.651  0.00  0.00    +0.000 A 
ATOM      8  N   UNL     1       3.217   6.946  18.357  0.00  0.00    +0.000 NA
ATOM      9  C   UNL     1       2.368   6.666  19.319  0.00  0.00    +0.000 A 
ATOM     10  N   UNL     1       1.750   7.747  19.926  0.00  0.00    +0.000 N 
ATOM     11  C   UNL     1       1.232   7.745  21.294  0.00  0.00    +0.000 C 
ATOM     12  C   UNL     1       1.415   9.128  21.975  0.00  0.00    +0.000 C 
ATOM     13  N   UNL     1       0.967  10.303  21.185  0.00  0.00    +0.000 NA
ATOM     14  C   UNL     1       1.640  10.209  19.862  0.00  0.00    +0.000 C 
ATOM     15  C   UNL     1       1.364   8.903  19.105  0.00  0.00    +0.000 C 
ATOM     16  C   UNL     1       2.136   5.267  19.647  0.00  0.00    +0.000 A 
ATOM     17  C   UNL     1       1.281   4.645  20.541  0.00  0.00    +0.000 A 
ATOM     18  C   UNL     1       1.452   3.248  20.406  0.00  0.00    +0.000 A 
ATOM     19  C   UNL     1       2.388   3.044  19.423  0.00  0.00    +0.000 A 
ATOM     20  N   UNL     1       2.795   4.270  18.952  0.00  0.00    +0.000 N 
ENDROOT
BRANCH  13  21
ATOM     21  C   UNL     1      -0.510  10.283  21.066  0.00  0.00    +0.000 C 
BRANCH  21  22
ATOM     22  C   UNL     1      -1.031  11.360  20.130  0.00  0.00    +0.000 C 
ATOM     23  N   UNL     1      -0.814  12.631  20.374  0.00  0.00    +0.000 NA
ATOM     24  C   UNL     1      -1.427  13.320  19.198  0.00  0.00    +0.000 C 
ATOM     25  C   UNL     1      -1.585  12.242  18.119  0.00  0.00    +0.000 C 
ATOM     26  N   UNL     1      -1.673  11.071  18.950  0.00  0.00    +0.000 N 
ATOM     27  H   UNL     1      -1.542  10.143  18.565  0.00  0.00    +0.000 HD
ENDBRANCH  21  22
ENDBRANCH  13  21
TORSDOF 2
ENDMDL
MODEL 5
REMARK VINA RESULT:      -7.4      2.347      3.639
REMARK  Name = 
REMARK  2 active torsions:
REMARK  status: ('A' for Active; 'I' for Inactive)
REMARK    1  A    between atoms: N_13  and  C_14
REMARK    2  A    between atoms: C_14  and  C_15
REMARK                            x       y       z     vdW  Elec       q    Type
REMARK                         _______ _______ _______ _____ _____    ______ ____
ROOT
ATOM      1  F   UNL     1       2.674   1.804  22.003  0.00  0.00    +0.000 F 
ATOM      2  C   UNL     1       2.897   2.789  21.122  0.00  0.00    +0.000 A 
ATOM      3  C   UNL     1       3.748   2.562  20.046  0.00  0.00    +0.000 A 
ATOM      4  C   UNL     1       3.987   3.583  19.122  0.00  0.00    +0.000 A 
ATOM      5  C   UNL     1       3.365   4.819  19.311  0.00  0.00    +0.000 A 
ATOM      6  C   UNL     1       2.514   5.054  20.398  0.00  0.00    +0.000 A 
ATOM      7  C   UNL     1       2.281   4.020  21.305  0.00  0.00    +0.000 A 
ATOM      8  N   UNL     1       1.893   6.288  20.633  0.00  0.00    +0.000 NA
ATOM      9  C   UNL     1       2.067   7.306  19.821  0.00  0.00    +0.000 A 
ATOM     10  N   UNL     1       1.415   8.479  20.162  0.00  0.00    +0.000 N 
ATOM     11  C   UNL     1       1.015   9.512  19.207  0.00  0.00    +0.000 C 
ATOM     12  C   UNL     1      -0.326  10.178  19.616  0.00  0.00    +0.000 C 
ATOM     13  N   UNL     1      -0.423  10.624  21.029  0.00  0.00    +0.000 NA
ATOM     14  C   UNL     1      -0.072   9.450  21.871  0.00  0.00    +0.000 C 
ATOM     15  C   UNL     1       1.312   8.854  21.579  0.00  0.00    +0.000 C 
ATOM     16  C   UNL     1       2.932   7.125  18.665  0.00  0.00    +0.000 A 
ATOM     17  C   UNL     1       3.365   7.991  17.675  0.00  0.00    +0.000 A 
ATOM     18  C   UNL     1       4.234   7.276  16.820  0.00  0.00    +0.000 A 
ATOM     19  C   UNL     1       4.332   5.998  17.313  0.00  0.00    +0.000 A 
ATOM     20  N   UNL     1       3.551   5.909  18.441  0.00  0.00    +0.000 N 
ENDROOT
BRANCH  13  21
ATOM     21  C   UNL     1       0.494  11.768  21.249  0.00  0.00    +0.000 C 
BRANCH  21  22
ATOM     22  C   UNL     1      -0.211  12.967  21.858  0.00  0.00    +0.000 C 
ATOM     23  N   UNL     1      -1.151  12.812  22.761  0.00  0.00    +0.000 NA
ATOM     24  C   UNL     1      -1.518  14.215  23.125  0.00  0.00    +0.000 C 
ATOM     25  C   UNL     1      -0.356  15.089  22.635  0.00  0.00    +0.000 C 
ATOM     26  N   UNL     1       0.144  14.262  21.569  0.00  0.00    +0.000 N 
ATOM     27  H   UNL     1       1.064  14.415  21.175  0.00  0.00    +0.000 HD
ENDBRANCH  21  22
ENDBRANCH  13  21
TORSDOF 2
ENDMDL
MODEL 6
REMARK VINA RESULT:      -7.3      2.268      3.550
REMARK  Name = 
REMARK  2 active torsions:
REMARK  status: ('A' for Active; 'I' for Inactive)
REMARK    1  A    between atoms: N_13  and  C_14
REMARK    2  A    between atoms: C_14  and  C_15
REMARK                            x       y       z     vdW  Elec       q    Type
REMARK                         _______ _______ _______ _____ _____    ______ ____
ROOT
ATOM      1  F   UNL     1       1.469   1.047  19.805  0.00  0.00    +0.000 F 
ATOM      2  C   UNL     1       2.105   2.063  19.205  0.00  0.00    +0.000 A 
ATOM      3  C   UNL     1       3.170   1.791  18.352  0.00  0.00    +0.000 A 
ATOM      4  C   UNL     1       3.841   2.842  17.722  0.00  0.00    +0.000 A 
ATOM      5  C   UNL     1       3.425   4.151  17.973  0.00  0.00    +0.000 A 
ATOM      6  C   UNL     1       2.358   4.429  18.837  0.00  0.00    +0.000 A 
ATOM      7  C   UNL     1       1.695   3.366  19.451  0.00  0.00    +0.000 A 
ATOM      8  N   UNL     1       1.930   5.730  19.132  0.00  0.00    +0.000 NA
ATOM      9  C   UNL     1       2.507   6.779  18.591  0.00  0.00    +0.000 A 
ATOM     10  N   UNL     1       2.009   8.015  18.968  0.00  0.00    +0.000 N 
ATOM     11  C   UNL     1       2.087   9.225  18.150  0.00  0.00    +0.000 C 
ATOM     12  C   UNL     1       0.829  10.116  18.326  0.00  0.00    +0.000 C 
ATOM     13  N   UNL     1       0.420  10.387  19.727  0.00  0.00    +0.000 NA
ATOM     14  C   UNL     1       0.300   9.067  20.400  0.00  0.00    +0.000 C 
ATOM     15  C   UNL     1       1.578   8.218  20.358  0.00  0.00    +0.000 C 
ATOM     16  C   UNL     1       3.616   6.559  17.674  0.00  0.00    +0.000 A 
ATOM     17  C   UNL     1       4.459   7.426  17.001  0.00  0.00    +0.000 A 
ATOM     18  C   UNL     1       5.391   6.650  16.274  0.00  0.00    +0.000 A 
ATOM     19  C   UNL     1       5.113   5.330  16.532  0.00  0.00    +0.000 A 
ATOM     20  N   UNL     1       4.043   5.274  17.393  0.00  0.00    +0.000 N 
ENDROOT
BRANCH  13  21
ATOM     21  C   UNL     1       1.428  11.259  20.376  0.00  0.00    +0.000 C 
BRANCH  21  22
ATOM     22  C   UNL     1       0.809  12.501  20.993  0.00  0.00    +0.000 C 
ATOM     23  N   UNL     1      -0.008  12.413  22.017  0.00  0.00    +0.000 NA
ATOM     24  C   UNL     1      -0.322  13.840  22.334  0.00  0.00    +0.000 C 
ATOM     25  C   UNL     1       0.768  14.669  21.644  0.00  0.00    +0.000 C 
ATOM     26  N   UNL     1       1.125  13.772  20.578  0.00  0.00    +0.000 N 
ATOM     27  H   UNL     1       1.988  13.890  20.060  0.00  0.00    +0.000 HD
ENDBRANCH  21  22
ENDBRANCH  13  21
TORSDOF 2
ENDMDL
MODEL 7
REMARK VINA RESULT:      -7.3      2.406      3.763
REMARK  Name = 
REMARK  2 active torsions:
REMARK  status: ('A' for Active; 'I' for Inactive)
REMARK    1  A    between atoms: N_13  and  C_14
REMARK    2  A    between atoms: C_14  and  C_15
REMARK                            x       y       z     vdW  Elec       q    Type
REMARK                         _______ _______ _______ _____ _____    ______ ____
ROOT
ATOM      1  F   UNL     1       1.462   1.039  19.909  0.00  0.00    +0.000 F 
ATOM      2  C   UNL     1       2.086   2.052  19.291  0.00  0.00    +0.000 A 
ATOM      3  C   UNL     1       3.132   1.776  18.416  0.00  0.00    +0.000 A 
ATOM      4  C   UNL     1       3.789   2.824  17.767  0.00  0.00    +0.000 A 
ATOM      5  C   UNL     1       3.379   4.135  18.022  0.00  0.00    +0.000 A 
ATOM      6  C   UNL     1       2.331   4.417  18.908  0.00  0.00    +0.000 A 
ATOM      7  C   UNL     1       1.681   3.356  19.541  0.00  0.00    +0.000 A 
ATOM      8  N   UNL     1       1.910   5.719  19.207  0.00  0.00    +0.000 NA
ATOM      9  C   UNL     1       2.475   6.765  18.649  0.00  0.00    +0.000 A 
ATOM     10  N   UNL     1       1.985   8.003  19.032  0.00  0.00    +0.000 N 
ATOM     11  C   UNL     1       2.046   9.210  18.207  0.00  0.00    +0.000 C 
ATOM     12  C   UNL     1       0.792  10.101  18.407  0.00  0.00    +0.000 C 
ATOM     13  N   UNL     1       0.413  10.379  19.816  0.00  0.00    +0.000 NA
ATOM     14  C   UNL     1       0.308   9.061  20.496  0.00  0.00    +0.000 C 
ATOM     15  C   UNL     1       1.585   8.212  20.430  0.00  0.00    +0.000 C 
ATOM     16  C   UNL     1       3.563   6.541  17.709  0.00  0.00    +0.000 A 
ATOM     17  C   UNL     1       4.392   7.405  17.014  0.00  0.00    +0.000 A 
ATOM     18  C   UNL     1       5.308   6.626  16.270  0.00  0.00    +0.000 A 
ATOM     19  C   UNL     1       5.035   5.307  16.540  0.00  0.00    +0.000 A 
ATOM     20  N   UNL     1       3.984   5.255  17.424  0.00  0.00    +0.000 N 
ENDROOT
BRANCH  13  21
ATOM     21  C   UNL     1       1.435  11.253  20.439  0.00  0.00    +0.000 C 
BRANCH  21  22
ATOM     22  C   UNL     1       1.350  12.687  19.947  0.00  0.00    +0.000 C 
ATOM     23  N   UNL     1       2.406  13.303  19.471  0.00  0.00    +0.000 NA
ATOM     24  C   UNL     1       1.872  14.636  19.054  0.00  0.00    +0.000 C 
ATOM     25  C   UNL     1       0.351  14.464  18.962  0.00  0.00    +0.000 C 
ATOM     26  N   UNL     1       0.166  13.383  19.893  0.00  0.00    +0.000 N 
ATOM     27  H   UNL     1      -0.691  12.844  19.907  0.00  0.00    +0.000 HD
ENDBRANCH  21  22
ENDBRANCH  13  21
TORSDOF 2
ENDMDL
MODEL 8
REMARK VINA RESULT:      -7.1      1.216      1.421
REMARK  Name = 
REMARK  2 active torsions:
REMARK  status: ('A' for Active; 'I' for Inactive)
REMARK    1  A    between atoms: N_13  and  C_14
REMARK    2  A    between atoms: C_14  and  C_15
REMARK                            x       y       z     vdW  Elec       q    Type
REMARK                         _______ _______ _______ _____ _____    ______ ____
ROOT
ATOM      1  F   UNL     1       7.060   5.594  14.178  0.00  0.00    +0.000 F 
ATOM      2  C   UNL     1       6.202   5.168  15.115  0.00  0.00    +0.000 A 
ATOM      3  C   UNL     1       6.085   3.804  15.362  0.00  0.00    +0.000 A 
ATOM      4  C   UNL     1       5.194   3.348  16.336  0.00  0.00    +0.000 A 
ATOM      5  C   UNL     1       4.430   4.283  17.038  0.00  0.00    +0.000 A 
ATOM      6  C   UNL     1       4.539   5.657  16.787  0.00  0.00    +0.000 A 
ATOM      7  C   UNL     1       5.441   6.093  15.816  0.00  0.00    +0.000 A 
ATOM      8  N   UNL     1       3.771   6.621  17.452  0.00  0.00    +0.000 NA
ATOM      9  C   UNL     1       2.902   6.283  18.378  0.00  0.00    +0.000 A 
ATOM     10  N   UNL     1       2.190   7.320  18.957  0.00  0.00    +0.000 N 
ATOM     11  C   UNL     1       1.615   7.281  20.302  0.00  0.00    +0.000 C 
ATOM     12  C   UNL     1       1.678   8.671  20.989  0.00  0.00    +0.000 C 
ATOM     13  N   UNL     1       1.188   9.816  20.181  0.00  0.00    +0.000 NA
ATOM     14  C   UNL     1       1.922   9.770  18.889  0.00  0.00    +0.000 C 
ATOM     15  C   UNL     1       1.765   8.450  18.120  0.00  0.00    +0.000 C 
ATOM     16  C   UNL     1       2.748   4.871  18.695  0.00  0.00    +0.000 A 
ATOM     17  C   UNL     1       1.898   4.192  19.552  0.00  0.00    +0.000 A 
ATOM     18  C   UNL     1       2.165   2.810  19.424  0.00  0.00    +0.000 A 
ATOM     19  C   UNL     1       3.154   2.670  18.482  0.00  0.00    +0.000 A 
ATOM     20  N   UNL     1       3.500   3.921  18.030  0.00  0.00    +0.000 N 
ENDROOT
BRANCH  13  21
ATOM     21  C   UNL     1      -0.278   9.701  19.999  0.00  0.00    +0.000 C 
BRANCH  21  22
ATOM     22  C   UNL     1      -0.940  11.047  19.762  0.00  0.00    +0.000 C 
ATOM     23  N   UNL     1      -1.136  11.888  20.750  0.00  0.00    +0.000 NA
ATOM     24  C   UNL     1      -1.739  13.079  20.078  0.00  0.00    +0.000 C 
ATOM     25  C   UNL     1      -1.419  12.922  18.586  0.00  0.00    +0.000 C 
ATOM     26  N   UNL     1      -1.291  11.491  18.510  0.00  0.00    +0.000 N 
ATOM     27  H   UNL     1      -0.843  11.046  17.717  0.00  0.00    +0.000 HD
ENDBRANCH  21  22
ENDBRANCH  13  21
TORSDOF 2
ENDMDL
MODEL 9
REMARK VINA RESULT:      -6.9      1.027      1.089
REMARK  Name = 
REMARK  2 active torsions:
REMARK  status: ('A' for Active; 'I' for Inactive)
REMARK    1  A    between atoms: N_13  and  C_14
REMARK    2  A    between atoms: C_14  and  C_15
REMARK                            x       y       z     vdW  Elec       q    Type
REMARK                         _______ _______ _______ _____ _____    ______ ____
ROOT
ATOM      1  F   UNL     1       7.666   5.572  16.006  0.00  0.00    +0.000 F 
ATOM      2  C   UNL     1       6.638   5.412  16.851  0.00  0.00    +0.000 A 
ATOM      3  C   UNL     1       6.488   4.202  17.521  0.00  0.00    +0.000 A 
ATOM      4  C   UNL     1       5.420   4.025  18.403  0.00  0.00    +0.000 A 
ATOM      5  C   UNL     1       4.517   5.075  18.585  0.00  0.00    +0.000 A 
ATOM      6  C   UNL     1       4.659   6.291  17.906  0.00  0.00    +0.000 A 
ATOM      7  C   UNL     1       5.738   6.453  17.035  0.00  0.00    +0.000 A 
ATOM      8  N   UNL     1       3.760   7.356  18.044  0.00  0.00    +0.000 NA
ATOM      9  C   UNL     1       2.723   7.275  18.845  0.00  0.00    +0.000 A 
ATOM     10  N   UNL     1       1.894   8.384  18.890  0.00  0.00    +0.000 N 
ATOM     11  C   UNL     1       1.054   8.747  20.031  0.00  0.00    +0.000 C 
ATOM     12  C   UNL     1       0.958  10.286  20.202  0.00  0.00    +0.000 C 
ATOM     13  N   UNL     1       0.633  11.055  18.974  0.00  0.00    +0.000 NA
ATOM     14  C   UNL     1       1.618  10.643  17.940  0.00  0.00    +0.000 C 
ATOM     15  C   UNL     1       1.638   9.135  17.653  0.00  0.00    +0.000 C 
ATOM     16  C   UNL     1       2.522   6.041  19.590  0.00  0.00    +0.000 A 
ATOM     17  C   UNL     1       1.522   5.617  20.448  0.00  0.00    +0.000 A 
ATOM     18  C   UNL     1       1.825   4.297  20.853  0.00  0.00    +0.000 A 
ATOM     19  C   UNL     1       2.988   3.934  20.221  0.00  0.00    +0.000 A 
ATOM     20  N   UNL     1       3.406   4.988  19.444  0.00  0.00    +0.000 N 
ENDROOT
BRANCH  13  21
ATOM     21  C   UNL     1      -0.763  10.767  18.567  0.00  0.00    +0.000 C 
BRANCH  21  22
ATOM     22  C   UNL     1      -1.771  11.637  19.298  0.00  0.00    +0.000 C 
ATOM     23  N   UNL     1      -1.384  12.676  20.001  0.00  0.00    +0.000 NA
ATOM     24  C   UNL     1      -2.669  13.267  20.483  0.00  0.00    +0.000 C 
ATOM     25  C   UNL     1      -3.762  12.676  19.585  0.00  0.00    +0.000 C 
ATOM     26  N   UNL     1      -3.127  11.444  19.200  0.00  0.00    +0.000 N 
ATOM     27  H   UNL     1      -3.464  10.904  18.411  0.00  0.00    +0.000 HD
ENDBRANCH  21  22
ENDBRANCH  13  21
TORSDOF 2
ENDMDL
