MODEL 1
REMARK VINA RESULT:      -6.7      0.000      0.000
REMARK  Name = 
REMARK  4 active torsions:
REMARK  status: ('A' for Active; 'I' for Inactive)
REMARK    1  A    between atoms: C_1  and  C_2
REMARK    2  A    between atoms: C_2  and  N_3
REMARK    3  A    between atoms: C_12  and  C_13
REMARK    4  A    between atoms: N_23  and  C_24
REMARK                            x       y       z     vdW  Elec       q    Type
REMARK                         _______ _______ _______ _____ _____    ______ ____
ROOT
ATOM      1  N   UNL     1      -3.514  11.990  19.137  0.00  0.00    +0.000 N 
ATOM      2  C   UNL     1      -2.420  12.107  19.970  0.00  0.00    +0.000 A 
ATOM      3  C   UNL     1      -2.895  12.492  21.213  0.00  0.00    +0.000 A 
ATOM      4  C   UNL     1      -4.288  12.746  21.100  0.00  0.00    +0.000 A 
ATOM      5  C   UNL     1      -5.259  13.242  21.997  0.00  0.00    +0.000 A 
ATOM      6  C   UNL     1      -6.570  13.434  21.556  0.00  0.00    +0.000 A 
ATOM      7  C   UNL     1      -6.922  13.122  20.249  0.00  0.00    +0.000 A 
ATOM      8  C   UNL     1      -5.979  12.615  19.346  0.00  0.00    +0.000 A 
ATOM      9  C   UNL     1      -4.654  12.443  19.787  0.00  0.00    +0.000 A 
ATOM     10  C   UNL     1      -2.015  12.673  22.408  0.00  0.00    +0.000 C 
ATOM     11  C   UNL     1      -0.734  11.827  22.250  0.00  0.00    +0.000 C 
ATOM     12  C   UNL     1      -0.061  11.894  20.864  0.00  0.00    +0.000 C 
ATOM     13  C   UNL     1       0.724  13.171  20.730  0.00  0.00    +0.000 C 
ATOM     14  O   UNL     1       1.563  13.482  21.566  0.00  0.00    +0.000 OA
ATOM     15  N   UNL     1       0.391  13.797  19.552  0.00  0.00    +0.000 N 
ATOM     16  C   UNL     1      -0.405  12.980  18.773  0.00  0.00    +0.000 C 
ATOM     17  O   UNL     1      -0.642  13.066  17.577  0.00  0.00    +0.000 OA
ATOM     18  C   UNL     1      -0.971  11.856  19.632  0.00  0.00    +0.000 C 
ENDROOT
BRANCH  10  19
ATOM     19  C   UNL     1      -1.852  14.175  22.618  0.00  0.00    +0.000 A 
ATOM     20  C   UNL     1      -1.276  14.630  23.816  0.00  0.00    +0.000 A 
ATOM     21  C   UNL     1      -1.262  15.993  24.136  0.00  0.00    +0.000 A 
ATOM     22  C   UNL     1      -1.799  16.930  23.257  0.00  0.00    +0.000 A 
ATOM     23  C   UNL     1      -2.318  16.510  22.039  0.00  0.00    +0.000 A 
ATOM     24  C   UNL     1      -2.341  15.151  21.726  0.00  0.00    +0.000 A 
ENDBRANCH  10  19
BRANCH  15  25
ATOM     25  C   UNL     1       0.747  15.150  19.225  0.00  0.00    +0.000 A 
ATOM     26  C   UNL     1      -0.232  16.152  19.094  0.00  0.00    +0.000 A 
ATOM     27  C   UNL     1       0.059  17.400  18.529  0.00  0.00    +0.000 A 
ATOM     28  C   UNL     1       1.347  17.692  18.108  0.00  0.00    +0.000 A 
ATOM     29  C   UNL     1       2.353  16.755  18.302  0.00  0.00    +0.000 A 
ATOM     30  C   UNL     1       2.057  15.503  18.860  0.00  0.00    +0.000 A 
ENDBRANCH  15  25
BRANCH   1  32
ATOM     31  C   UNL     1      -3.447   9.931  17.786  0.00  0.00    +0.000 C 
ATOM     32  C   UNL     1      -3.516  11.448  17.786  0.00  0.00    +0.000 C 
ENDBRANCH   1  32
TORSDOF 3
ENDMDL
MODEL 2
REMARK VINA RESULT:      -6.6      1.189      1.435
REMARK  Name = 
REMARK  4 active torsions:
REMARK  status: ('A' for Active; 'I' for Inactive)
REMARK    1  A    between atoms: C_1  and  C_2
REMARK    2  A    between atoms: C_2  and  N_3
REMARK    3  A    between atoms: C_12  and  C_13
REMARK    4  A    between atoms: N_23  and  C_24
REMARK                            x       y       z     vdW  Elec       q    Type
REMARK                         _______ _______ _______ _____ _____    ______ ____
ROOT
ATOM      1  N   UNL     1      -3.707  11.838  18.543  0.00  0.00    +0.000 N 
ATOM      2  C   UNL     1      -2.975  12.191  19.658  0.00  0.00    +0.000 A 
ATOM      3  C   UNL     1      -3.874  12.651  20.606  0.00  0.00    +0.000 A 
ATOM      4  C   UNL     1      -5.162  12.707  20.010  0.00  0.00    +0.000 A 
ATOM      5  C   UNL     1      -6.418  13.173  20.457  0.00  0.00    +0.000 A 
ATOM      6  C   UNL     1      -7.512  13.142  19.590  0.00  0.00    +0.000 A 
ATOM      7  C   UNL     1      -7.372  12.639  18.302  0.00  0.00    +0.000 A 
ATOM      8  C   UNL     1      -6.139  12.159  17.842  0.00  0.00    +0.000 A 
ATOM      9  C   UNL     1      -5.033  12.212  18.711  0.00  0.00    +0.000 A 
ATOM     10  C   UNL     1      -3.471  13.079  21.980  0.00  0.00    +0.000 C 
ATOM     11  C   UNL     1      -2.147  12.394  22.378  0.00  0.00    +0.000 C 
ATOM     12  C   UNL     1      -1.051  12.389  21.293  0.00  0.00    +0.000 C 
ATOM     13  C   UNL     1      -0.377  13.733  21.229  0.00  0.00    +0.000 C 
ATOM     14  O   UNL     1       0.099  14.244  22.236  0.00  0.00    +0.000 OA
ATOM     15  N   UNL     1      -0.341  14.172  19.927  0.00  0.00    +0.000 N 
ATOM     16  C   UNL     1      -0.753  13.175  19.064  0.00  0.00    +0.000 C 
ATOM     17  O   UNL     1      -0.577  13.092  17.857  0.00  0.00    +0.000 OA
ATOM     18  C   UNL     1      -1.482  12.093  19.852  0.00  0.00    +0.000 C 
ENDROOT
BRANCH  10  19
ATOM     19  C   UNL     1      -3.516  14.605  22.003  0.00  0.00    +0.000 A 
ATOM     20  C   UNL     1      -3.329  15.267  23.227  0.00  0.00    +0.000 A 
ATOM     21  C   UNL     1      -3.534  16.648  23.337  0.00  0.00    +0.000 A 
ATOM     22  C   UNL     1      -3.901  17.398  22.224  0.00  0.00    +0.000 A 
ATOM     23  C   UNL     1      -4.030  16.775  20.989  0.00  0.00    +0.000 A 
ATOM     24  C   UNL     1      -3.837  15.398  20.883  0.00  0.00    +0.000 A 
ENDBRANCH  10  19
BRANCH  15  25
ATOM     25  C   UNL     1      -0.010  15.513  19.533  0.00  0.00    +0.000 A 
ATOM     26  C   UNL     1      -0.998  16.408  19.082  0.00  0.00    +0.000 A 
ATOM     27  C   UNL     1      -0.670  17.617  18.455  0.00  0.00    +0.000 A 
ATOM     28  C   UNL     1       0.658  17.979  18.290  0.00  0.00    +0.000 A 
ATOM     29  C   UNL     1       1.653  17.157  18.801  0.00  0.00    +0.000 A 
ATOM     30  C   UNL     1       1.323  15.943  19.420  0.00  0.00    +0.000 A 
ENDBRANCH  15  25
BRANCH   1  32
ATOM     31  C   UNL     1      -3.159   9.646  17.563  0.00  0.00    +0.000 C 
ATOM     32  C   UNL     1      -3.204  11.151  17.363  0.00  0.00    +0.000 C 
ENDBRANCH   1  32
TORSDOF 3
ENDMDL
MODEL 3
REMARK VINA RESULT:      -6.5      2.074      6.480
REMARK  Name = 
REMARK  4 active torsions:
REMARK  status: ('A' for Active; 'I' for Inactive)
REMARK    1  A    between atoms: C_1  and  C_2
REMARK    2  A    between atoms: C_2  and  N_3
REMARK    3  A    between atoms: C_12  and  C_13
REMARK    4  A    between atoms: N_23  and  C_24
REMARK                            x       y       z     vdW  Elec       q    Type
REMARK                         _______ _______ _______ _____ _____    ______ ____
ROOT
ATOM      1  N   UNL     1      -1.427  16.513  20.392  0.00  0.00    +0.000 N 
ATOM      2  C   UNL     1      -1.712  15.511  21.296  0.00  0.00    +0.000 A 
ATOM      3  C   UNL     1      -0.585  14.712  21.387  0.00  0.00    +0.000 A 
ATOM      4  C   UNL     1       0.356  15.154  20.419  0.00  0.00    +0.000 A 
ATOM      5  C   UNL     1       1.615  14.674  20.001  0.00  0.00    +0.000 A 
ATOM      6  C   UNL     1       2.286  15.315  18.958  0.00  0.00    +0.000 A 
ATOM      7  C   UNL     1       1.728  16.432  18.348  0.00  0.00    +0.000 A 
ATOM      8  C   UNL     1       0.486  16.935  18.756  0.00  0.00    +0.000 A 
ATOM      9  C   UNL     1      -0.198  16.273  19.792  0.00  0.00    +0.000 A 
ATOM     10  C   UNL     1      -0.480  13.542  22.312  0.00  0.00    +0.000 C 
ATOM     11  C   UNL     1      -1.449  13.723  23.499  0.00  0.00    +0.000 C 
ATOM     12  C   UNL     1      -2.868  14.203  23.130  0.00  0.00    +0.000 C 
ATOM     13  C   UNL     1      -3.682  13.055  22.595  0.00  0.00    +0.000 C 
ATOM     14  O   UNL     1      -3.795  12.016  23.232  0.00  0.00    +0.000 OA
ATOM     15  N   UNL     1      -4.272  13.421  21.408  0.00  0.00    +0.000 N 
ATOM     16  C   UNL     1      -4.098  14.771  21.172  0.00  0.00    +0.000 C 
ATOM     17  O   UNL     1      -4.713  15.493  20.401  0.00  0.00    +0.000 OA
ATOM     18  C   UNL     1      -2.990  15.304  22.071  0.00  0.00    +0.000 C 
ENDROOT
BRANCH  10  19
ATOM     19  C   UNL     1      -0.627  12.285  21.460  0.00  0.00    +0.000 A 
ATOM     20  C   UNL     1      -0.378  11.036  22.052  0.00  0.00    +0.000 A 
ATOM     21  C   UNL     1      -0.326   9.870  21.278  0.00  0.00    +0.000 A 
ATOM     22  C   UNL     1      -0.548   9.924  19.905  0.00  0.00    +0.000 A 
ATOM     23  C   UNL     1      -0.859  11.138  19.307  0.00  0.00    +0.000 A 
ATOM     24  C   UNL     1      -0.899  12.301  20.077  0.00  0.00    +0.000 A 
ENDBRANCH  10  19
BRANCH  15  25
ATOM     25  C   UNL     1      -4.899  12.503  20.498  0.00  0.00    +0.000 A 
ATOM     26  C   UNL     1      -4.295  12.157  19.275  0.00  0.00    +0.000 A 
ATOM     27  C   UNL     1      -4.995  11.479  18.270  0.00  0.00    +0.000 A 
ATOM     28  C   UNL     1      -6.312  11.097  18.474  0.00  0.00    +0.000 A 
ATOM     29  C   UNL     1      -6.908  11.348  19.703  0.00  0.00    +0.000 A 
ATOM     30  C   UNL     1      -6.208  12.035  20.704  0.00  0.00    +0.000 A 
ENDBRANCH  15  25
BRANCH   1  32
ATOM     31  C   UNL     1      -2.313  18.630  21.285  0.00  0.00    +0.000 C 
ATOM     32  C   UNL     1      -2.251  17.678  20.104  0.00  0.00    +0.000 C 
ENDBRANCH   1  32
TORSDOF 3
ENDMDL
MODEL 4
REMARK VINA RESULT:      -6.4      7.511     11.597
REMARK  Name = 
REMARK  4 active torsions:
REMARK  status: ('A' for Active; 'I' for Inactive)
REMARK    1  A    between atoms: C_1  and  C_2
REMARK    2  A    between atoms: C_2  and  N_3
REMARK    3  A    between atoms: C_12  and  C_13
REMARK    4  A    between atoms: N_23  and  C_24
REMARK                            x       y       z     vdW  Elec       q    Type
REMARK                         _______ _______ _______ _____ _____    ______ ____
ROOT
ATOM      1  N   UNL     1       9.895  15.293  18.613  0.00  0.00    +0.000 N 
ATOM      2  C   UNL     1       9.629  15.734  19.893  0.00  0.00    +0.000 A 
ATOM      3  C   UNL     1      10.157  14.795  20.764  0.00  0.00    +0.000 A 
ATOM      4  C   UNL     1      10.632  13.695  20.002  0.00  0.00    +0.000 A 
ATOM      5  C   UNL     1      11.173  12.438  20.347  0.00  0.00    +0.000 A 
ATOM      6  C   UNL     1      11.501  11.529  19.339  0.00  0.00    +0.000 A 
ATOM      7  C   UNL     1      11.315  11.866  18.003  0.00  0.00    +0.000 A 
ATOM      8  C   UNL     1      10.793  13.113  17.638  0.00  0.00    +0.000 A 
ATOM      9  C   UNL     1      10.442  14.018  18.657  0.00  0.00    +0.000 A 
ATOM     10  C   UNL     1      10.119  14.942  22.251  0.00  0.00    +0.000 C 
ATOM     11  C   UNL     1      10.011  16.435  22.629  0.00  0.00    +0.000 C 
ATOM     12  C   UNL     1       8.988  17.252  21.815  0.00  0.00    +0.000 C 
ATOM     13  C   UNL     1       7.594  16.988  22.318  0.00  0.00    +0.000 C 
ATOM     14  O   UNL     1       7.319  17.123  23.503  0.00  0.00    +0.000 OA
ATOM     15  N   UNL     1       6.771  16.680  21.260  0.00  0.00    +0.000 N 
ATOM     16  C   UNL     1       7.420  16.894  20.059  0.00  0.00    +0.000 C 
ATOM     17  O   UNL     1       6.934  17.014  18.944  0.00  0.00    +0.000 OA
ATOM     18  C   UNL     1       8.919  17.000  20.305  0.00  0.00    +0.000 C 
ENDROOT
BRANCH  10  19
ATOM     19  C   UNL     1       9.035  13.999  22.766  0.00  0.00    +0.000 A 
ATOM     20  C   UNL     1       8.685  14.051  24.125  0.00  0.00    +0.000 A 
ATOM     21  C   UNL     1       7.828  13.096  24.685  0.00  0.00    +0.000 A 
ATOM     22  C   UNL     1       7.284  12.087  23.895  0.00  0.00    +0.000 A 
ATOM     23  C   UNL     1       7.566  12.052  22.536  0.00  0.00    +0.000 A 
ATOM     24  C   UNL     1       8.428  12.998  21.981  0.00  0.00    +0.000 A 
ENDBRANCH  10  19
BRANCH  15  25
ATOM     25  C   UNL     1       5.454  16.123  21.394  0.00  0.00    +0.000 A 
ATOM     26  C   UNL     1       5.261  14.753  21.648  0.00  0.00    +0.000 A 
ATOM     27  C   UNL     1       4.004  14.147  21.526  0.00  0.00    +0.000 A 
ATOM     28  C   UNL     1       2.896  14.905  21.176  0.00  0.00    +0.000 A 
ATOM     29  C   UNL     1       3.039  16.275  21.002  0.00  0.00    +0.000 A 
ATOM     30  C   UNL     1       4.300  16.877  21.117  0.00  0.00    +0.000 A 
ENDBRANCH  15  25
BRANCH   1  32
ATOM     31  C   UNL     1      10.874  16.900  17.023  0.00  0.00    +0.000 C 
ATOM     32  C   UNL     1       9.677  16.037  17.381  0.00  0.00    +0.000 C 
ENDBRANCH   1  32
TORSDOF 3
ENDMDL
MODEL 5
REMARK VINA RESULT:      -6.3      2.104      6.435
REMARK  Name = 
REMARK  4 active torsions:
REMARK  status: ('A' for Active; 'I' for Inactive)
REMARK    1  A    between atoms: C_1  and  C_2
REMARK    2  A    between atoms: C_2  and  N_3
REMARK    3  A    between atoms: C_12  and  C_13
REMARK    4  A    between atoms: N_23  and  C_24
REMARK                            x       y       z     vdW  Elec       q    Type
REMARK                         _______ _______ _______ _____ _____    ______ ____
ROOT
ATOM      1  N   UNL     1      -1.394  16.720  20.516  0.00  0.00    +0.000 N 
ATOM      2  C   UNL     1      -1.626  15.634  21.334  0.00  0.00    +0.000 A 
ATOM      3  C   UNL     1      -0.522  14.804  21.232  0.00  0.00    +0.000 A 
ATOM      4  C   UNL     1       0.339  15.327  20.230  0.00  0.00    +0.000 A 
ATOM      5  C   UNL     1       1.537  14.866  19.645  0.00  0.00    +0.000 A 
ATOM      6  C   UNL     1       2.129  15.600  18.615  0.00  0.00    +0.000 A 
ATOM      7  C   UNL     1       1.552  16.788  18.181  0.00  0.00    +0.000 A 
ATOM      8  C   UNL     1       0.371  17.272  18.757  0.00  0.00    +0.000 A 
ATOM      9  C   UNL     1      -0.235  16.517  19.780  0.00  0.00    +0.000 A 
ATOM     10  C   UNL     1      -0.369  13.541  22.016  0.00  0.00    +0.000 C 
ATOM     11  C   UNL     1      -1.217  13.614  23.303  0.00  0.00    +0.000 C 
ATOM     12  C   UNL     1      -2.647  14.163  23.124  0.00  0.00    +0.000 C 
ATOM     13  C   UNL     1      -3.544  13.097  22.553  0.00  0.00    +0.000 C 
ATOM     14  O   UNL     1      -3.631  11.998  23.086  0.00  0.00    +0.000 OA
ATOM     15  N   UNL     1      -4.230  13.601  21.473  0.00  0.00    +0.000 N 
ATOM     16  C   UNL     1      -4.036  14.964  21.363  0.00  0.00    +0.000 C 
ATOM     17  O   UNL     1      -4.696  15.778  20.734  0.00  0.00    +0.000 OA
ATOM     18  C   UNL     1      -2.832  15.373  22.203  0.00  0.00    +0.000 C 
ENDROOT
BRANCH  10  19
ATOM     19  C   UNL     1      -0.635  12.385  21.055  0.00  0.00    +0.000 A 
ATOM     20  C   UNL     1      -0.349  11.077  21.479  0.00  0.00    +0.000 A 
ATOM     21  C   UNL     1      -0.407  10.002  20.583  0.00  0.00    +0.000 A 
ATOM     22  C   UNL     1      -0.777  10.207  19.257  0.00  0.00    +0.000 A 
ATOM     23  C   UNL     1      -1.125  11.482  18.831  0.00  0.00    +0.000 A 
ATOM     24  C   UNL     1      -1.056  12.554  19.721  0.00  0.00    +0.000 A 
ENDBRANCH  10  19
BRANCH  15  25
ATOM     25  C   UNL     1      -4.968  12.799  20.537  0.00  0.00    +0.000 A 
ATOM     26  C   UNL     1      -6.226  12.262  20.867  0.00  0.00    +0.000 A 
ATOM     27  C   UNL     1      -6.840  11.277  20.082  0.00  0.00    +0.000 A 
ATOM     28  C   UNL     1      -6.224  10.825  18.925  0.00  0.00    +0.000 A 
ATOM     29  C   UNL     1      -5.023  11.398  18.527  0.00  0.00    +0.000 A 
ATOM     30  C   UNL     1      -4.408  12.377  19.320  0.00  0.00    +0.000 A 
ENDBRANCH  15  25
BRANCH   1  32
ATOM     31  C   UNL     1      -2.908  18.041  19.091  0.00  0.00    +0.000 C 
ATOM     32  C   UNL     1      -2.204  17.927  20.432  0.00  0.00    +0.000 C 
ENDBRANCH   1  32
TORSDOF 3
ENDMDL
MODEL 6
REMARK VINA RESULT:      -6.2      0.799      1.389
REMARK  Name = 
REMARK  4 active torsions:
REMARK  status: ('A' for Active; 'I' for Inactive)
REMARK    1  A    between atoms: C_1  and  C_2
REMARK    2  A    between atoms: C_2  and  N_3
REMARK    3  A    between atoms: C_12  and  C_13
REMARK    4  A    between atoms: N_23  and  C_24
REMARK                            x       y       z     vdW  Elec       q    Type
REMARK                         _______ _______ _______ _____ _____    ______ ____
ROOT
ATOM      1  N   UNL     1      -3.389  11.884  18.943  0.00  0.00    +0.000 N 
ATOM      2  C   UNL     1      -2.489  12.191  19.943  0.00  0.00    +0.000 A 
ATOM      3  C   UNL     1      -3.226  12.623  21.034  0.00  0.00    +0.000 A 
ATOM      4  C   UNL     1      -4.589  12.711  20.646  0.00  0.00    +0.000 A 
ATOM      5  C   UNL     1      -5.755  13.169  21.298  0.00  0.00    +0.000 A 
ATOM      6  C   UNL     1      -6.970  13.179  20.610  0.00  0.00    +0.000 A 
ATOM      7  C   UNL     1      -7.037  12.721  19.299  0.00  0.00    +0.000 A 
ATOM      8  C   UNL     1      -5.896  12.248  18.638  0.00  0.00    +0.000 A 
ATOM      9  C   UNL     1      -4.669  12.261  19.327  0.00  0.00    +0.000 A 
ATOM     10  C   UNL     1      -2.610  12.999  22.343  0.00  0.00    +0.000 C 
ATOM     11  C   UNL     1      -1.249  12.289  22.507  0.00  0.00    +0.000 C 
ATOM     12  C   UNL     1      -0.334  12.315  21.266  0.00  0.00    +0.000 C 
ATOM     13  C   UNL     1       0.340  13.655  21.145  0.00  0.00    +0.000 C 
ATOM     14  O   UNL     1       0.972  14.126  22.083  0.00  0.00    +0.000 OA
ATOM     15  N   UNL     1       0.180  14.140  19.869  0.00  0.00    +0.000 N 
ATOM     16  C   UNL     1      -0.373  13.178  19.046  0.00  0.00    +0.000 C 
ATOM     17  O   UNL     1      -0.386  13.138  17.825  0.00  0.00    +0.000 OA
ATOM     18  C   UNL     1      -0.986  12.074  19.900  0.00  0.00    +0.000 C 
ENDROOT
BRANCH  10  19
ATOM     19  C   UNL     1      -2.630  14.522  22.425  0.00  0.00    +0.000 A 
ATOM     20  C   UNL     1      -2.926  15.256  21.264  0.00  0.00    +0.000 A 
ATOM     21  C   UNL     1      -2.787  16.649  21.238  0.00  0.00    +0.000 A 
ATOM     22  C   UNL     1      -2.377  17.339  22.375  0.00  0.00    +0.000 A 
ATOM     23  C   UNL     1      -2.140  16.641  23.553  0.00  0.00    +0.000 A 
ATOM     24  C   UNL     1      -2.268  15.252  23.574  0.00  0.00    +0.000 A 
ENDBRANCH  10  19
BRANCH  15  25
ATOM     25  C   UNL     1       0.464  15.492  19.475  0.00  0.00    +0.000 A 
ATOM     26  C   UNL     1       1.553  16.199  20.018  0.00  0.00    +0.000 A 
ATOM     27  C   UNL     1       1.696  17.582  19.849  0.00  0.00    +0.000 A 
ATOM     28  C   UNL     1       0.768  18.293  19.103  0.00  0.00    +0.000 A 
ATOM     29  C   UNL     1      -0.270  17.609  18.483  0.00  0.00    +0.000 A 
ATOM     30  C   UNL     1      -0.415  16.226  18.661  0.00  0.00    +0.000 A 
ENDBRANCH  15  25
BRANCH   1  32
ATOM     31  C   UNL     1      -3.132   9.722  17.792  0.00  0.00    +0.000 C 
ATOM     32  C   UNL     1      -3.084  11.235  17.676  0.00  0.00    +0.000 C 
ENDBRANCH   1  32
TORSDOF 3
ENDMDL
MODEL 7
REMARK VINA RESULT:      -6.1      3.075      6.630
REMARK  Name = 
REMARK  4 active torsions:
REMARK  status: ('A' for Active; 'I' for Inactive)
REMARK    1  A    between atoms: C_1  and  C_2
REMARK    2  A    between atoms: C_2  and  N_3
REMARK    3  A    between atoms: C_12  and  C_13
REMARK    4  A    between atoms: N_23  and  C_24
REMARK                            x       y       z     vdW  Elec       q    Type
REMARK                         _______ _______ _______ _____ _____    ______ ____
ROOT
ATOM      1  N   UNL     1      -1.764  15.209  20.399  0.00  0.00    +0.000 N 
ATOM      2  C   UNL     1      -3.034  14.976  20.886  0.00  0.00    +0.000 A 
ATOM      3  C   UNL     1      -3.184  13.603  20.988  0.00  0.00    +0.000 A 
ATOM      4  C   UNL     1      -2.036  12.984  20.425  0.00  0.00    +0.000 A 
ATOM      5  C   UNL     1      -1.683  11.640  20.175  0.00  0.00    +0.000 A 
ATOM      6  C   UNL     1      -0.474  11.352  19.540  0.00  0.00    +0.000 A 
ATOM      7  C   UNL     1       0.387  12.380  19.173  0.00  0.00    +0.000 A 
ATOM      8  C   UNL     1       0.064  13.719  19.424  0.00  0.00    +0.000 A 
ATOM      9  C   UNL     1      -1.166  14.007  20.044  0.00  0.00    +0.000 A 
ATOM     10  C   UNL     1      -4.414  12.950  21.532  0.00  0.00    +0.000 C 
ATOM     11  C   UNL     1      -5.153  13.923  22.474  0.00  0.00    +0.000 C 
ATOM     12  C   UNL     1      -5.295  15.369  21.955  0.00  0.00    +0.000 C 
ATOM     13  C   UNL     1      -6.405  15.451  20.942  0.00  0.00    +0.000 C 
ATOM     14  O   UNL     1      -7.528  15.039  21.208  0.00  0.00    +0.000 OA
ATOM     15  N   UNL     1      -5.955  16.093  19.813  0.00  0.00    +0.000 N 
ATOM     16  C   UNL     1      -4.700  16.631  20.025  0.00  0.00    +0.000 C 
ATOM     17  O   UNL     1      -4.125  17.496  19.381  0.00  0.00    +0.000 OA
ATOM     18  C   UNL     1      -4.080  15.996  21.263  0.00  0.00    +0.000 C 
ENDROOT
BRANCH  10  19
ATOM     19  C   UNL     1      -5.187  12.391  20.340  0.00  0.00    +0.000 A 
ATOM     20  C   UNL     1      -6.450  11.819  20.564  0.00  0.00    +0.000 A 
ATOM     21  C   UNL     1      -7.122  11.137  19.543  0.00  0.00    +0.000 A 
ATOM     22  C   UNL     1      -6.560  11.036  18.273  0.00  0.00    +0.000 A 
ATOM     23  C   UNL     1      -5.341  11.646  18.011  0.00  0.00    +0.000 A 
ATOM     24  C   UNL     1      -4.667  12.316  19.032  0.00  0.00    +0.000 A 
ENDBRANCH  10  19
BRANCH  15  25
ATOM     25  C   UNL     1      -6.658  16.117  18.561  0.00  0.00    +0.000 A 
ATOM     26  C   UNL     1      -6.774  14.962  17.765  0.00  0.00    +0.000 A 
ATOM     27  C   UNL     1      -7.221  15.020  16.439  0.00  0.00    +0.000 A 
ATOM     28  C   UNL     1      -7.596  16.232  15.881  0.00  0.00    +0.000 A 
ATOM     29  C   UNL     1      -7.574  17.376  16.668  0.00  0.00    +0.000 A 
ATOM     30  C   UNL     1      -7.117  17.317  17.993  0.00  0.00    +0.000 A 
ENDBRANCH  15  25
BRANCH   1  32
ATOM     31  C   UNL     1      -0.402  16.891  21.575  0.00  0.00    +0.000 C 
ATOM     32  C   UNL     1      -1.106  16.503  20.286  0.00  0.00    +0.000 C 
ENDBRANCH   1  32
TORSDOF 3
ENDMDL
MODEL 8
REMARK VINA RESULT:      -6.1      7.083     10.820
REMARK  Name = 
REMARK  4 active torsions:
REMARK  status: ('A' for Active; 'I' for Inactive)
REMARK    1  A    between atoms: C_1  and  C_2
REMARK    2  A    between atoms: C_2  and  N_3
REMARK    3  A    between atoms: C_12  and  C_13
REMARK    4  A    between atoms: N_23  and  C_24
REMARK                            x       y       z     vdW  Elec       q    Type
REMARK                         _______ _______ _______ _____ _____    ______ ____
ROOT
ATOM      1  N   UNL     1       8.891  14.634  19.013  0.00  0.00    +0.000 N 
ATOM      2  C   UNL     1       8.896  15.078  20.319  0.00  0.00    +0.000 A 
ATOM      3  C   UNL     1       9.311  14.017  21.108  0.00  0.00    +0.000 A 
ATOM      4  C   UNL     1       9.429  12.867  20.283  0.00  0.00    +0.000 A 
ATOM      5  C   UNL     1       9.721  11.511  20.546  0.00  0.00    +0.000 A 
ATOM      6  C   UNL     1       9.708  10.588  19.499  0.00  0.00    +0.000 A 
ATOM      7  C   UNL     1       9.430  11.003  18.202  0.00  0.00    +0.000 A 
ATOM      8  C   UNL     1       9.153  12.345  17.915  0.00  0.00    +0.000 A 
ATOM      9  C   UNL     1       9.144  13.269  18.977  0.00  0.00    +0.000 A 
ATOM     10  C   UNL     1       9.498  14.118  22.587  0.00  0.00    +0.000 C 
ATOM     11  C   UNL     1       9.770  15.585  22.984  0.00  0.00    +0.000 C 
ATOM     12  C   UNL     1       8.857  16.633  22.317  0.00  0.00    +0.000 C 
ATOM     13  C   UNL     1       7.515  16.661  22.999  0.00  0.00    +0.000 C 
ATOM     14  O   UNL     1       7.432  16.812  24.212  0.00  0.00    +0.000 OA
ATOM     15  N   UNL     1       6.516  16.576  22.059  0.00  0.00    +0.000 N 
ATOM     16  C   UNL     1       7.035  16.684  20.783  0.00  0.00    +0.000 C 
ATOM     17  O   UNL     1       6.449  16.945  19.743  0.00  0.00    +0.000 OA
ATOM     18  C   UNL     1       8.541  16.454  20.828  0.00  0.00    +0.000 C 
ENDROOT
BRANCH  10  19
ATOM     19  C   UNL     1       8.308  13.417  23.236  0.00  0.00    +0.000 A 
ATOM     20  C   UNL     1       8.409  13.023  24.581  0.00  0.00    +0.000 A 
ATOM     21  C   UNL     1       7.423  12.225  25.173  0.00  0.00    +0.000 A 
ATOM     22  C   UNL     1       6.305  11.827  24.444  0.00  0.00    +0.000 A 
ATOM     23  C   UNL     1       6.153  12.256  23.132  0.00  0.00    +0.000 A 
ATOM     24  C   UNL     1       7.142  13.042  22.540  0.00  0.00    +0.000 A 
ENDBRANCH  10  19
BRANCH  15  25
ATOM     25  C   UNL     1       5.137  16.315  22.364  0.00  0.00    +0.000 A 
ATOM     26  C   UNL     1       4.488  15.161  21.888  0.00  0.00    +0.000 A 
ATOM     27  C   UNL     1       3.096  15.015  21.951  0.00  0.00    +0.000 A 
ATOM     28  C   UNL     1       2.316  16.009  22.523  0.00  0.00    +0.000 A 
ATOM     29  C   UNL     1       2.936  17.121  23.079  0.00  0.00    +0.000 A 
ATOM     30  C   UNL     1       4.328  17.268  23.007  0.00  0.00    +0.000 A 
ENDBRANCH  15  25
BRANCH   1  32
ATOM     31  C   UNL     1       9.940  16.212  17.439  0.00  0.00    +0.000 C 
ATOM     32  C   UNL     1       8.685  15.449  17.824  0.00  0.00    +0.000 C 
ENDBRANCH   1  32
TORSDOF 3
ENDMDL
MODEL 9
REMARK VINA RESULT:      -6.0      7.586     11.594
REMARK  Name = 
REMARK  4 active torsions:
REMARK  status: ('A' for Active; 'I' for Inactive)
REMARK    1  A    between atoms: C_1  and  C_2
REMARK    2  A    between atoms: C_2  and  N_3
REMARK    3  A    between atoms: C_12  and  C_13
REMARK    4  A    between atoms: N_23  and  C_24
REMARK                            x       y       z     vdW  Elec       q    Type
REMARK                         _______ _______ _______ _____ _____    ______ ____
ROOT
ATOM      1  N   UNL     1      10.202  15.274  18.548  0.00  0.00    +0.000 N 
ATOM      2  C   UNL     1      10.014  15.863  19.781  0.00  0.00    +0.000 A 
ATOM      3  C   UNL     1      10.192  14.875  20.736  0.00  0.00    +0.000 A 
ATOM      4  C   UNL     1      10.356  13.632  20.067  0.00  0.00    +0.000 A 
ATOM      5  C   UNL     1      10.481  12.300  20.516  0.00  0.00    +0.000 A 
ATOM      6  C   UNL     1      10.575  11.265  19.582  0.00  0.00    +0.000 A 
ATOM      7  C   UNL     1      10.566  11.546  18.221  0.00  0.00    +0.000 A 
ATOM      8  C   UNL     1      10.458  12.862  17.755  0.00  0.00    +0.000 A 
ATOM      9  C   UNL     1      10.341  13.900  18.697  0.00  0.00    +0.000 A 
ATOM     10  C   UNL     1      10.124  15.133  22.207  0.00  0.00    +0.000 C 
ATOM     11  C   UNL     1      10.446  16.614  22.497  0.00  0.00    +0.000 C 
ATOM     12  C   UNL     1       9.756  17.636  21.571  0.00  0.00    +0.000 C 
ATOM     13  C   UNL     1       8.322  17.830  21.988  0.00  0.00    +0.000 C 
ATOM     14  O   UNL     1       8.040  18.124  23.142  0.00  0.00    +0.000 OA
ATOM     15  N   UNL     1       7.501  17.702  20.893  0.00  0.00    +0.000 N 
ATOM     16  C   UNL     1       8.244  17.630  19.730  0.00  0.00    +0.000 C 
ATOM     17  O   UNL     1       7.874  17.808  18.579  0.00  0.00    +0.000 OA
ATOM     18  C   UNL     1       9.693  17.308  20.075  0.00  0.00    +0.000 C 
ENDROOT
BRANCH  10  19
ATOM     19  C   UNL     1       8.783  14.589  22.693  0.00  0.00    +0.000 A 
ATOM     20  C   UNL     1       8.600  14.379  24.069  0.00  0.00    +0.000 A 
ATOM     21  C   UNL     1       7.462  13.721  24.552  0.00  0.00    +0.000 A 
ATOM     22  C   UNL     1       6.474  13.285  23.674  0.00  0.00    +0.000 A 
ATOM     23  C   UNL     1       6.603  13.537  22.314  0.00  0.00    +0.000 A 
ATOM     24  C   UNL     1       7.742  14.183  21.834  0.00  0.00    +0.000 A 
ENDBRANCH  10  19
BRANCH  15  25
ATOM     25  C   UNL     1       6.072  17.568  20.963  0.00  0.00    +0.000 A 
ATOM     26  C   UNL     1       5.419  16.425  20.466  0.00  0.00    +0.000 A 
ATOM     27  C   UNL     1       4.031  16.385  20.289  0.00  0.00    +0.000 A 
ATOM     28  C   UNL     1       3.252  17.479  20.634  0.00  0.00    +0.000 A 
ATOM     29  C   UNL     1       3.858  18.589  21.207  0.00  0.00    +0.000 A 
ATOM     30  C   UNL     1       5.249  18.630  21.375  0.00  0.00    +0.000 A 
ENDBRANCH  15  25
BRANCH   1  32
ATOM     31  C   UNL     1      11.664  16.525  17.011  0.00  0.00    +0.000 C 
ATOM     32  C   UNL     1      10.278  15.959  17.266  0.00  0.00    +0.000 C 
ENDBRANCH   1  32
TORSDOF 3
ENDMDL
