MODEL 1
REMARK VINA RESULT:      -7.5      0.000      0.000
REMARK  Name = 
REMARK  8 active torsions:
REMARK  status: ('A' for Active; 'I' for Inactive)
REMARK    1  A    between atoms: C_1  and  C_2
REMARK    2  A    between atoms: C_2  and  C_3
REMARK    3  A    between atoms: C_3  and  C_4
REMARK    4  A    between atoms: C_4  and  C_5
REMARK    5  A    between atoms: C_5  and  C_6
REMARK    6  A    between atoms: C_5  and  C_8
REMARK    7  A    between atoms: C_6  and  C_7
REMARK    8  A    between atoms: C_8  and  N_9
REMARK                            x       y       z     vdW  Elec       q    Type
REMARK                         _______ _______ _______ _____ _____    ______ ____
ROOT
ATOM      1  N   UNL     1       3.151   5.863  17.833  0.00  0.00    +0.000 N 
ATOM      2  C   UNL     1       2.595   7.024  18.423  0.00  0.00    +0.000 A 
ATOM      3  C   UNL     1       2.393   8.196  17.673  0.00  0.00    +0.000 A 
ATOM      4  C   UNL     1       1.755   9.313  18.222  0.00  0.00    +0.000 A 
ATOM      5  C   UNL     1       1.322   9.289  19.544  0.00  0.00    +0.000 A 
ATOM      6  C   UNL     1       1.520   8.146  20.313  0.00  0.00    +0.000 A 
ATOM      7  C   UNL     1       2.133   7.014  19.757  0.00  0.00    +0.000 A 
ATOM      8  S   UNL     1       2.320   5.577  20.804  0.00  0.00    +0.000 S 
ATOM      9  C   UNL     1       2.367   4.293  19.561  0.00  0.00    +0.000 A 
ATOM     10  C   UNL     1       1.962   3.005  19.940  0.00  0.00    +0.000 A 
ATOM     11  C   UNL     1       1.935   1.971  19.008  0.00  0.00    +0.000 A 
ATOM     12  C   UNL     1       2.329   2.217  17.697  0.00  0.00    +0.000 A 
ATOM     13  C   UNL     1       2.758   3.492  17.322  0.00  0.00    +0.000 A 
ATOM     14  C   UNL     1       2.801   4.554  18.245  0.00  0.00    +0.000 A 
ENDROOT
BRANCH   1  15
ATOM     15  C   UNL     1       4.325   6.013  16.940  0.00  0.00    +0.000 C 
BRANCH  15  16
ATOM     16  C   UNL     1       5.684   5.965  17.690  0.00  0.00    +0.000 C 
BRANCH  16  17
ATOM     17  C   UNL     1       6.500   7.252  17.407  0.00  0.00    +0.000 C 
ATOM     18  C   UNL     1       7.885   7.305  18.040  0.00  0.00    +0.000 C 
ENDBRANCH  16  17
BRANCH  16  19
ATOM     19  C   UNL     1       6.476   4.668  17.382  0.00  0.00    +0.000 C 
BRANCH  19  20
ATOM     20  C   UNL     1       6.035   3.981  16.083  0.00  0.00    +0.000 C 
BRANCH  20  22
ATOM     21  C   UNL     1       6.237   3.946  13.579  0.00  0.00    +0.000 C 
ATOM     22  C   UNL     1       6.831   4.477  14.876  0.00  0.00    +0.000 C 
ENDBRANCH  20  22
ENDBRANCH  19  20
ENDBRANCH  16  19
ENDBRANCH  15  16
ENDBRANCH   1  15
TORSDOF 6
ENDMDL
MODEL 2
REMARK VINA RESULT:      -7.1      1.855      4.633
REMARK  Name = 
REMARK  8 active torsions:
REMARK  status: ('A' for Active; 'I' for Inactive)
REMARK    1  A    between atoms: C_1  and  C_2
REMARK    2  A    between atoms: C_2  and  C_3
REMARK    3  A    between atoms: C_3  and  C_4
REMARK    4  A    between atoms: C_4  and  C_5
REMARK    5  A    between atoms: C_5  and  C_6
REMARK    6  A    between atoms: C_5  and  C_8
REMARK    7  A    between atoms: C_6  and  C_7
REMARK    8  A    between atoms: C_8  and  N_9
REMARK                            x       y       z     vdW  Elec       q    Type
REMARK                         _______ _______ _______ _____ _____    ______ ____
ROOT
ATOM      1  N   UNL     1       3.133   5.997  19.708  0.00  0.00    +0.000 N 
ATOM      2  C   UNL     1       2.312   7.149  19.765  0.00  0.00    +0.000 A 
ATOM      3  C   UNL     1       1.631   7.500  20.944  0.00  0.00    +0.000 A 
ATOM      4  C   UNL     1       0.899   8.688  21.038  0.00  0.00    +0.000 A 
ATOM      5  C   UNL     1       0.814   9.543  19.944  0.00  0.00    +0.000 A 
ATOM      6  C   UNL     1       1.469   9.214  18.760  0.00  0.00    +0.000 A 
ATOM      7  C   UNL     1       2.229   8.039  18.672  0.00  0.00    +0.000 A 
ATOM      8  S   UNL     1       3.063   7.708  17.126  0.00  0.00    +0.000 S 
ATOM      9  C   UNL     1       4.403   6.681  17.713  0.00  0.00    +0.000 A 
ATOM     10  C   UNL     1       5.580   6.648  16.950  0.00  0.00    +0.000 A 
ATOM     11  C   UNL     1       6.676   5.902  17.375  0.00  0.00    +0.000 A 
ATOM     12  C   UNL     1       6.594   5.172  18.556  0.00  0.00    +0.000 A 
ATOM     13  C   UNL     1       5.415   5.181  19.305  0.00  0.00    +0.000 A 
ATOM     14  C   UNL     1       4.291   5.922  18.896  0.00  0.00    +0.000 A 
ENDROOT
BRANCH   1  15
ATOM     15  C   UNL     1       2.631   4.738  20.310  0.00  0.00    +0.000 C 
BRANCH  15  16
ATOM     16  C   UNL     1       1.337   4.202  19.637  0.00  0.00    +0.000 C 
BRANCH  16  17
ATOM     17  C   UNL     1       0.818   2.952  20.391  0.00  0.00    +0.000 C 
ATOM     18  C   UNL     1       1.576   2.589  21.663  0.00  0.00    +0.000 C 
ENDBRANCH  16  17
BRANCH  16  19
ATOM     19  C   UNL     1       1.528   3.955  18.119  0.00  0.00    +0.000 C 
BRANCH  19  20
ATOM     20  C   UNL     1       1.995   2.532  17.788  0.00  0.00    +0.000 C 
BRANCH  20  22
ATOM     21  C   UNL     1       4.012   1.503  18.878  0.00  0.00    +0.000 C 
ATOM     22  C   UNL     1       3.520   2.421  17.768  0.00  0.00    +0.000 C 
ENDBRANCH  20  22
ENDBRANCH  19  20
ENDBRANCH  16  19
ENDBRANCH  15  16
ENDBRANCH   1  15
TORSDOF 6
ENDMDL
MODEL 3
REMARK VINA RESULT:      -6.7      0.997      2.613
REMARK  Name = 
REMARK  8 active torsions:
REMARK  status: ('A' for Active; 'I' for Inactive)
REMARK    1  A    between atoms: C_1  and  C_2
REMARK    2  A    between atoms: C_2  and  C_3
REMARK    3  A    between atoms: C_3  and  C_4
REMARK    4  A    between atoms: C_4  and  C_5
REMARK    5  A    between atoms: C_5  and  C_6
REMARK    6  A    between atoms: C_5  and  C_8
REMARK    7  A    between atoms: C_6  and  C_7
REMARK    8  A    between atoms: C_8  and  N_9
REMARK                            x       y       z     vdW  Elec       q    Type
REMARK                         _______ _______ _______ _____ _____    ______ ____
ROOT
ATOM      1  N   UNL     1       3.889   5.392  18.449  0.00  0.00    +0.000 N 
ATOM      2  C   UNL     1       3.197   6.618  18.600  0.00  0.00    +0.000 A 
ATOM      3  C   UNL     1       3.448   7.705  17.745  0.00  0.00    +0.000 A 
ATOM      4  C   UNL     1       2.700   8.885  17.825  0.00  0.00    +0.000 A 
ATOM      5  C   UNL     1       1.696   9.010  18.780  0.00  0.00    +0.000 A 
ATOM      6  C   UNL     1       1.435   7.954  19.648  0.00  0.00    +0.000 A 
ATOM      7  C   UNL     1       2.162   6.758  19.550  0.00  0.00    +0.000 A 
ATOM      8  S   UNL     1       1.741   5.440  20.682  0.00  0.00    +0.000 S 
ATOM      9  C   UNL     1       2.285   4.029  19.728  0.00  0.00    +0.000 A 
ATOM     10  C   UNL     1       1.666   2.796  19.981  0.00  0.00    +0.000 A 
ATOM     11  C   UNL     1       2.015   1.668  19.243  0.00  0.00    +0.000 A 
ATOM     12  C   UNL     1       2.994   1.766  18.260  0.00  0.00    +0.000 A 
ATOM     13  C   UNL     1       3.630   2.986  18.023  0.00  0.00    +0.000 A 
ATOM     14  C   UNL     1       3.302   4.140  18.759  0.00  0.00    +0.000 A 
ENDROOT
BRANCH   1  15
ATOM     15  C   UNL     1       5.352   5.427  18.210  0.00  0.00    +0.000 C 
BRANCH  15  16
ATOM     16  C   UNL     1       5.738   6.003  16.820  0.00  0.00    +0.000 C 
BRANCH  16  17
ATOM     17  C   UNL     1       5.250   5.059  15.693  0.00  0.00    +0.000 C 
ATOM     18  C   UNL     1       6.263   4.024  15.217  0.00  0.00    +0.000 C 
ENDBRANCH  16  17
BRANCH  16  19
ATOM     19  C   UNL     1       7.251   6.329  16.723  0.00  0.00    +0.000 C 
BRANCH  19  20
ATOM     20  C   UNL     1       7.772   7.155  17.906  0.00  0.00    +0.000 C 
BRANCH  20  22
ATOM     21  C   UNL     1       8.676   9.426  18.489  0.00  0.00    +0.000 C 
ATOM     22  C   UNL     1       7.671   8.657  17.643  0.00  0.00    +0.000 C 
ENDBRANCH  20  22
ENDBRANCH  19  20
ENDBRANCH  16  19
ENDBRANCH  15  16
ENDBRANCH   1  15
TORSDOF 6
ENDMDL
MODEL 4
REMARK VINA RESULT:      -6.5      1.542      2.141
REMARK  Name = 
REMARK  8 active torsions:
REMARK  status: ('A' for Active; 'I' for Inactive)
REMARK    1  A    between atoms: C_1  and  C_2
REMARK    2  A    between atoms: C_2  and  C_3
REMARK    3  A    between atoms: C_3  and  C_4
REMARK    4  A    between atoms: C_4  and  C_5
REMARK    5  A    between atoms: C_5  and  C_6
REMARK    6  A    between atoms: C_5  and  C_8
REMARK    7  A    between atoms: C_6  and  C_7
REMARK    8  A    between atoms: C_8  and  N_9
REMARK                            x       y       z     vdW  Elec       q    Type
REMARK                         _______ _______ _______ _____ _____    ______ ____
ROOT
ATOM      1  N   UNL     1       2.668   6.237  18.066  0.00  0.00    +0.000 N 
ATOM      2  C   UNL     1       2.273   7.525  18.500  0.00  0.00    +0.000 A 
ATOM      3  C   UNL     1       2.308   8.629  17.630  0.00  0.00    +0.000 A 
ATOM      4  C   UNL     1       1.827   9.883  18.022  0.00  0.00    +0.000 A 
ATOM      5  C   UNL     1       1.320  10.065  19.305  0.00  0.00    +0.000 A 
ATOM      6  C   UNL     1       1.285   8.992  20.191  0.00  0.00    +0.000 A 
ATOM      7  C   UNL     1       1.738   7.726  19.791  0.00  0.00    +0.000 A 
ATOM      8  S   UNL     1       1.629   6.396  20.980  0.00  0.00    +0.000 S 
ATOM      9  C   UNL     1       1.541   4.997  19.870  0.00  0.00    +0.000 A 
ATOM     10  C   UNL     1       0.911   3.834  20.338  0.00  0.00    +0.000 A 
ATOM     11  C   UNL     1       0.773   2.725  19.508  0.00  0.00    +0.000 A 
ATOM     12  C   UNL     1       1.277   2.768  18.213  0.00  0.00    +0.000 A 
ATOM     13  C   UNL     1       1.928   3.915  17.752  0.00  0.00    +0.000 A 
ATOM     14  C   UNL     1       2.088   5.048  18.572  0.00  0.00    +0.000 A 
ENDROOT
BRANCH   1  15
ATOM     15  C   UNL     1       3.901   6.109  17.252  0.00  0.00    +0.000 C 
BRANCH  15  16
ATOM     16  C   UNL     1       5.202   6.407  18.047  0.00  0.00    +0.000 C 
BRANCH  16  17
ATOM     17  C   UNL     1       6.420   6.440  17.090  0.00  0.00    +0.000 C 
ATOM     18  C   UNL     1       7.590   7.304  17.545  0.00  0.00    +0.000 C 
ENDBRANCH  16  17
BRANCH  16  19
ATOM     19  C   UNL     1       5.394   5.433  19.237  0.00  0.00    +0.000 C 
BRANCH  19  20
ATOM     20  C   UNL     1       5.407   3.957  18.820  0.00  0.00    +0.000 C 
BRANCH  20  22
ATOM     21  C   UNL     1       4.414   1.696  19.286  0.00  0.00    +0.000 C 
ATOM     22  C   UNL     1       4.750   3.061  19.870  0.00  0.00    +0.000 C 
ENDBRANCH  20  22
ENDBRANCH  19  20
ENDBRANCH  16  19
ENDBRANCH  15  16
ENDBRANCH   1  15
TORSDOF 6
ENDMDL
MODEL 5
REMARK VINA RESULT:      -6.5      1.562      5.730
REMARK  Name = 
REMARK  8 active torsions:
REMARK  status: ('A' for Active; 'I' for Inactive)
REMARK    1  A    between atoms: C_1  and  C_2
REMARK    2  A    between atoms: C_2  and  C_3
REMARK    3  A    between atoms: C_3  and  C_4
REMARK    4  A    between atoms: C_4  and  C_5
REMARK    5  A    between atoms: C_5  and  C_6
REMARK    6  A    between atoms: C_5  and  C_8
REMARK    7  A    between atoms: C_6  and  C_7
REMARK    8  A    between atoms: C_8  and  N_9
REMARK                            x       y       z     vdW  Elec       q    Type
REMARK                         _______ _______ _______ _____ _____    ______ ____
ROOT
ATOM      1  N   UNL     1       3.851   5.420  19.041  0.00  0.00    +0.000 N 
ATOM      2  C   UNL     1       4.754   5.116  17.994  0.00  0.00    +0.000 A 
ATOM      3  C   UNL     1       6.027   5.711  17.935  0.00  0.00    +0.000 A 
ATOM      4  C   UNL     1       6.960   5.343  16.961  0.00  0.00    +0.000 A 
ATOM      5  C   UNL     1       6.631   4.384  16.008  0.00  0.00    +0.000 A 
ATOM      6  C   UNL     1       5.374   3.788  16.035  0.00  0.00    +0.000 A 
ATOM      7  C   UNL     1       4.446   4.132  17.029  0.00  0.00    +0.000 A 
ATOM      8  S   UNL     1       2.866   3.296  17.012  0.00  0.00    +0.000 S 
ATOM      9  C   UNL     1       2.424   3.436  18.738  0.00  0.00    +0.000 A 
ATOM     10  C   UNL     1       1.554   2.470  19.267  0.00  0.00    +0.000 A 
ATOM     11  C   UNL     1       1.205   2.499  20.614  0.00  0.00    +0.000 A 
ATOM     12  C   UNL     1       1.711   3.501  21.434  0.00  0.00    +0.000 A 
ATOM     13  C   UNL     1       2.557   4.479  20.907  0.00  0.00    +0.000 A 
ATOM     14  C   UNL     1       2.921   4.478  19.547  0.00  0.00    +0.000 A 
ENDROOT
BRANCH   1  15
ATOM     15  C   UNL     1       3.687   6.836  19.449  0.00  0.00    +0.000 C 
BRANCH  15  16
ATOM     16  C   UNL     1       2.257   7.391  19.198  0.00  0.00    +0.000 C 
BRANCH  16  17
ATOM     17  C   UNL     1       2.198   8.124  17.834  0.00  0.00    +0.000 C 
ATOM     18  C   UNL     1       1.507   9.482  17.846  0.00  0.00    +0.000 C 
ENDBRANCH  16  17
BRANCH  16  19
ATOM     19  C   UNL     1       1.755   8.265  20.375  0.00  0.00    +0.000 C 
BRANCH  19  20
ATOM     20  C   UNL     1       0.597   7.628  21.154  0.00  0.00    +0.000 C 
BRANCH  20  22
ATOM     21  C   UNL     1       0.038  10.075  21.275  0.00  0.00    +0.000 C 
ATOM     22  C   UNL     1      -0.330   8.681  21.761  0.00  0.00    +0.000 C 
ENDBRANCH  20  22
ENDBRANCH  19  20
ENDBRANCH  16  19
ENDBRANCH  15  16
ENDBRANCH   1  15
TORSDOF 6
ENDMDL
MODEL 6
REMARK VINA RESULT:      -6.4      0.894      1.173
REMARK  Name = 
REMARK  8 active torsions:
REMARK  status: ('A' for Active; 'I' for Inactive)
REMARK    1  A    between atoms: C_1  and  C_2
REMARK    2  A    between atoms: C_2  and  C_3
REMARK    3  A    between atoms: C_3  and  C_4
REMARK    4  A    between atoms: C_4  and  C_5
REMARK    5  A    between atoms: C_5  and  C_6
REMARK    6  A    between atoms: C_5  and  C_8
REMARK    7  A    between atoms: C_6  and  C_7
REMARK    8  A    between atoms: C_8  and  N_9
REMARK                            x       y       z     vdW  Elec       q    Type
REMARK                         _______ _______ _______ _____ _____    ______ ____
ROOT
ATOM      1  N   UNL     1       3.313   6.223  17.942  0.00  0.00    +0.000 N 
ATOM      2  C   UNL     1       2.631   7.338  18.485  0.00  0.00    +0.000 A 
ATOM      3  C   UNL     1       2.536   8.549  17.776  0.00  0.00    +0.000 A 
ATOM      4  C   UNL     1       1.782   9.622  18.262  0.00  0.00    +0.000 A 
ATOM      5  C   UNL     1       1.122   9.514  19.482  0.00  0.00    +0.000 A 
ATOM      6  C   UNL     1       1.209   8.332  20.211  0.00  0.00    +0.000 A 
ATOM      7  C   UNL     1       1.939   7.243  19.712  0.00  0.00    +0.000 A 
ATOM      8  S   UNL     1       1.974   5.751  20.695  0.00  0.00    +0.000 S 
ATOM      9  C   UNL     1       2.275   4.543  19.413  0.00  0.00    +0.000 A 
ATOM     10  C   UNL     1       1.841   3.228  19.643  0.00  0.00    +0.000 A 
ATOM     11  C   UNL     1       2.007   2.250  18.666  0.00  0.00    +0.000 A 
ATOM     12  C   UNL     1       2.621   2.579  17.462  0.00  0.00    +0.000 A 
ATOM     13  C   UNL     1       3.078   3.880  17.239  0.00  0.00    +0.000 A 
ATOM     14  C   UNL     1       2.929   4.886  18.212  0.00  0.00    +0.000 A 
ENDROOT
BRANCH   1  15
ATOM     15  C   UNL     1       4.622   6.443  17.282  0.00  0.00    +0.000 C 
BRANCH  15  16
ATOM     16  C   UNL     1       5.255   5.143  16.713  0.00  0.00    +0.000 C 
BRANCH  16  17
ATOM     17  C   UNL     1       6.501   4.744  17.544  0.00  0.00    +0.000 C 
ATOM     18  C   UNL     1       6.752   5.579  18.794  0.00  0.00    +0.000 C 
ENDBRANCH  16  17
BRANCH  16  19
ATOM     19  C   UNL     1       5.551   5.252  15.196  0.00  0.00    +0.000 C 
BRANCH  19  20
ATOM     20  C   UNL     1       5.630   3.892  14.491  0.00  0.00    +0.000 C 
BRANCH  20  22
ATOM     21  C   UNL     1       5.860   3.100  12.118  0.00  0.00    +0.000 C 
ATOM     22  C   UNL     1       6.472   3.957  13.217  0.00  0.00    +0.000 C 
ENDBRANCH  20  22
ENDBRANCH  19  20
ENDBRANCH  16  19
ENDBRANCH  15  16
ENDBRANCH   1  15
TORSDOF 6
ENDMDL
MODEL 7
REMARK VINA RESULT:      -6.4      0.921      2.364
REMARK  Name = 
REMARK  8 active torsions:
REMARK  status: ('A' for Active; 'I' for Inactive)
REMARK    1  A    between atoms: C_1  and  C_2
REMARK    2  A    between atoms: C_2  and  C_3
REMARK    3  A    between atoms: C_3  and  C_4
REMARK    4  A    between atoms: C_4  and  C_5
REMARK    5  A    between atoms: C_5  and  C_6
REMARK    6  A    between atoms: C_5  and  C_8
REMARK    7  A    between atoms: C_6  and  C_7
REMARK    8  A    between atoms: C_8  and  N_9
REMARK                            x       y       z     vdW  Elec       q    Type
REMARK                         _______ _______ _______ _____ _____    ______ ____
ROOT
ATOM      1  N   UNL     1       3.256   5.545  18.414  0.00  0.00    +0.000 N 
ATOM      2  C   UNL     1       2.747   6.847  18.640  0.00  0.00    +0.000 A 
ATOM      3  C   UNL     1       2.990   7.891  17.730  0.00  0.00    +0.000 A 
ATOM      4  C   UNL     1       2.410   9.153  17.896  0.00  0.00    +0.000 A 
ATOM      5  C   UNL     1       1.589   9.405  18.990  0.00  0.00    +0.000 A 
ATOM      6  C   UNL     1       1.341   8.393  19.913  0.00  0.00    +0.000 A 
ATOM      7  C   UNL     1       1.896   7.118  19.734  0.00  0.00    +0.000 A 
ATOM      8  S   UNL     1       1.502   5.866  20.948  0.00  0.00    +0.000 S 
ATOM      9  C   UNL     1       1.719   4.395  19.956  0.00  0.00    +0.000 A 
ATOM     10  C   UNL     1       1.004   3.247  20.330  0.00  0.00    +0.000 A 
ATOM     11  C   UNL     1       1.097   2.082  19.574  0.00  0.00    +0.000 A 
ATOM     12  C   UNL     1       1.916   2.054  18.451  0.00  0.00    +0.000 A 
ATOM     13  C   UNL     1       2.649   3.186  18.090  0.00  0.00    +0.000 A 
ATOM     14  C   UNL     1       2.580   4.376  18.840  0.00  0.00    +0.000 A 
ENDROOT
BRANCH   1  15
ATOM     15  C   UNL     1       4.658   5.401  17.953  0.00  0.00    +0.000 C 
BRANCH  15  16
ATOM     16  C   UNL     1       4.821   5.539  16.414  0.00  0.00    +0.000 C 
BRANCH  16  17
ATOM     17  C   UNL     1       5.183   4.168  15.788  0.00  0.00    +0.000 C 
ATOM     18  C   UNL     1       5.581   4.202  14.317  0.00  0.00    +0.000 C 
ENDBRANCH  16  17
BRANCH  16  19
ATOM     19  C   UNL     1       5.819   6.661  16.031  0.00  0.00    +0.000 C 
BRANCH  19  20
ATOM     20  C   UNL     1       7.246   6.403  16.532  0.00  0.00    +0.000 C 
BRANCH  20  22
ATOM     21  C   UNL     1       8.036   6.475  18.916  0.00  0.00    +0.000 C 
ATOM     22  C   UNL     1       7.609   7.304  17.712  0.00  0.00    +0.000 C 
ENDBRANCH  20  22
ENDBRANCH  19  20
ENDBRANCH  16  19
ENDBRANCH  15  16
ENDBRANCH   1  15
TORSDOF 6
ENDMDL
MODEL 8
REMARK VINA RESULT:      -6.3      1.547      4.399
REMARK  Name = 
REMARK  8 active torsions:
REMARK  status: ('A' for Active; 'I' for Inactive)
REMARK    1  A    between atoms: C_1  and  C_2
REMARK    2  A    between atoms: C_2  and  C_3
REMARK    3  A    between atoms: C_3  and  C_4
REMARK    4  A    between atoms: C_4  and  C_5
REMARK    5  A    between atoms: C_5  and  C_6
REMARK    6  A    between atoms: C_5  and  C_8
REMARK    7  A    between atoms: C_6  and  C_7
REMARK    8  A    between atoms: C_8  and  N_9
REMARK                            x       y       z     vdW  Elec       q    Type
REMARK                         _______ _______ _______ _____ _____    ______ ____
ROOT
ATOM      1  N   UNL     1       3.588   5.733  19.622  0.00  0.00    +0.000 N 
ATOM      2  C   UNL     1       2.619   6.761  19.721  0.00  0.00    +0.000 A 
ATOM      3  C   UNL     1       1.846   6.923  20.884  0.00  0.00    +0.000 A 
ATOM      4  C   UNL     1       0.959   7.995  21.027  0.00  0.00    +0.000 A 
ATOM      5  C   UNL     1       0.809   8.918  19.997  0.00  0.00    +0.000 A 
ATOM      6  C   UNL     1       1.553   8.774  18.830  0.00  0.00    +0.000 A 
ATOM      7  C   UNL     1       2.466   7.718  18.695  0.00  0.00    +0.000 A 
ATOM      8  S   UNL     1       3.404   7.625  17.176  0.00  0.00    +0.000 S 
ATOM      9  C   UNL     1       4.842   6.736  17.756  0.00  0.00    +0.000 A 
ATOM     10  C   UNL     1       6.045   6.918  17.057  0.00  0.00    +0.000 A 
ATOM     11  C   UNL     1       7.210   6.288  17.484  0.00  0.00    +0.000 A 
ATOM     12  C   UNL     1       7.175   5.460  18.601  0.00  0.00    +0.000 A 
ATOM     13  C   UNL     1       5.974   5.255  19.283  0.00  0.00    +0.000 A 
ATOM     14  C   UNL     1       4.780   5.875  18.870  0.00  0.00    +0.000 A 
ENDROOT
BRANCH   1  15
ATOM     15  C   UNL     1       3.233   4.374  20.100  0.00  0.00    +0.000 C 
BRANCH  15  16
ATOM     16  C   UNL     1       2.152   3.675  19.230  0.00  0.00    +0.000 C 
BRANCH  16  17
ATOM     17  C   UNL     1       0.891   3.376  20.079  0.00  0.00    +0.000 C 
ATOM     18  C   UNL     1       1.153   2.937  21.515  0.00  0.00    +0.000 C 
ENDBRANCH  16  17
BRANCH  16  19
ATOM     19  C   UNL     1       2.706   2.420  18.508  0.00  0.00    +0.000 C 
BRANCH  19  20
ATOM     20  C   UNL     1       4.006   2.686  17.738  0.00  0.00    +0.000 C 
BRANCH  20  22
ATOM     21  C   UNL     1       5.065   3.775  15.736  0.00  0.00    +0.000 C 
ATOM     22  C   UNL     1       3.780   3.599  16.533  0.00  0.00    +0.000 C 
ENDBRANCH  20  22
ENDBRANCH  19  20
ENDBRANCH  16  19
ENDBRANCH  15  16
ENDBRANCH   1  15
TORSDOF 6
ENDMDL
MODEL 9
REMARK VINA RESULT:      -6.3      1.227      2.389
REMARK  Name = 
REMARK  8 active torsions:
REMARK  status: ('A' for Active; 'I' for Inactive)
REMARK    1  A    between atoms: C_1  and  C_2
REMARK    2  A    between atoms: C_2  and  C_3
REMARK    3  A    between atoms: C_3  and  C_4
REMARK    4  A    between atoms: C_4  and  C_5
REMARK    5  A    between atoms: C_5  and  C_6
REMARK    6  A    between atoms: C_5  and  C_8
REMARK    7  A    between atoms: C_6  and  C_7
REMARK    8  A    between atoms: C_8  and  N_9
REMARK                            x       y       z     vdW  Elec       q    Type
REMARK                         _______ _______ _______ _____ _____    ______ ____
ROOT
ATOM      1  N   UNL     1       3.115   6.097  17.813  0.00  0.00    +0.000 N 
ATOM      2  C   UNL     1       2.522   7.206  18.462  0.00  0.00    +0.000 A 
ATOM      3  C   UNL     1       2.292   8.413  17.778  0.00  0.00    +0.000 A 
ATOM      4  C   UNL     1       1.617   9.478  18.383  0.00  0.00    +0.000 A 
ATOM      5  C   UNL     1       1.176   9.367  19.698  0.00  0.00    +0.000 A 
ATOM      6  C   UNL     1       1.401   8.188  20.403  0.00  0.00    +0.000 A 
ATOM      7  C   UNL     1       2.050   7.107  19.789  0.00  0.00    +0.000 A 
ATOM      8  S   UNL     1       2.270   5.618  20.755  0.00  0.00    +0.000 S 
ATOM      9  C   UNL     1       2.365   4.410  19.442  0.00  0.00    +0.000 A 
ATOM     10  C   UNL     1       1.993   3.091  19.744  0.00  0.00    +0.000 A 
ATOM     11  C   UNL     1       2.004   2.111  18.754  0.00  0.00    +0.000 A 
ATOM     12  C   UNL     1       2.400   2.443  17.463  0.00  0.00    +0.000 A 
ATOM     13  C   UNL     1       2.795   3.749  17.164  0.00  0.00    +0.000 A 
ATOM     14  C   UNL     1       2.800   4.757  18.146  0.00  0.00    +0.000 A 
ENDROOT
BRANCH   1  15
ATOM     15  C   UNL     1       4.291   6.331  16.940  0.00  0.00    +0.000 C 
BRANCH  15  16
ATOM     16  C   UNL     1       5.593   5.662  17.462  0.00  0.00    +0.000 C 
BRANCH  16  17
ATOM     17  C   UNL     1       5.602   5.643  19.011  0.00  0.00    +0.000 C 
ATOM     18  C   UNL     1       5.922   4.297  19.650  0.00  0.00    +0.000 C 
ENDBRANCH  16  17
BRANCH  16  19
ATOM     19  C   UNL     1       6.865   6.309  16.857  0.00  0.00    +0.000 C 
BRANCH  19  20
ATOM     20  C   UNL     1       7.715   7.058  17.890  0.00  0.00    +0.000 C 
BRANCH  20  22
ATOM     21  C   UNL     1       8.705   9.264  18.576  0.00  0.00    +0.000 C 
ATOM     22  C   UNL     1       7.755   8.562  17.616  0.00  0.00    +0.000 C 
ENDBRANCH  20  22
ENDBRANCH  19  20
ENDBRANCH  16  19
ENDBRANCH  15  16
ENDBRANCH   1  15
TORSDOF 6
ENDMDL
