MODEL 1
REMARK VINA RESULT:      -7.6      0.000      0.000
REMARK  Name = 
REMARK  8 active torsions:
REMARK  status: ('A' for Active; 'I' for Inactive)
REMARK    1  A    between atoms: C_1  and  C_2
REMARK    2  A    between atoms: C_2  and  C_3
REMARK    3  A    between atoms: C_2  and  C_4
REMARK    4  A    between atoms: C_2  and  C_5
REMARK    5  A    between atoms: C_5  and  O_6
REMARK    6  A    between atoms: O_6  and  C_7
REMARK    7  A    between atoms: C_13  and  N_14
REMARK    8  A    between atoms: N_14  and  C_15
REMARK                            x       y       z     vdW  Elec       q    Type
REMARK                         _______ _______ _______ _____ _____    ______ ____
ROOT
ATOM      1  C   UNL     1       6.076   5.266  15.503  0.00  0.00    +0.000 C 
ATOM      2  O   UNL     1       7.363   4.706  15.812  0.00  0.00    +0.000 OA
ATOM      3  C   UNL     1       7.463   4.526  17.156  0.00  0.00    +0.000 C 
ATOM      4  O   UNL     1       8.453   4.112  17.732  0.00  0.00    +0.000 OA
ATOM      5  C   UNL     1       6.205   4.926  17.782  0.00  0.00    +0.000 C 
ATOM      6 CL   UNL     1       5.924   4.877  19.451  0.00  0.00    +0.000 Cl
ATOM      7  C   UNL     1       5.376   5.343  16.827  0.00  0.00    +0.000 C 
ENDROOT
BRANCH   7   8
ATOM      8  N   UNL     1       4.085   5.814  16.994  0.00  0.00    +0.000 N 
ATOM      9  H   UNL     1       4.055   6.823  17.138  0.00  0.00    +0.000 HD
BRANCH   8  10
ATOM     10  C   UNL     1       3.089   5.153  17.753  0.00  0.00    +0.000 A 
ATOM     11  C   UNL     1       2.604   5.663  18.967  0.00  0.00    +0.000 A 
ATOM     12  C   UNL     1       1.737   4.910  19.763  0.00  0.00    +0.000 A 
ATOM     13  C   UNL     1       1.372   3.632  19.360  0.00  0.00    +0.000 A 
ATOM     14  F   UNL     1       0.574   2.896  20.144  0.00  0.00    +0.000 F 
ATOM     15  C   UNL     1       1.842   3.101  18.168  0.00  0.00    +0.000 A 
ATOM     16  C   UNL     1       2.703   3.858  17.369  0.00  0.00    +0.000 A 
ENDBRANCH   8  10
ENDBRANCH   7   8
BRANCH   1  17
ATOM     17  O   UNL     1       5.403   4.434  14.565  0.00  0.00    +0.000 OA
BRANCH  17  18
ATOM     18  C   UNL     1       6.237   3.441  13.967  0.00  0.00    +0.000 C 
BRANCH  18  20
ATOM     19  C   UNL     1       4.701   3.815  11.988  0.00  0.00    +0.000 C 
ATOM     20  C   UNL     1       6.137   3.485  12.427  0.00  0.00    +0.000 C 
ATOM     21  C   UNL     1       6.550   2.128  11.837  0.00  0.00    +0.000 C 
ATOM     22  C   UNL     1       7.087   4.572  11.893  0.00  0.00    +0.000 C 
ENDBRANCH  18  20
ENDBRANCH  17  18
ENDBRANCH   1  17
TORSDOF 5
ENDMDL
MODEL 2
REMARK VINA RESULT:      -7.6      3.404      4.771
REMARK  Name = 
REMARK  8 active torsions:
REMARK  status: ('A' for Active; 'I' for Inactive)
REMARK    1  A    between atoms: C_1  and  C_2
REMARK    2  A    between atoms: C_2  and  C_3
REMARK    3  A    between atoms: C_2  and  C_4
REMARK    4  A    between atoms: C_2  and  C_5
REMARK    5  A    between atoms: C_5  and  O_6
REMARK    6  A    between atoms: O_6  and  C_7
REMARK    7  A    between atoms: C_13  and  N_14
REMARK    8  A    between atoms: N_14  and  C_15
REMARK                            x       y       z     vdW  Elec       q    Type
REMARK                         _______ _______ _______ _____ _____    ______ ____
ROOT
ATOM      1  C   UNL     1       4.422   4.155  18.980  0.00  0.00    +0.000 C 
ATOM      2  O   UNL     1       3.983   2.841  18.600  0.00  0.00    +0.000 OA
ATOM      3  C   UNL     1       2.710   2.648  19.041  0.00  0.00    +0.000 C 
ATOM      4  O   UNL     1       2.079   1.614  18.915  0.00  0.00    +0.000 OA
ATOM      5  C   UNL     1       2.247   3.868  19.696  0.00  0.00    +0.000 C 
ATOM      6 CL   UNL     1       0.717   4.036  20.404  0.00  0.00    +0.000 Cl
ATOM      7  C   UNL     1       3.228   4.767  19.652  0.00  0.00    +0.000 C 
ENDROOT
BRANCH   7   8
ATOM      8  N   UNL     1       3.202   6.052  20.166  0.00  0.00    +0.000 N 
ATOM      9  H   UNL     1       3.161   6.063  21.185  0.00  0.00    +0.000 HD
BRANCH   8  10
ATOM     10  C   UNL     1       2.456   7.117  19.607  0.00  0.00    +0.000 A 
ATOM     11  C   UNL     1       2.612   7.529  18.275  0.00  0.00    +0.000 A 
ATOM     12  C   UNL     1       1.974   8.678  17.802  0.00  0.00    +0.000 A 
ATOM     13  C   UNL     1       1.196   9.436  18.668  0.00  0.00    +0.000 A 
ATOM     14  F   UNL     1       0.619  10.560  18.224  0.00  0.00    +0.000 F 
ATOM     15  C   UNL     1       1.030   9.055  19.992  0.00  0.00    +0.000 A 
ATOM     16  C   UNL     1       1.663   7.901  20.461  0.00  0.00    +0.000 A 
ENDBRANCH   8  10
ENDBRANCH   7   8
BRANCH   1  17
ATOM     17  O   UNL     1       4.839   4.874  17.826  0.00  0.00    +0.000 OA
BRANCH  17  18
ATOM     18  C   UNL     1       5.136   4.044  16.702  0.00  0.00    +0.000 C 
BRANCH  18  20
ATOM     19  C   UNL     1       7.335   4.908  15.787  0.00  0.00    +0.000 C 
ATOM     20  C   UNL     1       5.813   4.856  15.576  0.00  0.00    +0.000 C 
ATOM     21  C   UNL     1       5.253   6.286  15.552  0.00  0.00    +0.000 C 
ATOM     22  C   UNL     1       5.517   4.181  14.225  0.00  0.00    +0.000 C 
ENDBRANCH  18  20
ENDBRANCH  17  18
ENDBRANCH   1  17
TORSDOF 5
ENDMDL
MODEL 3
REMARK VINA RESULT:      -7.5      1.380      1.885
REMARK  Name = 
REMARK  8 active torsions:
REMARK  status: ('A' for Active; 'I' for Inactive)
REMARK    1  A    between atoms: C_1  and  C_2
REMARK    2  A    between atoms: C_2  and  C_3
REMARK    3  A    between atoms: C_2  and  C_4
REMARK    4  A    between atoms: C_2  and  C_5
REMARK    5  A    between atoms: C_5  and  O_6
REMARK    6  A    between atoms: O_6  and  C_7
REMARK    7  A    between atoms: C_13  and  N_14
REMARK    8  A    between atoms: N_14  and  C_15
REMARK                            x       y       z     vdW  Elec       q    Type
REMARK                         _______ _______ _______ _____ _____    ______ ____
ROOT
ATOM      1  C   UNL     1       5.738   4.855  15.272  0.00  0.00    +0.000 C 
ATOM      2  O   UNL     1       6.527   6.054  15.338  0.00  0.00    +0.000 OA
ATOM      3  C   UNL     1       6.848   6.308  16.635  0.00  0.00    +0.000 C 
ATOM      4  O   UNL     1       7.470   7.282  17.020  0.00  0.00    +0.000 OA
ATOM      5  C   UNL     1       6.310   5.241  17.474  0.00  0.00    +0.000 C 
ATOM      6 CL   UNL     1       6.471   5.192  19.159  0.00  0.00    +0.000 Cl
ATOM      7  C   UNL     1       5.674   4.372  16.690  0.00  0.00    +0.000 C 
ENDROOT
BRANCH   7   8
ATOM      8  N   UNL     1       5.017   3.220  17.088  0.00  0.00    +0.000 N 
ATOM      9  H   UNL     1       5.045   2.491  16.376  0.00  0.00    +0.000 HD
BRANCH   8  10
ATOM     10  C   UNL     1       3.790   3.207  17.794  0.00  0.00    +0.000 A 
ATOM     11  C   UNL     1       2.640   3.854  17.318  0.00  0.00    +0.000 A 
ATOM     12  C   UNL     1       1.494   3.952  18.111  0.00  0.00    +0.000 A 
ATOM     13  C   UNL     1       1.502   3.424  19.395  0.00  0.00    +0.000 A 
ATOM     14  F   UNL     1       0.418   3.554  20.170  0.00  0.00    +0.000 F 
ATOM     15  C   UNL     1       2.629   2.784  19.894  0.00  0.00    +0.000 A 
ATOM     16  C   UNL     1       3.771   2.682  19.097  0.00  0.00    +0.000 A 
ENDBRANCH   8  10
ENDBRANCH   7   8
BRANCH   1  17
ATOM     17  O   UNL     1       6.355   3.921  14.394  0.00  0.00    +0.000 OA
BRANCH  17  18
ATOM     18  C   UNL     1       5.431   3.136  13.640  0.00  0.00    +0.000 C 
BRANCH  18  20
ATOM     19  C   UNL     1       6.935   4.143  11.868  0.00  0.00    +0.000 C 
ATOM     20  C   UNL     1       5.746   3.206  12.129  0.00  0.00    +0.000 C 
ATOM     21  C   UNL     1       4.516   3.717  11.362  0.00  0.00    +0.000 C 
ATOM     22  C   UNL     1       6.098   1.795  11.625  0.00  0.00    +0.000 C 
ENDBRANCH  18  20
ENDBRANCH  17  18
ENDBRANCH   1  17
TORSDOF 5
ENDMDL
MODEL 4
REMARK VINA RESULT:      -7.5      3.159      6.417
REMARK  Name = 
REMARK  8 active torsions:
REMARK  status: ('A' for Active; 'I' for Inactive)
REMARK    1  A    between atoms: C_1  and  C_2
REMARK    2  A    between atoms: C_2  and  C_3
REMARK    3  A    between atoms: C_2  and  C_4
REMARK    4  A    between atoms: C_2  and  C_5
REMARK    5  A    between atoms: C_5  and  O_6
REMARK    6  A    between atoms: O_6  and  C_7
REMARK    7  A    between atoms: C_13  and  N_14
REMARK    8  A    between atoms: N_14  and  C_15
REMARK                            x       y       z     vdW  Elec       q    Type
REMARK                         _______ _______ _______ _____ _____    ______ ____
ROOT
ATOM      1  C   UNL     1       5.265   4.100  18.090  0.00  0.00    +0.000 C 
ATOM      2  O   UNL     1       5.920   4.210  19.364  0.00  0.00    +0.000 OA
ATOM      3  C   UNL     1       6.803   5.243  19.327  0.00  0.00    +0.000 C 
ATOM      4  O   UNL     1       7.545   5.558  20.240  0.00  0.00    +0.000 OA
ATOM      5  C   UNL     1       6.724   5.887  18.019  0.00  0.00    +0.000 C 
ATOM      6 CL   UNL     1       7.679   7.207  17.556  0.00  0.00    +0.000 Cl
ATOM      7  C   UNL     1       5.814   5.243  17.289  0.00  0.00    +0.000 C 
ENDROOT
BRANCH   7   8
ATOM      8  N   UNL     1       5.439   5.530  15.988  0.00  0.00    +0.000 N 
ATOM      9  H   UNL     1       4.428   5.611  15.884  0.00  0.00    +0.000 HD
BRANCH   8  10
ATOM     10  C   UNL     1       6.031   4.946  14.842  0.00  0.00    +0.000 A 
ATOM     11  C   UNL     1       7.255   5.389  14.317  0.00  0.00    +0.000 A 
ATOM     12  C   UNL     1       7.732   4.896  13.101  0.00  0.00    +0.000 A 
ATOM     13  C   UNL     1       6.975   3.975  12.390  0.00  0.00    +0.000 A 
ATOM     14  F   UNL     1       7.414   3.533  11.204  0.00  0.00    +0.000 F 
ATOM     15  C   UNL     1       5.758   3.524  12.882  0.00  0.00    +0.000 A 
ATOM     16  C   UNL     1       5.285   4.013  14.102  0.00  0.00    +0.000 A 
ENDBRANCH   8  10
ENDBRANCH   7   8
BRANCH   1  17
ATOM     17  O   UNL     1       3.855   4.172  18.266  0.00  0.00    +0.000 OA
BRANCH  17  18
ATOM     18  C   UNL     1       3.302   3.061  18.973  0.00  0.00    +0.000 C 
BRANCH  18  20
ATOM     19  C   UNL     1       0.811   2.980  19.426  0.00  0.00    +0.000 C 
ATOM     20  C   UNL     1       2.167   3.513  19.917  0.00  0.00    +0.000 C 
ATOM     21  C   UNL     1       2.118   5.047  19.980  0.00  0.00    +0.000 C 
ATOM     22  C   UNL     1       2.440   2.963  21.329  0.00  0.00    +0.000 C 
ENDBRANCH  18  20
ENDBRANCH  17  18
ENDBRANCH   1  17
TORSDOF 5
ENDMDL
MODEL 5
REMARK VINA RESULT:      -7.5      1.413      1.960
REMARK  Name = 
REMARK  8 active torsions:
REMARK  status: ('A' for Active; 'I' for Inactive)
REMARK    1  A    between atoms: C_1  and  C_2
REMARK    2  A    between atoms: C_2  and  C_3
REMARK    3  A    between atoms: C_2  and  C_4
REMARK    4  A    between atoms: C_2  and  C_5
REMARK    5  A    between atoms: C_5  and  O_6
REMARK    6  A    between atoms: O_6  and  C_7
REMARK    7  A    between atoms: C_13  and  N_14
REMARK    8  A    between atoms: N_14  and  C_15
REMARK                            x       y       z     vdW  Elec       q    Type
REMARK                         _______ _______ _______ _____ _____    ______ ____
ROOT
ATOM      1  C   UNL     1       5.745   4.798  15.198  0.00  0.00    +0.000 C 
ATOM      2  O   UNL     1       6.562   5.979  15.239  0.00  0.00    +0.000 OA
ATOM      3  C   UNL     1       6.964   6.203  16.519  0.00  0.00    +0.000 C 
ATOM      4  O   UNL     1       7.628   7.156  16.884  0.00  0.00    +0.000 OA
ATOM      5  C   UNL     1       6.452   5.132  17.369  0.00  0.00    +0.000 C 
ATOM      6 CL   UNL     1       6.710   5.049  19.041  0.00  0.00    +0.000 Cl
ATOM      7  C   UNL     1       5.753   4.290  16.609  0.00  0.00    +0.000 C 
ENDROOT
BRANCH   7   8
ATOM      8  N   UNL     1       5.096   3.145  17.025  0.00  0.00    +0.000 N 
ATOM      9  H   UNL     1       5.095   2.417  16.311  0.00  0.00    +0.000 HD
BRANCH   8  10
ATOM     10  C   UNL     1       3.890   3.145  17.766  0.00  0.00    +0.000 A 
ATOM     11  C   UNL     1       3.583   2.150  18.707  0.00  0.00    +0.000 A 
ATOM     12  C   UNL     1       2.322   2.095  19.305  0.00  0.00    +0.000 A 
ATOM     13  C   UNL     1       1.353   3.022  18.947  0.00  0.00    +0.000 A 
ATOM     14  F   UNL     1       0.132   2.945  19.491  0.00  0.00    +0.000 F 
ATOM     15  C   UNL     1       1.627   4.014  18.015  0.00  0.00    +0.000 A 
ATOM     16  C   UNL     1       2.891   4.070  17.423  0.00  0.00    +0.000 A 
ENDBRANCH   8  10
ENDBRANCH   7   8
BRANCH   1  17
ATOM     17  O   UNL     1       6.291   3.868  14.270  0.00  0.00    +0.000 OA
BRANCH  17  18
ATOM     18  C   UNL     1       5.308   3.170  13.503  0.00  0.00    +0.000 C 
BRANCH  18  20
ATOM     19  C   UNL     1       6.895   4.063  11.742  0.00  0.00    +0.000 C 
ATOM     20  C   UNL     1       5.670   3.172  12.002  0.00  0.00    +0.000 C 
ATOM     21  C   UNL     1       4.480   3.690  11.178  0.00  0.00    +0.000 C 
ATOM     22  C   UNL     1       5.993   1.733  11.563  0.00  0.00    +0.000 C 
ENDBRANCH  18  20
ENDBRANCH  17  18
ENDBRANCH   1  17
TORSDOF 5
ENDMDL
MODEL 6
REMARK VINA RESULT:      -7.4      1.408      1.820
REMARK  Name = 
REMARK  8 active torsions:
REMARK  status: ('A' for Active; 'I' for Inactive)
REMARK    1  A    between atoms: C_1  and  C_2
REMARK    2  A    between atoms: C_2  and  C_3
REMARK    3  A    between atoms: C_2  and  C_4
REMARK    4  A    between atoms: C_2  and  C_5
REMARK    5  A    between atoms: C_5  and  O_6
REMARK    6  A    between atoms: O_6  and  C_7
REMARK    7  A    between atoms: C_13  and  N_14
REMARK    8  A    between atoms: N_14  and  C_15
REMARK                            x       y       z     vdW  Elec       q    Type
REMARK                         _______ _______ _______ _____ _____    ______ ____
ROOT
ATOM      1  C   UNL     1       5.704   4.861  15.276  0.00  0.00    +0.000 C 
ATOM      2  O   UNL     1       6.529   6.037  15.304  0.00  0.00    +0.000 OA
ATOM      3  C   UNL     1       6.908   6.289  16.587  0.00  0.00    +0.000 C 
ATOM      4  O   UNL     1       7.572   7.246  16.941  0.00  0.00    +0.000 OA
ATOM      5  C   UNL     1       6.372   5.242  17.452  0.00  0.00    +0.000 C 
ATOM      6 CL   UNL     1       6.597   5.198  19.130  0.00  0.00    +0.000 Cl
ATOM      7  C   UNL     1       5.681   4.388  16.699  0.00  0.00    +0.000 C 
ENDROOT
BRANCH   7   8
ATOM      8  N   UNL     1       5.008   3.258  17.130  0.00  0.00    +0.000 N 
ATOM      9  H   UNL     1       4.920   2.554  16.397  0.00  0.00    +0.000 HD
BRANCH   8  10
ATOM     10  C   UNL     1       3.863   3.283  17.962  0.00  0.00    +0.000 A 
ATOM     11  C   UNL     1       3.834   2.672  19.225  0.00  0.00    +0.000 A 
ATOM     12  C   UNL     1       2.644   2.583  19.950  0.00  0.00    +0.000 A 
ATOM     13  C   UNL     1       1.470   3.083  19.404  0.00  0.00    +0.000 A 
ATOM     14  F   UNL     1       0.322   2.961  20.082  0.00  0.00    +0.000 F 
ATOM     15  C   UNL     1       1.467   3.687  18.154  0.00  0.00    +0.000 A 
ATOM     16  C   UNL     1       2.660   3.781  17.433  0.00  0.00    +0.000 A 
ENDBRANCH   8  10
ENDBRANCH   7   8
BRANCH   1  17
ATOM     17  O   UNL     1       6.260   3.905  14.381  0.00  0.00    +0.000 OA
BRANCH  17  18
ATOM     18  C   UNL     1       5.289   3.218  13.591  0.00  0.00    +0.000 C 
BRANCH  18  20
ATOM     19  C   UNL     1       6.037   1.782  11.643  0.00  0.00    +0.000 C 
ATOM     20  C   UNL     1       5.691   3.208  12.100  0.00  0.00    +0.000 C 
ATOM     21  C   UNL     1       6.907   4.122  11.881  0.00  0.00    +0.000 C 
ATOM     22  C   UNL     1       4.514   3.733  11.260  0.00  0.00    +0.000 C 
ENDBRANCH  18  20
ENDBRANCH  17  18
ENDBRANCH   1  17
TORSDOF 5
ENDMDL
MODEL 7
REMARK VINA RESULT:      -7.4      3.445      5.095
REMARK  Name = 
REMARK  8 active torsions:
REMARK  status: ('A' for Active; 'I' for Inactive)
REMARK    1  A    between atoms: C_1  and  C_2
REMARK    2  A    between atoms: C_2  and  C_3
REMARK    3  A    between atoms: C_2  and  C_4
REMARK    4  A    between atoms: C_2  and  C_5
REMARK    5  A    between atoms: C_5  and  O_6
REMARK    6  A    between atoms: O_6  and  C_7
REMARK    7  A    between atoms: C_13  and  N_14
REMARK    8  A    between atoms: N_14  and  C_15
REMARK                            x       y       z     vdW  Elec       q    Type
REMARK                         _______ _______ _______ _____ _____    ______ ____
ROOT
ATOM      1  C   UNL     1       4.365   3.828  19.064  0.00  0.00    +0.000 C 
ATOM      2  O   UNL     1       3.794   2.545  18.764  0.00  0.00    +0.000 OA
ATOM      3  C   UNL     1       2.501   2.519  19.184  0.00  0.00    +0.000 C 
ATOM      4  O   UNL     1       1.765   1.551  19.113  0.00  0.00    +0.000 OA
ATOM      5  C   UNL     1       2.159   3.824  19.742  0.00  0.00    +0.000 C 
ATOM      6 CL   UNL     1       0.644   4.203  20.398  0.00  0.00    +0.000 Cl
ATOM      7  C   UNL     1       3.232   4.609  19.662  0.00  0.00    +0.000 C 
ENDROOT
BRANCH   7   8
ATOM      8  N   UNL     1       3.334   5.923  20.086  0.00  0.00    +0.000 N 
ATOM      9  H   UNL     1       3.442   5.998  21.097  0.00  0.00    +0.000 HD
BRANCH   8  10
ATOM     10  C   UNL     1       2.560   6.988  19.568  0.00  0.00    +0.000 A 
ATOM     11  C   UNL     1       2.673   7.427  18.240  0.00  0.00    +0.000 A 
ATOM     12  C   UNL     1       2.009   8.577  17.807  0.00  0.00    +0.000 A 
ATOM     13  C   UNL     1       1.247   9.309  18.708  0.00  0.00    +0.000 A 
ATOM     14  F   UNL     1       0.644  10.433  18.302  0.00  0.00    +0.000 F 
ATOM     15  C   UNL     1       1.123   8.902  20.029  0.00  0.00    +0.000 A 
ATOM     16  C   UNL     1       1.783   7.747  20.458  0.00  0.00    +0.000 A 
ENDBRANCH   8  10
ENDBRANCH   7   8
BRANCH   1  17
ATOM     17  O   UNL     1       4.877   4.417  17.874  0.00  0.00    +0.000 OA
BRANCH  17  18
ATOM     18  C   UNL     1       6.157   5.029  18.036  0.00  0.00    +0.000 C 
BRANCH  18  20
ATOM     19  C   UNL     1       7.249   5.051  15.750  0.00  0.00    +0.000 C 
ATOM     20  C   UNL     1       6.519   5.894  16.808  0.00  0.00    +0.000 C 
ATOM     21  C   UNL     1       7.419   7.062  17.238  0.00  0.00    +0.000 C 
ATOM     22  C   UNL     1       5.225   6.459  16.195  0.00  0.00    +0.000 C 
ENDBRANCH  18  20
ENDBRANCH  17  18
ENDBRANCH   1  17
TORSDOF 5
ENDMDL
MODEL 8
REMARK VINA RESULT:      -7.4      3.128      6.426
REMARK  Name = 
REMARK  8 active torsions:
REMARK  status: ('A' for Active; 'I' for Inactive)
REMARK    1  A    between atoms: C_1  and  C_2
REMARK    2  A    between atoms: C_2  and  C_3
REMARK    3  A    between atoms: C_2  and  C_4
REMARK    4  A    between atoms: C_2  and  C_5
REMARK    5  A    between atoms: C_5  and  O_6
REMARK    6  A    between atoms: O_6  and  C_7
REMARK    7  A    between atoms: C_13  and  N_14
REMARK    8  A    between atoms: N_14  and  C_15
REMARK                            x       y       z     vdW  Elec       q    Type
REMARK                         _______ _______ _______ _____ _____    ______ ____
ROOT
ATOM      1  C   UNL     1       5.229   4.052  18.099  0.00  0.00    +0.000 C 
ATOM      2  O   UNL     1       5.970   4.122  19.328  0.00  0.00    +0.000 OA
ATOM      3  C   UNL     1       6.785   5.211  19.298  0.00  0.00    +0.000 C 
ATOM      4  O   UNL     1       7.574   5.514  20.175  0.00  0.00    +0.000 OA
ATOM      5  C   UNL     1       6.569   5.930  18.046  0.00  0.00    +0.000 C 
ATOM      6 CL   UNL     1       7.406   7.336  17.608  0.00  0.00    +0.000 Cl
ATOM      7  C   UNL     1       5.647   5.277  17.341  0.00  0.00    +0.000 C 
ENDROOT
BRANCH   7   8
ATOM      8  N   UNL     1       5.158   5.620  16.092  0.00  0.00    +0.000 N 
ATOM      9  H   UNL     1       4.140   5.684  16.077  0.00  0.00    +0.000 HD
BRANCH   8  10
ATOM     10  C   UNL     1       5.662   5.109  14.872  0.00  0.00    +0.000 A 
ATOM     11  C   UNL     1       4.970   4.157  14.110  0.00  0.00    +0.000 A 
ATOM     12  C   UNL     1       5.565   3.562  12.995  0.00  0.00    +0.000 A 
ATOM     13  C   UNL     1       6.868   3.899  12.652  0.00  0.00    +0.000 A 
ATOM     14  F   UNL     1       7.452   3.298  11.608  0.00  0.00    +0.000 F 
ATOM     15  C   UNL     1       7.579   4.834  13.392  0.00  0.00    +0.000 A 
ATOM     16  C   UNL     1       6.978   5.432  14.503  0.00  0.00    +0.000 A 
ENDBRANCH   8  10
ENDBRANCH   7   8
BRANCH   1  17
ATOM     17  O   UNL     1       3.834   4.021  18.380  0.00  0.00    +0.000 OA
BRANCH  17  18
ATOM     18  C   UNL     1       3.487   3.201  19.496  0.00  0.00    +0.000 C 
BRANCH  18  20
ATOM     19  C   UNL     1       0.956   3.309  19.481  0.00  0.00    +0.000 C 
ATOM     20  C   UNL     1       2.233   3.745  20.216  0.00  0.00    +0.000 C 
ATOM     21  C   UNL     1       2.288   5.280  20.275  0.00  0.00    +0.000 C 
ATOM     22  C   UNL     1       2.200   3.191  21.651  0.00  0.00    +0.000 C 
ENDBRANCH  18  20
ENDBRANCH  17  18
ENDBRANCH   1  17
TORSDOF 5
ENDMDL
MODEL 9
REMARK VINA RESULT:      -7.4      3.378      4.956
REMARK  Name = 
REMARK  8 active torsions:
REMARK  status: ('A' for Active; 'I' for Inactive)
REMARK    1  A    between atoms: C_1  and  C_2
REMARK    2  A    between atoms: C_2  and  C_3
REMARK    3  A    between atoms: C_2  and  C_4
REMARK    4  A    between atoms: C_2  and  C_5
REMARK    5  A    between atoms: C_5  and  O_6
REMARK    6  A    between atoms: O_6  and  C_7
REMARK    7  A    between atoms: C_13  and  N_14
REMARK    8  A    between atoms: N_14  and  C_15
REMARK                            x       y       z     vdW  Elec       q    Type
REMARK                         _______ _______ _______ _____ _____    ______ ____
ROOT
ATOM      1  C   UNL     1       4.668   4.558  19.569  0.00  0.00    +0.000 C 
ATOM      2  O   UNL     1       4.667   3.302  18.871  0.00  0.00    +0.000 OA
ATOM      3  C   UNL     1       3.394   2.829  18.799  0.00  0.00    +0.000 C 
ATOM      4  O   UNL     1       3.074   1.761  18.309  0.00  0.00    +0.000 OA
ATOM      5  C   UNL     1       2.494   3.798  19.419  0.00  0.00    +0.000 C 
ATOM      6 CL   UNL     1       0.820   3.579  19.556  0.00  0.00    +0.000 Cl
ATOM      7  C   UNL     1       3.220   4.825  19.857  0.00  0.00    +0.000 C 
ENDROOT
BRANCH   7   8
ATOM      8  N   UNL     1       2.755   5.953  20.510  0.00  0.00    +0.000 N 
ATOM      9  H   UNL     1       2.254   5.727  21.369  0.00  0.00    +0.000 HD
BRANCH   8  10
ATOM     10  C   UNL     1       2.183   7.072  19.857  0.00  0.00    +0.000 A 
ATOM     11  C   UNL     1       2.440   7.371  18.511  0.00  0.00    +0.000 A 
ATOM     12  C   UNL     1       1.984   8.563  17.943  0.00  0.00    +0.000 A 
ATOM     13  C   UNL     1       1.291   9.475  18.728  0.00  0.00    +0.000 A 
ATOM     14  F   UNL     1       0.890  10.635  18.194  0.00  0.00    +0.000 F 
ATOM     15  C   UNL     1       1.028   9.207  20.065  0.00  0.00    +0.000 A 
ATOM     16  C   UNL     1       1.479   8.011  20.628  0.00  0.00    +0.000 A 
ENDBRANCH   8  10
ENDBRANCH   7   8
BRANCH   1  17
ATOM     17  O   UNL     1       5.267   5.560  18.756  0.00  0.00    +0.000 OA
BRANCH  17  18
ATOM     18  C   UNL     1       5.386   5.194  17.380  0.00  0.00    +0.000 C 
BRANCH  18  20
ATOM     19  C   UNL     1       6.920   5.118  15.365  0.00  0.00    +0.000 C 
ATOM     20  C   UNL     1       6.830   5.403  16.873  0.00  0.00    +0.000 C 
ATOM     21  C   UNL     1       7.789   4.468  17.626  0.00  0.00    +0.000 C 
ATOM     22  C   UNL     1       7.246   6.861  17.134  0.00  0.00    +0.000 C 
ENDBRANCH  18  20
ENDBRANCH  17  18
ENDBRANCH   1  17
TORSDOF 5
ENDMDL
