MODEL 1
REMARK VINA RESULT:      -8.0      0.000      0.000
REMARK  Name = 
REMARK  5 active torsions:
REMARK  status: ('A' for Active; 'I' for Inactive)
REMARK    1  A    between atoms: C_4  and  C_5
REMARK    2  A    between atoms: C_9  and  N_10
REMARK    3  A    between atoms: N_16  and  C_17
REMARK    4  A    between atoms: C_22  and  C_23
REMARK    5  A    between atoms: C_23  and  O_24
REMARK                            x       y       z     vdW  Elec       q    Type
REMARK                         _______ _______ _______ _____ _____    ______ ____
ROOT
ATOM      1  O   UNL     1       1.112   8.172  21.404  0.00  0.00    +0.000 OA
ATOM      2  C   UNL     1       1.525   8.261  20.248  0.00  0.00    +0.000 C 
ATOM      3  N   UNL     1       2.324   7.258  19.748  0.00  0.00    +0.000 N 
ATOM      4  C   UNL     1       2.757   7.168  18.458  0.00  0.00    +0.000 C 
ATOM      5  C   UNL     1       2.581   8.205  17.635  0.00  0.00    +0.000 C 
ATOM      6  C   UNL     1       2.015   9.482  18.144  0.00  0.00    +0.000 C 
ATOM      7  N   UNL     1       1.222   9.289  19.356  0.00  0.00    +0.000 N 
ATOM      8  H   UNL     1       2.502   6.498  20.393  0.00  0.00    +0.000 HD
ENDROOT
BRANCH   4   9
ATOM      9  C   UNL     1       3.402   5.936  18.008  0.00  0.00    +0.000 A 
ATOM     10  C   UNL     1       2.638   4.800  17.703  0.00  0.00    +0.000 A 
ATOM     11  C   UNL     1       3.258   3.615  17.299  0.00  0.00    +0.000 A 
ATOM     12  C   UNL     1       4.647   3.554  17.196  0.00  0.00    +0.000 A 
ATOM     13  C   UNL     1       5.411   4.688  17.504  0.00  0.00    +0.000 A 
ATOM     14  C   UNL     1       4.797   5.880  17.909  0.00  0.00    +0.000 A 
BRANCH  13  15
ATOM     15  N   UNL     1       6.876   4.626  17.409  0.00  0.00    +0.000 N 
ATOM     16  O   UNL     1       7.519   4.540  18.464  0.00  0.00    +0.000 OA
ATOM     17  O   UNL     1       7.382   4.665  16.277  0.00  0.00    +0.000 OA
ENDBRANCH  13  15
ENDBRANCH   4   9
BRANCH   7  18
ATOM     18  C   UNL     1       0.385  10.377  19.769  0.00  0.00    +0.000 A 
ATOM     19  C   UNL     1       0.829  11.202  20.821  0.00  0.00    +0.000 A 
ATOM     20  C   UNL     1       0.074  12.285  21.266  0.00  0.00    +0.000 A 
ATOM     21  C   UNL     1      -1.138  12.575  20.662  0.00  0.00    +0.000 A 
ATOM     22  C   UNL     1      -1.592  11.777  19.613  0.00  0.00    +0.000 A 
ATOM     23  C   UNL     1      -0.845  10.673  19.145  0.00  0.00    +0.000 A 
BRANCH  23  24
ATOM     24  C   UNL     1      -1.377   9.960  17.926  0.00  0.00    +0.000 C 
BRANCH  24  25
ATOM     25  O   UNL     1      -1.649  10.892  16.888  0.00  0.00    +0.000 OA
ATOM     26  H   UNL     1      -0.911  11.531  16.921  0.00  0.00    +0.000 HD
ENDBRANCH  24  25
ENDBRANCH  23  24
ENDBRANCH   7  18
TORSDOF 5
ENDMDL
MODEL 2
REMARK VINA RESULT:      -7.9      2.023      2.237
REMARK  Name = 
REMARK  5 active torsions:
REMARK  status: ('A' for Active; 'I' for Inactive)
REMARK    1  A    between atoms: C_4  and  C_5
REMARK    2  A    between atoms: C_9  and  N_10
REMARK    3  A    between atoms: N_16  and  C_17
REMARK    4  A    between atoms: C_22  and  C_23
REMARK    5  A    between atoms: C_23  and  O_24
REMARK                            x       y       z     vdW  Elec       q    Type
REMARK                         _______ _______ _______ _____ _____    ______ ____
ROOT
ATOM      1  O   UNL     1       0.943   8.417  21.456  0.00  0.00    +0.000 OA
ATOM      2  C   UNL     1       1.339   8.550  20.298  0.00  0.00    +0.000 C 
ATOM      3  N   UNL     1       2.130   7.566  19.749  0.00  0.00    +0.000 N 
ATOM      4  C   UNL     1       2.543   7.525  18.450  0.00  0.00    +0.000 C 
ATOM      5  C   UNL     1       2.355   8.592  17.669  0.00  0.00    +0.000 C 
ATOM      6  C   UNL     1       1.798   9.849  18.235  0.00  0.00    +0.000 C 
ATOM      7  N   UNL     1       1.023   9.611  19.450  0.00  0.00    +0.000 N 
ATOM      8  H   UNL     1       2.316   6.782  20.362  0.00  0.00    +0.000 HD
ENDROOT
BRANCH   4   9
ATOM      9  C   UNL     1       3.180   6.310  17.944  0.00  0.00    +0.000 A 
ATOM     10  C   UNL     1       4.375   6.382  17.213  0.00  0.00    +0.000 A 
ATOM     11  C   UNL     1       4.968   5.222  16.707  0.00  0.00    +0.000 A 
ATOM     12  C   UNL     1       4.373   3.981  16.927  0.00  0.00    +0.000 A 
ATOM     13  C   UNL     1       3.177   3.909  17.655  0.00  0.00    +0.000 A 
ATOM     14  C   UNL     1       2.576   5.067  18.166  0.00  0.00    +0.000 A 
BRANCH  13  15
ATOM     15  N   UNL     1       2.540   2.605  17.880  0.00  0.00    +0.000 N 
ATOM     16  O   UNL     1       3.273   1.608  17.941  0.00  0.00    +0.000 OA
ATOM     17  O   UNL     1       1.305   2.579  17.994  0.00  0.00    +0.000 OA
ENDBRANCH  13  15
ENDBRANCH   4   9
BRANCH   7  18
ATOM     18  C   UNL     1       0.194  10.682  19.917  0.00  0.00    +0.000 A 
ATOM     19  C   UNL     1       0.714  11.558  20.890  0.00  0.00    +0.000 A 
ATOM     20  C   UNL     1      -0.031  12.629  21.380  0.00  0.00    +0.000 A 
ATOM     21  C   UNL     1      -1.310  12.855  20.900  0.00  0.00    +0.000 A 
ATOM     22  C   UNL     1      -1.841  12.007  19.929  0.00  0.00    +0.000 A 
ATOM     23  C   UNL     1      -1.105  10.914  19.419  0.00  0.00    +0.000 A 
BRANCH  23  24
ATOM     24  C   UNL     1      -1.735  10.141  18.286  0.00  0.00    +0.000 C 
BRANCH  24  25
ATOM     25  O   UNL     1      -1.571  10.841  17.059  0.00  0.00    +0.000 OA
ATOM     26  H   UNL     1      -2.233  10.452  16.455  0.00  0.00    +0.000 HD
ENDBRANCH  24  25
ENDBRANCH  23  24
ENDBRANCH   7  18
TORSDOF 5
ENDMDL
MODEL 3
REMARK VINA RESULT:      -7.9      2.613      2.962
REMARK  Name = 
REMARK  5 active torsions:
REMARK  status: ('A' for Active; 'I' for Inactive)
REMARK    1  A    between atoms: C_4  and  C_5
REMARK    2  A    between atoms: C_9  and  N_10
REMARK    3  A    between atoms: N_16  and  C_17
REMARK    4  A    between atoms: C_22  and  C_23
REMARK    5  A    between atoms: C_23  and  O_24
REMARK                            x       y       z     vdW  Elec       q    Type
REMARK                         _______ _______ _______ _____ _____    ______ ____
ROOT
ATOM      1  O   UNL     1       0.921   9.465  21.352  0.00  0.00    +0.000 OA
ATOM      2  C   UNL     1       1.344   9.075  20.264  0.00  0.00    +0.000 C 
ATOM      3  N   UNL     1       1.908   7.823  20.179  0.00  0.00    +0.000 N 
ATOM      4  C   UNL     1       2.311   7.220  19.025  0.00  0.00    +0.000 C 
ATOM      5  C   UNL     1       2.363   7.933  17.897  0.00  0.00    +0.000 C 
ATOM      6  C   UNL     1       2.085   9.393  17.917  0.00  0.00    +0.000 C 
ATOM      7  N   UNL     1       1.268   9.783  19.064  0.00  0.00    +0.000 N 
ATOM      8  H   UNL     1       1.918   7.304  21.049  0.00  0.00    +0.000 HD
ENDROOT
BRANCH   4   9
ATOM      9  C   UNL     1       2.677   5.804  19.051  0.00  0.00    +0.000 A 
ATOM     10  C   UNL     1       3.364   5.224  17.976  0.00  0.00    +0.000 A 
ATOM     11  C   UNL     1       3.688   3.864  17.991  0.00  0.00    +0.000 A 
ATOM     12  C   UNL     1       3.329   3.073  19.081  0.00  0.00    +0.000 A 
ATOM     13  C   UNL     1       2.639   3.653  20.155  0.00  0.00    +0.000 A 
ATOM     14  C   UNL     1       2.311   5.015  20.148  0.00  0.00    +0.000 A 
BRANCH  13  15
ATOM     15  N   UNL     1       2.248   2.821  21.301  0.00  0.00    +0.000 N 
ATOM     16  O   UNL     1       1.040   2.727  21.559  0.00  0.00    +0.000 OA
ATOM     17  O   UNL     1       3.151   2.264  21.944  0.00  0.00    +0.000 OA
ENDBRANCH  13  15
ENDBRANCH   4   9
BRANCH   7  18
ATOM     18  C   UNL     1       0.685  11.091  19.037  0.00  0.00    +0.000 A 
ATOM     19  C   UNL     1       1.511  12.200  19.310  0.00  0.00    +0.000 A 
ATOM     20  C   UNL     1       1.015  13.502  19.288  0.00  0.00    +0.000 A 
ATOM     21  C   UNL     1      -0.317  13.726  18.981  0.00  0.00    +0.000 A 
ATOM     22  C   UNL     1      -1.150  12.645  18.698  0.00  0.00    +0.000 A 
ATOM     23  C   UNL     1      -0.670  11.316  18.716  0.00  0.00    +0.000 A 
BRANCH  23  24
ATOM     24  C   UNL     1      -1.632  10.241  18.274  0.00  0.00    +0.000 C 
BRANCH  24  25
ATOM     25  O   UNL     1      -1.493   9.996  16.880  0.00  0.00    +0.000 OA
ATOM     26  H   UNL     1      -0.552  10.170  16.685  0.00  0.00    +0.000 HD
ENDBRANCH  24  25
ENDBRANCH  23  24
ENDBRANCH   7  18
TORSDOF 5
ENDMDL
MODEL 4
REMARK VINA RESULT:      -7.8      2.069      2.336
REMARK  Name = 
REMARK  5 active torsions:
REMARK  status: ('A' for Active; 'I' for Inactive)
REMARK    1  A    between atoms: C_4  and  C_5
REMARK    2  A    between atoms: C_9  and  N_10
REMARK    3  A    between atoms: N_16  and  C_17
REMARK    4  A    between atoms: C_22  and  C_23
REMARK    5  A    between atoms: C_23  and  O_24
REMARK                            x       y       z     vdW  Elec       q    Type
REMARK                         _______ _______ _______ _____ _____    ______ ____
ROOT
ATOM      1  O   UNL     1       0.771   8.608  21.617  0.00  0.00    +0.000 OA
ATOM      2  C   UNL     1       1.277   8.440  20.508  0.00  0.00    +0.000 C 
ATOM      3  N   UNL     1       1.957   7.271  20.256  0.00  0.00    +0.000 N 
ATOM      4  C   UNL     1       2.465   6.903  19.046  0.00  0.00    +0.000 C 
ATOM      5  C   UNL     1       2.502   7.795  18.053  0.00  0.00    +0.000 C 
ATOM      6  C   UNL     1       2.091   9.204  18.291  0.00  0.00    +0.000 C 
ATOM      7  N   UNL     1       1.191   9.329  19.436  0.00  0.00    +0.000 N 
ATOM      8  H   UNL     1       1.975   6.617  21.030  0.00  0.00    +0.000 HD
ENDROOT
BRANCH   4   9
ATOM      9  C   UNL     1       2.956   5.538  18.865  0.00  0.00    +0.000 A 
ATOM     10  C   UNL     1       3.208   5.033  17.581  0.00  0.00    +0.000 A 
ATOM     11  C   UNL     1       3.652   3.719  17.410  0.00  0.00    +0.000 A 
ATOM     12  C   UNL     1       3.849   2.898  18.519  0.00  0.00    +0.000 A 
ATOM     13  C   UNL     1       3.594   3.401  19.802  0.00  0.00    +0.000 A 
ATOM     14  C   UNL     1       3.150   4.717  19.983  0.00  0.00    +0.000 A 
BRANCH  13  15
ATOM     15  N   UNL     1       3.788   2.536  20.974  0.00  0.00    +0.000 N 
ATOM     16  O   UNL     1       4.818   1.849  21.019  0.00  0.00    +0.000 OA
ATOM     17  O   UNL     1       2.909   2.544  21.848  0.00  0.00    +0.000 OA
ENDBRANCH  13  15
ENDBRANCH   4   9
BRANCH   7  18
ATOM     18  C   UNL     1       0.493  10.571  19.585  0.00  0.00    +0.000 A 
ATOM     19  C   UNL     1       1.058  11.564  20.408  0.00  0.00    +0.000 A 
ATOM     20  C   UNL     1       0.442  12.801  20.589  0.00  0.00    +0.000 A 
ATOM     21  C   UNL     1      -0.751  13.076  19.941  0.00  0.00    +0.000 A 
ATOM     22  C   UNL     1      -1.324  12.112  19.114  0.00  0.00    +0.000 A 
ATOM     23  C   UNL     1      -0.717  10.851  18.917  0.00  0.00    +0.000 A 
BRANCH  23  24
ATOM     24  C   UNL     1      -1.365   9.937  17.905  0.00  0.00    +0.000 C 
BRANCH  24  25
ATOM     25  O   UNL     1      -1.671  10.654  16.716  0.00  0.00    +0.000 OA
ATOM     26  H   UNL     1      -2.491  11.145  16.920  0.00  0.00    +0.000 HD
ENDBRANCH  24  25
ENDBRANCH  23  24
ENDBRANCH   7  18
TORSDOF 5
ENDMDL
MODEL 5
REMARK VINA RESULT:      -7.7      2.269      2.455
REMARK  Name = 
REMARK  5 active torsions:
REMARK  status: ('A' for Active; 'I' for Inactive)
REMARK    1  A    between atoms: C_4  and  C_5
REMARK    2  A    between atoms: C_9  and  N_10
REMARK    3  A    between atoms: N_16  and  C_17
REMARK    4  A    between atoms: C_22  and  C_23
REMARK    5  A    between atoms: C_23  and  O_24
REMARK                            x       y       z     vdW  Elec       q    Type
REMARK                         _______ _______ _______ _____ _____    ______ ____
ROOT
ATOM      1  O   UNL     1       0.655   9.627  21.484  0.00  0.00    +0.000 OA
ATOM      2  C   UNL     1       1.140   9.080  20.494  0.00  0.00    +0.000 C 
ATOM      3  N   UNL     1       1.616   7.794  20.611  0.00  0.00    +0.000 N 
ATOM      4  C   UNL     1       2.070   7.028  19.579  0.00  0.00    +0.000 C 
ATOM      5  C   UNL     1       2.270   7.591  18.385  0.00  0.00    +0.000 C 
ATOM      6  C   UNL     1       2.101   9.057  18.206  0.00  0.00    +0.000 C 
ATOM      7  N   UNL     1       1.220   9.637  19.218  0.00  0.00    +0.000 N 
ATOM      8  H   UNL     1       1.513   7.387  21.533  0.00  0.00    +0.000 HD
ENDROOT
BRANCH   4   9
ATOM      9  C   UNL     1       2.326   5.607  19.806  0.00  0.00    +0.000 A 
ATOM     10  C   UNL     1       2.007   5.011  21.035  0.00  0.00    +0.000 A 
ATOM     11  C   UNL     1       2.277   3.658  21.260  0.00  0.00    +0.000 A 
ATOM     12  C   UNL     1       2.868   2.889  20.260  0.00  0.00    +0.000 A 
ATOM     13  C   UNL     1       3.190   3.484  19.033  0.00  0.00    +0.000 A 
ATOM     14  C   UNL     1       2.922   4.839  18.798  0.00  0.00    +0.000 A 
BRANCH  13  15
ATOM     15  N   UNL     1       3.824   2.681  17.978  0.00  0.00    +0.000 N 
ATOM     16  O   UNL     1       4.450   3.281  17.094  0.00  0.00    +0.000 OA
ATOM     17  O   UNL     1       3.693   1.449  18.035  0.00  0.00    +0.000 OA
ENDBRANCH  13  15
ENDBRANCH   4   9
BRANCH   7  18
ATOM     18  C   UNL     1       0.739  10.966  18.981  0.00  0.00    +0.000 A 
ATOM     19  C   UNL     1       1.608  12.047  19.227  0.00  0.00    +0.000 A 
ATOM     20  C   UNL     1       1.214  13.365  19.007  0.00  0.00    +0.000 A 
ATOM     21  C   UNL     1      -0.057  13.632  18.525  0.00  0.00    +0.000 A 
ATOM     22  C   UNL     1      -0.931  12.577  18.266  0.00  0.00    +0.000 A 
ATOM     23  C   UNL     1      -0.553  11.233  18.483  0.00  0.00    +0.000 A 
BRANCH  23  24
ATOM     24  C   UNL     1      -1.537  10.173  18.051  0.00  0.00    +0.000 C 
BRANCH  24  25
ATOM     25  O   UNL     1      -1.818  10.296  16.663  0.00  0.00    +0.000 OA
ATOM     26  H   UNL     1      -1.392   9.520  16.248  0.00  0.00    +0.000 HD
ENDBRANCH  24  25
ENDBRANCH  23  24
ENDBRANCH   7  18
TORSDOF 5
ENDMDL
MODEL 6
REMARK VINA RESULT:      -7.7      2.866      3.376
REMARK  Name = 
REMARK  5 active torsions:
REMARK  status: ('A' for Active; 'I' for Inactive)
REMARK    1  A    between atoms: C_4  and  C_5
REMARK    2  A    between atoms: C_9  and  N_10
REMARK    3  A    between atoms: N_16  and  C_17
REMARK    4  A    between atoms: C_22  and  C_23
REMARK    5  A    between atoms: C_23  and  O_24
REMARK                            x       y       z     vdW  Elec       q    Type
REMARK                         _______ _______ _______ _____ _____    ______ ____
ROOT
ATOM      1  O   UNL     1       0.837   9.539  21.414  0.00  0.00    +0.000 OA
ATOM      2  C   UNL     1       1.220   9.073  20.342  0.00  0.00    +0.000 C 
ATOM      3  N   UNL     1       1.971   7.920  20.348  0.00  0.00    +0.000 N 
ATOM      4  C   UNL     1       2.363   7.232  19.238  0.00  0.00    +0.000 C 
ATOM      5  C   UNL     1       2.198   7.785  18.033  0.00  0.00    +0.000 C 
ATOM      6  C   UNL     1       1.689   9.176  17.907  0.00  0.00    +0.000 C 
ATOM      7  N   UNL     1       0.925   9.591  19.081  0.00  0.00    +0.000 N 
ATOM      8  H   UNL     1       2.142   7.531  21.268  0.00  0.00    +0.000 HD
ENDROOT
BRANCH   4   9
ATOM      9  C   UNL     1       2.955   5.905  19.395  0.00  0.00    +0.000 A 
ATOM     10  C   UNL     1       4.068   5.524  18.632  0.00  0.00    +0.000 A 
ATOM     11  C   UNL     1       4.615   4.244  18.764  0.00  0.00    +0.000 A 
ATOM     12  C   UNL     1       4.056   3.335  19.661  0.00  0.00    +0.000 A 
ATOM     13  C   UNL     1       2.941   3.715  20.421  0.00  0.00    +0.000 A 
ATOM     14  C   UNL     1       2.387   4.995  20.295  0.00  0.00    +0.000 A 
BRANCH  13  15
ATOM     15  N   UNL     1       2.340   2.756  21.358  0.00  0.00    +0.000 N 
ATOM     16  O   UNL     1       1.105   2.673  21.385  0.00  0.00    +0.000 OA
ATOM     17  O   UNL     1       3.106   2.088  22.069  0.00  0.00    +0.000 OA
ENDBRANCH  13  15
ENDBRANCH   4   9
BRANCH   7  18
ATOM     18  C   UNL     1       0.136  10.781  18.959  0.00  0.00    +0.000 A 
ATOM     19  C   UNL     1      -1.264  10.672  19.070  0.00  0.00    +0.000 A 
ATOM     20  C   UNL     1      -2.093  11.789  18.975  0.00  0.00    +0.000 A 
ATOM     21  C   UNL     1      -1.539  13.043  18.779  0.00  0.00    +0.000 A 
ATOM     22  C   UNL     1      -0.154  13.175  18.676  0.00  0.00    +0.000 A 
ATOM     23  C   UNL     1       0.705  12.058  18.768  0.00  0.00    +0.000 A 
BRANCH  23  24
ATOM     24  C   UNL     1       2.188  12.339  18.766  0.00  0.00    +0.000 C 
BRANCH  24  25
ATOM     25  O   UNL     1       2.649  12.546  17.437  0.00  0.00    +0.000 OA
ATOM     26  H   UNL     1       3.542  12.930  17.536  0.00  0.00    +0.000 HD
ENDBRANCH  24  25
ENDBRANCH  23  24
ENDBRANCH   7  18
TORSDOF 5
ENDMDL
MODEL 7
REMARK VINA RESULT:      -7.7      2.250      8.024
REMARK  Name = 
REMARK  5 active torsions:
REMARK  status: ('A' for Active; 'I' for Inactive)
REMARK    1  A    between atoms: C_4  and  C_5
REMARK    2  A    between atoms: C_9  and  N_10
REMARK    3  A    between atoms: N_16  and  C_17
REMARK    4  A    between atoms: C_22  and  C_23
REMARK    5  A    between atoms: C_23  and  O_24
REMARK                            x       y       z     vdW  Elec       q    Type
REMARK                         _______ _______ _______ _____ _____    ______ ____
ROOT
ATOM      1  O   UNL     1       3.736   5.090  20.064  0.00  0.00    +0.000 OA
ATOM      2  C   UNL     1       3.289   6.086  19.494  0.00  0.00    +0.000 C 
ATOM      3  N   UNL     1       2.357   6.862  20.144  0.00  0.00    +0.000 N 
ATOM      4  C   UNL     1       1.865   8.048  19.685  0.00  0.00    +0.000 C 
ATOM      5  C   UNL     1       2.130   8.424  18.431  0.00  0.00    +0.000 C 
ATOM      6  C   UNL     1       2.863   7.515  17.511  0.00  0.00    +0.000 C 
ATOM      7  N   UNL     1       3.677   6.539  18.234  0.00  0.00    +0.000 N 
ATOM      8  H   UNL     1       2.117   6.544  21.075  0.00  0.00    +0.000 HD
ENDROOT
BRANCH   4   9
ATOM      9  C   UNL     1       1.061   8.879  20.578  0.00  0.00    +0.000 A 
ATOM     10  C   UNL     1       1.087   8.669  21.965  0.00  0.00    +0.000 A 
ATOM     11  C   UNL     1       0.296   9.446  22.815  0.00  0.00    +0.000 A 
ATOM     12  C   UNL     1      -0.526  10.441  22.289  0.00  0.00    +0.000 A 
ATOM     13  C   UNL     1      -0.555  10.649  20.903  0.00  0.00    +0.000 A 
ATOM     14  C   UNL     1       0.235   9.874  20.043  0.00  0.00    +0.000 A 
BRANCH  13  15
ATOM     15  N   UNL     1      -1.429  11.688  20.341  0.00  0.00    +0.000 N 
ATOM     16  O   UNL     1      -1.376  11.887  19.120  0.00  0.00    +0.000 OA
ATOM     17  O   UNL     1      -2.166  12.305  21.124  0.00  0.00    +0.000 OA
ENDBRANCH  13  15
ENDBRANCH   4   9
BRANCH   7  18
ATOM     18  C   UNL     1       4.653   5.814  17.476  0.00  0.00    +0.000 A 
ATOM     19  C   UNL     1       5.946   6.358  17.353  0.00  0.00    +0.000 A 
ATOM     20  C   UNL     1       6.949   5.701  16.643  0.00  0.00    +0.000 A 
ATOM     21  C   UNL     1       6.685   4.478  16.048  0.00  0.00    +0.000 A 
ATOM     22  C   UNL     1       5.414   3.917  16.165  0.00  0.00    +0.000 A 
ATOM     23  C   UNL     1       4.381   4.565  16.879  0.00  0.00    +0.000 A 
BRANCH  23  24
ATOM     24  C   UNL     1       3.087   3.805  17.042  0.00  0.00    +0.000 C 
BRANCH  24  25
ATOM     25  O   UNL     1       3.208   2.840  18.078  0.00  0.00    +0.000 OA
ATOM     26  H   UNL     1       4.168   2.771  18.250  0.00  0.00    +0.000 HD
ENDBRANCH  24  25
ENDBRANCH  23  24
ENDBRANCH   7  18
TORSDOF 5
ENDMDL
MODEL 8
REMARK VINA RESULT:      -7.7      1.823      2.065
REMARK  Name = 
REMARK  5 active torsions:
REMARK  status: ('A' for Active; 'I' for Inactive)
REMARK    1  A    between atoms: C_4  and  C_5
REMARK    2  A    between atoms: C_9  and  N_10
REMARK    3  A    between atoms: N_16  and  C_17
REMARK    4  A    between atoms: C_22  and  C_23
REMARK    5  A    between atoms: C_23  and  O_24
REMARK                            x       y       z     vdW  Elec       q    Type
REMARK                         _______ _______ _______ _____ _____    ______ ____
ROOT
ATOM      1  O   UNL     1       0.483   8.646  21.285  0.00  0.00    +0.000 OA
ATOM      2  C   UNL     1       1.060   8.670  20.198  0.00  0.00    +0.000 C 
ATOM      3  N   UNL     1       1.947   7.662  19.894  0.00  0.00    +0.000 N 
ATOM      4  C   UNL     1       2.567   7.499  18.690  0.00  0.00    +0.000 C 
ATOM      5  C   UNL     1       2.491   8.471  17.777  0.00  0.00    +0.000 C 
ATOM      6  C   UNL     1       1.828   9.761  18.105  0.00  0.00    +0.000 C 
ATOM      7  N   UNL     1       0.868   9.625  19.199  0.00  0.00    +0.000 N 
ATOM      8  H   UNL     1       2.044   6.954  20.610  0.00  0.00    +0.000 HD
ENDROOT
BRANCH   4   9
ATOM      9  C   UNL     1       3.299   6.261  18.429  0.00  0.00    +0.000 A 
ATOM     10  C   UNL     1       4.024   6.097  17.240  0.00  0.00    +0.000 A 
ATOM     11  C   UNL     1       4.701   4.902  16.979  0.00  0.00    +0.000 A 
ATOM     12  C   UNL     1       4.659   3.861  17.905  0.00  0.00    +0.000 A 
ATOM     13  C   UNL     1       3.932   4.023  19.092  0.00  0.00    +0.000 A 
ATOM     14  C   UNL     1       3.251   5.218  19.361  0.00  0.00    +0.000 A 
BRANCH  13  15
ATOM     15  N   UNL     1       3.875   2.924  20.066  0.00  0.00    +0.000 N 
ATOM     16  O   UNL     1       2.833   2.788  20.721  0.00  0.00    +0.000 OA
ATOM     17  O   UNL     1       4.876   2.200  20.176  0.00  0.00    +0.000 OA
ENDBRANCH  13  15
ENDBRANCH   4   9
BRANCH   7  18
ATOM     18  C   UNL     1      -0.044  10.709  19.407  0.00  0.00    +0.000 A 
ATOM     19  C   UNL     1       0.287  11.691  20.361  0.00  0.00    +0.000 A 
ATOM     20  C   UNL     1      -0.546  12.781  20.606  0.00  0.00    +0.000 A 
ATOM     21  C   UNL     1      -1.726  12.920  19.894  0.00  0.00    +0.000 A 
ATOM     22  C   UNL     1      -2.069  11.964  18.938  0.00  0.00    +0.000 A 
ATOM     23  C   UNL     1      -1.241  10.851  18.674  0.00  0.00    +0.000 A 
BRANCH  23  24
ATOM     24  C   UNL     1      -1.654   9.952  17.534  0.00  0.00    +0.000 C 
BRANCH  24  25
ATOM     25  O   UNL     1      -1.947  10.725  16.377  0.00  0.00    +0.000 OA
ATOM     26  H   UNL     1      -2.129  11.624  16.712  0.00  0.00    +0.000 HD
ENDBRANCH  24  25
ENDBRANCH  23  24
ENDBRANCH   7  18
TORSDOF 5
ENDMDL
MODEL 9
REMARK VINA RESULT:      -7.6      2.158      8.195
REMARK  Name = 
REMARK  5 active torsions:
REMARK  status: ('A' for Active; 'I' for Inactive)
REMARK    1  A    between atoms: C_4  and  C_5
REMARK    2  A    between atoms: C_9  and  N_10
REMARK    3  A    between atoms: N_16  and  C_17
REMARK    4  A    between atoms: C_22  and  C_23
REMARK    5  A    between atoms: C_23  and  O_24
REMARK                            x       y       z     vdW  Elec       q    Type
REMARK                         _______ _______ _______ _____ _____    ______ ____
ROOT
ATOM      1  O   UNL     1       3.885   4.674  19.716  0.00  0.00    +0.000 OA
ATOM      2  C   UNL     1       3.553   5.729  19.177  0.00  0.00    +0.000 C 
ATOM      3  N   UNL     1       2.620   6.528  19.796  0.00  0.00    +0.000 N 
ATOM      4  C   UNL     1       2.246   7.770  19.374  0.00  0.00    +0.000 C 
ATOM      5  C   UNL     1       2.641   8.200  18.173  0.00  0.00    +0.000 C 
ATOM      6  C   UNL     1       3.391   7.297  17.260  0.00  0.00    +0.000 C 
ATOM      7  N   UNL     1       4.076   6.228  17.984  0.00  0.00    +0.000 N 
ATOM      8  H   UNL     1       2.280   6.174  20.682  0.00  0.00    +0.000 HD
ENDROOT
BRANCH   4   9
ATOM      9  C   UNL     1       1.421   8.600  20.250  0.00  0.00    +0.000 A 
ATOM     10  C   UNL     1       1.402   8.378  21.635  0.00  0.00    +0.000 A 
ATOM     11  C   UNL     1       0.593   9.156  22.467  0.00  0.00    +0.000 A 
ATOM     12  C   UNL     1      -0.204  10.163  21.924  0.00  0.00    +0.000 A 
ATOM     13  C   UNL     1      -0.188  10.382  20.540  0.00  0.00    +0.000 A 
ATOM     14  C   UNL     1       0.621   9.608  19.699  0.00  0.00    +0.000 A 
BRANCH  13  15
ATOM     15  N   UNL     1      -1.035  11.434  19.961  0.00  0.00    +0.000 N 
ATOM     16  O   UNL     1      -1.793  11.118  19.034  0.00  0.00    +0.000 OA
ATOM     17  O   UNL     1      -0.939  12.576  20.434  0.00  0.00    +0.000 OA
ENDBRANCH  13  15
ENDBRANCH   4   9
BRANCH   7  18
ATOM     18  C   UNL     1       5.066   5.482  17.264  0.00  0.00    +0.000 A 
ATOM     19  C   UNL     1       4.683   4.836  16.072  0.00  0.00    +0.000 A 
ATOM     20  C   UNL     1       5.596   4.105  15.314  0.00  0.00    +0.000 A 
ATOM     21  C   UNL     1       6.915   4.012  15.725  0.00  0.00    +0.000 A 
ATOM     22  C   UNL     1       7.317   4.651  16.897  0.00  0.00    +0.000 A 
ATOM     23  C   UNL     1       6.410   5.397  17.682  0.00  0.00    +0.000 A 
BRANCH  23  24
ATOM     24  C   UNL     1       6.987   6.145  18.860  0.00  0.00    +0.000 C 
BRANCH  24  25
ATOM     25  O   UNL     1       6.960   5.329  20.024  0.00  0.00    +0.000 OA
ATOM     26  H   UNL     1       6.045   5.395  20.359  0.00  0.00    +0.000 HD
ENDBRANCH  24  25
ENDBRANCH  23  24
ENDBRANCH   7  18
TORSDOF 5
ENDMDL
