MODEL 1
REMARK VINA RESULT:      -7.0      0.000      0.000
REMARK  Name = 
REMARK  10 active torsions:
REMARK  status: ('A' for Active; 'I' for Inactive)
REMARK    1  A    between atoms: C_1  and  O_2
REMARK    2  A    between atoms: O_2  and  C_3
REMARK    3  A    between atoms: C_3  and  C_4
REMARK    4  A    between atoms: C_4  and  C_5
REMARK    5  A    between atoms: C_5  and  N_6
REMARK    6  A    between atoms: N_9  and  C_10
REMARK    7  A    between atoms: C_10  and  C_11
REMARK    8  A    between atoms: C_11  and  O_12
REMARK    9  A    between atoms: O_12  and  C_13
REMARK   10  A    between atoms: C_18  and  C_19
REMARK                            x       y       z     vdW  Elec       q    Type
REMARK                         _______ _______ _______ _____ _____    ______ ____
ROOT
ATOM      1  N   UNL     1       3.372   5.587  19.526  0.00  0.00    +0.000 N 
ATOM      2  C   UNL     1       4.166   4.722  18.750  0.00  0.00    +0.000 A 
ATOM      3  O   UNL     1       4.234   3.514  18.990  0.00  0.00    +0.000 OA
ATOM      4  N   UNL     1       4.856   5.292  17.660  0.00  0.00    +0.000 N 
ATOM      5  C   UNL     1       4.467   6.472  17.030  0.00  0.00    +0.000 A 
ATOM      6  O   UNL     1       4.892   6.859  15.946  0.00  0.00    +0.000 OA
ATOM      7  C   UNL     1       3.472   7.177  17.755  0.00  0.00    +0.000 A 
ATOM      8  N   UNL     1       2.791   8.315  17.431  0.00  0.00    +0.000 N 
ATOM      9  C   UNL     1       1.909   8.580  18.461  0.00  0.00    +0.000 A 
ATOM     10  N   UNL     1       2.042   7.662  19.418  0.00  0.00    +0.000 NA
ATOM     11  C   UNL     1       2.978   6.782  18.952  0.00  0.00    +0.000 A 
ATOM     12  H   UNL     1       2.907   8.861  16.593  0.00  0.00    +0.000 HD
ENDROOT
BRANCH   9  13
ATOM     13  C   UNL     1       0.996   9.725  18.455  0.00  0.00    +0.000 A 
ATOM     14  C   UNL     1       1.387  10.982  18.952  0.00  0.00    +0.000 A 
ATOM     15  C   UNL     1       0.492  12.056  18.974  0.00  0.00    +0.000 A 
ATOM     16  C   UNL     1      -0.804  11.888  18.497  0.00  0.00    +0.000 A 
ATOM     17  C   UNL     1      -1.204  10.652  17.988  0.00  0.00    +0.000 A 
ATOM     18  C   UNL     1      -0.307   9.582  17.960  0.00  0.00    +0.000 A 
ENDBRANCH   9  13
BRANCH   1  19
ATOM     19  C   UNL     1       2.746   5.085  20.757  0.00  0.00    +0.000 C 
BRANCH  19  20
ATOM     20  C   UNL     1       1.338   4.503  20.539  0.00  0.00    +0.000 C 
BRANCH  20  21
ATOM     21  C   UNL     1       1.274   3.008  20.841  0.00  0.00    +0.000 C 
BRANCH  21  23
ATOM     22  C   UNL     1       1.050   2.645  18.512  0.00  0.00    +0.000 C 
ATOM     23  O   UNL     1       0.531   2.372  19.803  0.00  0.00    +0.000 OA
ENDBRANCH  21  23
ENDBRANCH  20  21
ENDBRANCH  19  20
ENDBRANCH   1  19
BRANCH   4  24
ATOM     24  C   UNL     1       5.841   4.456  16.969  0.00  0.00    +0.000 C 
BRANCH  24  25
ATOM     25  C   UNL     1       7.304   4.826  17.265  0.00  0.00    +0.000 C 
BRANCH  25  26
ATOM     26  O   UNL     1       7.687   4.546  18.614  0.00  0.00    +0.000 OA
ATOM     27  C   UNL     1       7.900   5.767  19.329  0.00  0.00    +0.000 C 
ENDBRANCH  25  26
ENDBRANCH  24  25
ENDBRANCH   4  24
TORSDOF 8
ENDMDL
MODEL 2
REMARK VINA RESULT:      -6.8      1.245      1.605
REMARK  Name = 
REMARK  10 active torsions:
REMARK  status: ('A' for Active; 'I' for Inactive)
REMARK    1  A    between atoms: C_1  and  O_2
REMARK    2  A    between atoms: O_2  and  C_3
REMARK    3  A    between atoms: C_3  and  C_4
REMARK    4  A    between atoms: C_4  and  C_5
REMARK    5  A    between atoms: C_5  and  N_6
REMARK    6  A    between atoms: N_9  and  C_10
REMARK    7  A    between atoms: C_10  and  C_11
REMARK    8  A    between atoms: C_11  and  O_12
REMARK    9  A    between atoms: O_12  and  C_13
REMARK   10  A    between atoms: C_18  and  C_19
REMARK                            x       y       z     vdW  Elec       q    Type
REMARK                         _______ _______ _______ _____ _____    ______ ____
ROOT
ATOM      1  N   UNL     1       3.539   5.015  19.498  0.00  0.00    +0.000 N 
ATOM      2  C   UNL     1       4.210   4.274  18.508  0.00  0.00    +0.000 A 
ATOM      3  O   UNL     1       4.273   3.043  18.551  0.00  0.00    +0.000 OA
ATOM      4  N   UNL     1       4.780   5.000  17.441  0.00  0.00    +0.000 N 
ATOM      5  C   UNL     1       4.350   6.266  17.051  0.00  0.00    +0.000 A 
ATOM      6  O   UNL     1       4.652   6.813  15.995  0.00  0.00    +0.000 OA
ATOM      7  C   UNL     1       3.469   6.859  17.992  0.00  0.00    +0.000 A 
ATOM      8  N   UNL     1       2.785   8.039  17.933  0.00  0.00    +0.000 N 
ATOM      9  C   UNL     1       2.041   8.149  19.091  0.00  0.00    +0.000 A 
ATOM     10  N   UNL     1       2.263   7.092  19.873  0.00  0.00    +0.000 NA
ATOM     11  C   UNL     1       3.112   6.287  19.167  0.00  0.00    +0.000 A 
ATOM     12  H   UNL     1       2.814   8.707  17.179  0.00  0.00    +0.000 HD
ENDROOT
BRANCH   9  13
ATOM     13  C   UNL     1       1.165   9.289  19.372  0.00  0.00    +0.000 A 
ATOM     14  C   UNL     1       0.818  10.215  18.371  0.00  0.00    +0.000 A 
ATOM     15  C   UNL     1       0.012  11.320  18.663  0.00  0.00    +0.000 A 
ATOM     16  C   UNL     1      -0.459  11.511  19.958  0.00  0.00    +0.000 A 
ATOM     17  C   UNL     1      -0.136  10.594  20.959  0.00  0.00    +0.000 A 
ATOM     18  C   UNL     1       0.664   9.487  20.665  0.00  0.00    +0.000 A 
ENDBRANCH   9  13
BRANCH   1  19
ATOM     19  C   UNL     1       3.052   4.333  20.706  0.00  0.00    +0.000 C 
BRANCH  19  20
ATOM     20  C   UNL     1       1.517   4.297  20.816  0.00  0.00    +0.000 C 
BRANCH  20  21
ATOM     21  C   UNL     1       0.971   2.873  20.851  0.00  0.00    +0.000 C 
BRANCH  21  23
ATOM     22  C   UNL     1       0.854   2.228  18.576  0.00  0.00    +0.000 C 
ATOM     23  O   UNL     1       1.577   2.134  19.793  0.00  0.00    +0.000 OA
ENDBRANCH  21  23
ENDBRANCH  20  21
ENDBRANCH  19  20
ENDBRANCH   1  19
BRANCH   4  24
ATOM     24  C   UNL     1       5.651   4.273  16.515  0.00  0.00    +0.000 C 
BRANCH  24  25
ATOM     25  C   UNL     1       7.149   4.578  16.684  0.00  0.00    +0.000 C 
BRANCH  25  26
ATOM     26  O   UNL     1       7.820   4.780  15.438  0.00  0.00    +0.000 OA
ATOM     27  C   UNL     1       6.880   4.743  14.361  0.00  0.00    +0.000 C 
ENDBRANCH  25  26
ENDBRANCH  24  25
ENDBRANCH   4  24
TORSDOF 8
ENDMDL
MODEL 3
REMARK VINA RESULT:      -6.8      1.033      1.530
REMARK  Name = 
REMARK  10 active torsions:
REMARK  status: ('A' for Active; 'I' for Inactive)
REMARK    1  A    between atoms: C_1  and  O_2
REMARK    2  A    between atoms: O_2  and  C_3
REMARK    3  A    between atoms: C_3  and  C_4
REMARK    4  A    between atoms: C_4  and  C_5
REMARK    5  A    between atoms: C_5  and  N_6
REMARK    6  A    between atoms: N_9  and  C_10
REMARK    7  A    between atoms: C_10  and  C_11
REMARK    8  A    between atoms: C_11  and  O_12
REMARK    9  A    between atoms: O_12  and  C_13
REMARK   10  A    between atoms: C_18  and  C_19
REMARK                            x       y       z     vdW  Elec       q    Type
REMARK                         _______ _______ _______ _____ _____    ______ ____
ROOT
ATOM      1  N   UNL     1       3.246   5.674  19.651  0.00  0.00    +0.000 N 
ATOM      2  C   UNL     1       4.108   4.830  18.927  0.00  0.00    +0.000 A 
ATOM      3  O   UNL     1       4.184   3.622  19.164  0.00  0.00    +0.000 OA
ATOM      4  N   UNL     1       4.859   5.421  17.889  0.00  0.00    +0.000 N 
ATOM      5  C   UNL     1       4.489   6.597  17.240  0.00  0.00    +0.000 A 
ATOM      6  O   UNL     1       4.978   7.000  16.190  0.00  0.00    +0.000 OA
ATOM      7  C   UNL     1       3.433   7.277  17.900  0.00  0.00    +0.000 A 
ATOM      8  N   UNL     1       2.751   8.403  17.536  0.00  0.00    +0.000 N 
ATOM      9  C   UNL     1       1.797   8.643  18.506  0.00  0.00    +0.000 A 
ATOM     10  N   UNL     1       1.883   7.722  19.464  0.00  0.00    +0.000 NA
ATOM     11  C   UNL     1       2.867   6.864  19.058  0.00  0.00    +0.000 A 
ATOM     12  H   UNL     1       2.913   8.957  16.711  0.00  0.00    +0.000 HD
ENDROOT
BRANCH   9  13
ATOM     13  C   UNL     1       0.863   9.770  18.443  0.00  0.00    +0.000 A 
ATOM     14  C   UNL     1       1.223  11.052  18.897  0.00  0.00    +0.000 A 
ATOM     15  C   UNL     1       0.308  12.109  18.866  0.00  0.00    +0.000 A 
ATOM     16  C   UNL     1      -0.978  11.898  18.378  0.00  0.00    +0.000 A 
ATOM     17  C   UNL     1      -1.347  10.636  17.911  0.00  0.00    +0.000 A 
ATOM     18  C   UNL     1      -0.430   9.583  17.936  0.00  0.00    +0.000 A 
ENDBRANCH   9  13
BRANCH   1  19
ATOM     19  C   UNL     1       2.548   5.150  20.834  0.00  0.00    +0.000 C 
BRANCH  19  20
ATOM     20  C   UNL     1       1.237   4.414  20.501  0.00  0.00    +0.000 C 
BRANCH  20  21
ATOM     21  C   UNL     1       1.231   2.978  21.017  0.00  0.00    +0.000 C 
BRANCH  21  23
ATOM     22  C   UNL     1       0.865   2.445  18.739  0.00  0.00    +0.000 C 
ATOM     23  O   UNL     1       1.554   2.110  19.933  0.00  0.00    +0.000 OA
ENDBRANCH  21  23
ENDBRANCH  20  21
ENDBRANCH  19  20
ENDBRANCH   1  19
BRANCH   4  24
ATOM     24  C   UNL     1       5.905   4.610  17.263  0.00  0.00    +0.000 C 
BRANCH  24  25
ATOM     25  C   UNL     1       5.440   3.825  16.024  0.00  0.00    +0.000 C 
BRANCH  25  26
ATOM     26  O   UNL     1       6.477   3.650  15.055  0.00  0.00    +0.000 OA
ATOM     27  C   UNL     1       5.998   4.004  13.754  0.00  0.00    +0.000 C 
ENDBRANCH  25  26
ENDBRANCH  24  25
ENDBRANCH   4  24
TORSDOF 8
ENDMDL
MODEL 4
REMARK VINA RESULT:      -6.8      2.591      7.062
REMARK  Name = 
REMARK  10 active torsions:
REMARK  status: ('A' for Active; 'I' for Inactive)
REMARK    1  A    between atoms: C_1  and  O_2
REMARK    2  A    between atoms: O_2  and  C_3
REMARK    3  A    between atoms: C_3  and  C_4
REMARK    4  A    between atoms: C_4  and  C_5
REMARK    5  A    between atoms: C_5  and  N_6
REMARK    6  A    between atoms: N_9  and  C_10
REMARK    7  A    between atoms: C_10  and  C_11
REMARK    8  A    between atoms: C_11  and  O_12
REMARK    9  A    between atoms: O_12  and  C_13
REMARK   10  A    between atoms: C_18  and  C_19
REMARK                            x       y       z     vdW  Elec       q    Type
REMARK                         _______ _______ _______ _____ _____    ______ ____
ROOT
ATOM      1  N   UNL     1       3.792   6.325  18.320  0.00  0.00    +0.000 N 
ATOM      2  C   UNL     1       3.084   5.724  19.377  0.00  0.00    +0.000 A 
ATOM      3  O   UNL     1       2.168   6.309  19.961  0.00  0.00    +0.000 OA
ATOM      4  N   UNL     1       3.445   4.404  19.719  0.00  0.00    +0.000 N 
ATOM      5  C   UNL     1       4.073   3.522  18.844  0.00  0.00    +0.000 A 
ATOM      6  O   UNL     1       4.178   2.313  19.024  0.00  0.00    +0.000 OA
ATOM      7  C   UNL     1       4.549   4.163  17.670  0.00  0.00    +0.000 A 
ATOM      8  N   UNL     1       5.139   3.633  16.558  0.00  0.00    +0.000 N 
ATOM      9  C   UNL     1       5.394   4.674  15.686  0.00  0.00    +0.000 A 
ATOM     10  N   UNL     1       5.006   5.827  16.231  0.00  0.00    +0.000 NA
ATOM     11  C   UNL     1       4.451   5.492  17.435  0.00  0.00    +0.000 A 
ATOM     12  H   UNL     1       5.349   2.661  16.401  0.00  0.00    +0.000 HD
ENDROOT
BRANCH   9  13
ATOM     13  C   UNL     1       6.014   4.480  14.373  0.00  0.00    +0.000 A 
ATOM     14  C   UNL     1       5.473   3.591  13.427  0.00  0.00    +0.000 A 
ATOM     15  C   UNL     1       6.098   3.388  12.193  0.00  0.00    +0.000 A 
ATOM     16  C   UNL     1       7.269   4.075  11.888  0.00  0.00    +0.000 A 
ATOM     17  C   UNL     1       7.811   4.970  12.810  0.00  0.00    +0.000 A 
ATOM     18  C   UNL     1       7.183   5.177  14.040  0.00  0.00    +0.000 A 
ENDBRANCH   9  13
BRANCH   1  19
ATOM     19  C   UNL     1       3.563   7.744  18.012  0.00  0.00    +0.000 C 
BRANCH  19  20
ATOM     20  C   UNL     1       2.105   8.066  17.636  0.00  0.00    +0.000 C 
BRANCH  20  21
ATOM     21  C   UNL     1       1.763   9.538  17.847  0.00  0.00    +0.000 C 
BRANCH  21  23
ATOM     22  C   UNL     1      -0.027  10.742  18.823  0.00  0.00    +0.000 C 
ATOM     23  O   UNL     1       0.350   9.654  17.995  0.00  0.00    +0.000 OA
ENDBRANCH  21  23
ENDBRANCH  20  21
ENDBRANCH  19  20
ENDBRANCH   1  19
BRANCH   4  24
ATOM     24  C   UNL     1       2.866   3.838  20.940  0.00  0.00    +0.000 C 
BRANCH  24  25
ATOM     25  C   UNL     1       1.367   3.511  20.837  0.00  0.00    +0.000 C 
BRANCH  25  26
ATOM     26  O   UNL     1       1.114   2.244  20.224  0.00  0.00    +0.000 OA
ATOM     27  C   UNL     1       0.621   2.429  18.894  0.00  0.00    +0.000 C 
ENDBRANCH  25  26
ENDBRANCH  24  25
ENDBRANCH   4  24
TORSDOF 8
ENDMDL
MODEL 5
REMARK VINA RESULT:      -6.8      2.013      2.651
REMARK  Name = 
REMARK  10 active torsions:
REMARK  status: ('A' for Active; 'I' for Inactive)
REMARK    1  A    between atoms: C_1  and  O_2
REMARK    2  A    between atoms: O_2  and  C_3
REMARK    3  A    between atoms: C_3  and  C_4
REMARK    4  A    between atoms: C_4  and  C_5
REMARK    5  A    between atoms: C_5  and  N_6
REMARK    6  A    between atoms: N_9  and  C_10
REMARK    7  A    between atoms: C_10  and  C_11
REMARK    8  A    between atoms: C_11  and  O_12
REMARK    9  A    between atoms: O_12  and  C_13
REMARK   10  A    between atoms: C_18  and  C_19
REMARK                            x       y       z     vdW  Elec       q    Type
REMARK                         _______ _______ _______ _____ _____    ______ ____
ROOT
ATOM      1  N   UNL     1       3.601   4.330  17.646  0.00  0.00    +0.000 N 
ATOM      2  C   UNL     1       4.706   4.016  16.834  0.00  0.00    +0.000 A 
ATOM      3  O   UNL     1       4.763   2.962  16.195  0.00  0.00    +0.000 OA
ATOM      4  N   UNL     1       5.735   4.978  16.753  0.00  0.00    +0.000 N 
ATOM      5  C   UNL     1       5.547   6.334  17.008  0.00  0.00    +0.000 A 
ATOM      6  O   UNL     1       6.346   7.218  16.714  0.00  0.00    +0.000 OA
ATOM      7  C   UNL     1       4.291   6.609  17.609  0.00  0.00    +0.000 A 
ATOM      8  N   UNL     1       3.715   7.805  17.932  0.00  0.00    +0.000 N 
ATOM      9  C   UNL     1       2.473   7.536  18.472  0.00  0.00    +0.000 A 
ATOM     10  N   UNL     1       2.274   6.218  18.517  0.00  0.00    +0.000 NA
ATOM     11  C   UNL     1       3.384   5.662  17.945  0.00  0.00    +0.000 A 
ATOM     12  H   UNL     1       4.121   8.717  17.798  0.00  0.00    +0.000 HD
ENDROOT
BRANCH   9  13
ATOM     13  C   UNL     1       1.557   8.585  18.925  0.00  0.00    +0.000 A 
ATOM     14  C   UNL     1       0.968   9.489  18.023  0.00  0.00    +0.000 A 
ATOM     15  C   UNL     1       0.125  10.509  18.475  0.00  0.00    +0.000 A 
ATOM     16  C   UNL     1      -0.142  10.636  19.835  0.00  0.00    +0.000 A 
ATOM     17  C   UNL     1       0.422   9.739  20.741  0.00  0.00    +0.000 A 
ATOM     18  C   UNL     1       1.259   8.716  20.289  0.00  0.00    +0.000 A 
ENDBRANCH   9  13
BRANCH   1  19
ATOM     19  C   UNL     1       2.568   3.313  17.885  0.00  0.00    +0.000 C 
BRANCH  19  20
ATOM     20  C   UNL     1       2.928   2.320  19.006  0.00  0.00    +0.000 C 
BRANCH  20  21
ATOM     21  C   UNL     1       3.542   3.013  20.219  0.00  0.00    +0.000 C 
BRANCH  21  23
ATOM     22  C   UNL     1       1.541   2.683  21.442  0.00  0.00    +0.000 C 
ATOM     23  O   UNL     1       2.491   3.622  20.967  0.00  0.00    +0.000 OA
ENDBRANCH  21  23
ENDBRANCH  20  21
ENDBRANCH  19  20
ENDBRANCH   1  19
BRANCH   4  24
ATOM     24  C   UNL     1       6.977   4.587  16.082  0.00  0.00    +0.000 C 
BRANCH  24  25
ATOM     25  C   UNL     1       6.949   4.751  14.553  0.00  0.00    +0.000 C 
BRANCH  25  26
ATOM     26  O   UNL     1       7.978   5.617  14.067  0.00  0.00    +0.000 OA
ATOM     27  C   UNL     1       8.083   5.506  12.644  0.00  0.00    +0.000 C 
ENDBRANCH  25  26
ENDBRANCH  24  25
ENDBRANCH   4  24
TORSDOF 8
ENDMDL
MODEL 6
REMARK VINA RESULT:      -6.7      0.824      1.084
REMARK  Name = 
REMARK  10 active torsions:
REMARK  status: ('A' for Active; 'I' for Inactive)
REMARK    1  A    between atoms: C_1  and  O_2
REMARK    2  A    between atoms: O_2  and  C_3
REMARK    3  A    between atoms: C_3  and  C_4
REMARK    4  A    between atoms: C_4  and  C_5
REMARK    5  A    between atoms: C_5  and  N_6
REMARK    6  A    between atoms: N_9  and  C_10
REMARK    7  A    between atoms: C_10  and  C_11
REMARK    8  A    between atoms: C_11  and  O_12
REMARK    9  A    between atoms: O_12  and  C_13
REMARK   10  A    between atoms: C_18  and  C_19
REMARK                            x       y       z     vdW  Elec       q    Type
REMARK                         _______ _______ _______ _____ _____    ______ ____
ROOT
ATOM      1  N   UNL     1       3.545   5.211  19.635  0.00  0.00    +0.000 N 
ATOM      2  C   UNL     1       4.298   4.463  18.711  0.00  0.00    +0.000 A 
ATOM      3  O   UNL     1       4.417   3.239  18.810  0.00  0.00    +0.000 OA
ATOM      4  N   UNL     1       4.883   5.172  17.641  0.00  0.00    +0.000 N 
ATOM      5  C   UNL     1       4.413   6.398  17.176  0.00  0.00    +0.000 A 
ATOM      6  O   UNL     1       4.739   6.914  16.112  0.00  0.00    +0.000 OA
ATOM      7  C   UNL     1       3.460   6.985  18.048  0.00  0.00    +0.000 A 
ATOM      8  N   UNL     1       2.724   8.126  17.905  0.00  0.00    +0.000 N 
ATOM      9  C   UNL     1       1.921   8.247  19.023  0.00  0.00    +0.000 A 
ATOM     10  N   UNL     1       2.154   7.236  19.860  0.00  0.00    +0.000 NA
ATOM     11  C   UNL     1       3.074   6.445  19.229  0.00  0.00    +0.000 A 
ATOM     12  H   UNL     1       2.758   8.763  17.126  0.00  0.00    +0.000 HD
ENDROOT
BRANCH   9  13
ATOM     13  C   UNL     1       0.979   9.353  19.212  0.00  0.00    +0.000 A 
ATOM     14  C   UNL     1       0.262   9.902  18.134  0.00  0.00    +0.000 A 
ATOM     15  C   UNL     1      -0.605  10.983  18.324  0.00  0.00    +0.000 A 
ATOM     16  C   UNL     1      -0.767  11.526  19.595  0.00  0.00    +0.000 A 
ATOM     17  C   UNL     1      -0.074  10.984  20.677  0.00  0.00    +0.000 A 
ATOM     18  C   UNL     1       0.787   9.900  20.488  0.00  0.00    +0.000 A 
ENDBRANCH   9  13
BRANCH   1  19
ATOM     19  C   UNL     1       3.033   4.556  20.848  0.00  0.00    +0.000 C 
BRANCH  19  20
ATOM     20  C   UNL     1       1.522   4.266  20.800  0.00  0.00    +0.000 C 
BRANCH  20  21
ATOM     21  C   UNL     1       1.221   2.777  20.653  0.00  0.00    +0.000 C 
BRANCH  21  23
ATOM     22  C   UNL     1       1.302   2.273  18.341  0.00  0.00    +0.000 C 
ATOM     23  O   UNL     1       0.477   2.586  19.451  0.00  0.00    +0.000 OA
ENDBRANCH  21  23
ENDBRANCH  20  21
ENDBRANCH  19  20
ENDBRANCH   1  19
BRANCH   4  24
ATOM     24  C   UNL     1       5.831   4.451  16.789  0.00  0.00    +0.000 C 
BRANCH  24  25
ATOM     25  C   UNL     1       7.295   4.541  17.254  0.00  0.00    +0.000 C 
BRANCH  25  26
ATOM     26  O   UNL     1       7.713   5.882  17.520  0.00  0.00    +0.000 OA
ATOM     27  C   UNL     1       7.900   6.070  18.925  0.00  0.00    +0.000 C 
ENDBRANCH  25  26
ENDBRANCH  24  25
ENDBRANCH   4  24
TORSDOF 8
ENDMDL
MODEL 7
REMARK VINA RESULT:      -6.7      1.440      1.928
REMARK  Name = 
REMARK  10 active torsions:
REMARK  status: ('A' for Active; 'I' for Inactive)
REMARK    1  A    between atoms: C_1  and  O_2
REMARK    2  A    between atoms: O_2  and  C_3
REMARK    3  A    between atoms: C_3  and  C_4
REMARK    4  A    between atoms: C_4  and  C_5
REMARK    5  A    between atoms: C_5  and  N_6
REMARK    6  A    between atoms: N_9  and  C_10
REMARK    7  A    between atoms: C_10  and  C_11
REMARK    8  A    between atoms: C_11  and  O_12
REMARK    9  A    between atoms: O_12  and  C_13
REMARK   10  A    between atoms: C_18  and  C_19
REMARK                            x       y       z     vdW  Elec       q    Type
REMARK                         _______ _______ _______ _____ _____    ______ ____
ROOT
ATOM      1  N   UNL     1       2.611   5.241  18.682  0.00  0.00    +0.000 N 
ATOM      2  C   UNL     1       3.376   4.474  17.784  0.00  0.00    +0.000 A 
ATOM      3  O   UNL     1       3.158   3.273  17.607  0.00  0.00    +0.000 OA
ATOM      4  N   UNL     1       4.386   5.149  17.066  0.00  0.00    +0.000 N 
ATOM      5  C   UNL     1       4.378   6.520  16.824  0.00  0.00    +0.000 A 
ATOM      6  O   UNL     1       5.097   7.092  16.011  0.00  0.00    +0.000 OA
ATOM      7  C   UNL     1       3.400   7.205  17.592  0.00  0.00    +0.000 A 
ATOM      8  N   UNL     1       3.036   8.522  17.578  0.00  0.00    +0.000 N 
ATOM      9  C   UNL     1       2.017   8.682  18.495  0.00  0.00    +0.000 A 
ATOM     10  N   UNL     1       1.757   7.518  19.092  0.00  0.00    +0.000 NA
ATOM     11  C   UNL     1       2.588   6.610  18.497  0.00  0.00    +0.000 A 
ATOM     12  H   UNL     1       3.437   9.244  17.001  0.00  0.00    +0.000 HD
ENDROOT
BRANCH   9  13
ATOM     13  C   UNL     1       1.363   9.969  18.744  0.00  0.00    +0.000 A 
ATOM     14  C   UNL     1       0.088  10.045  19.333  0.00  0.00    +0.000 A 
ATOM     15  C   UNL     1      -0.540  11.280  19.529  0.00  0.00    +0.000 A 
ATOM     16  C   UNL     1       0.101  12.453  19.142  0.00  0.00    +0.000 A 
ATOM     17  C   UNL     1       1.372  12.395  18.570  0.00  0.00    +0.000 A 
ATOM     18  C   UNL     1       2.001  11.162  18.380  0.00  0.00    +0.000 A 
ENDBRANCH   9  13
BRANCH   1  19
ATOM     19  C   UNL     1       1.645   4.570  19.563  0.00  0.00    +0.000 C 
BRANCH  19  20
ATOM     20  C   UNL     1       2.152   4.379  21.003  0.00  0.00    +0.000 C 
BRANCH  20  21
ATOM     21  C   UNL     1       1.797   3.007  21.568  0.00  0.00    +0.000 C 
BRANCH  21  23
ATOM     22  C   UNL     1       3.919   2.228  20.863  0.00  0.00    +0.000 C 
ATOM     23  O   UNL     1       3.005   2.348  21.941  0.00  0.00    +0.000 OA
ENDBRANCH  21  23
ENDBRANCH  20  21
ENDBRANCH  19  20
ENDBRANCH   1  19
BRANCH   4  24
ATOM     24  C   UNL     1       5.321   4.336  16.285  0.00  0.00    +0.000 C 
BRANCH  24  25
ATOM     25  C   UNL     1       6.781   4.417  16.761  0.00  0.00    +0.000 C 
BRANCH  25  26
ATOM     26  O   UNL     1       7.672   4.891  15.747  0.00  0.00    +0.000 OA
ATOM     27  C   UNL     1       7.071   4.746  14.457  0.00  0.00    +0.000 C 
ENDBRANCH  25  26
ENDBRANCH  24  25
ENDBRANCH   4  24
TORSDOF 8
ENDMDL
MODEL 8
REMARK VINA RESULT:      -6.7      2.121      2.847
REMARK  Name = 
REMARK  10 active torsions:
REMARK  status: ('A' for Active; 'I' for Inactive)
REMARK    1  A    between atoms: C_1  and  O_2
REMARK    2  A    between atoms: O_2  and  C_3
REMARK    3  A    between atoms: C_3  and  C_4
REMARK    4  A    between atoms: C_4  and  C_5
REMARK    5  A    between atoms: C_5  and  N_6
REMARK    6  A    between atoms: N_9  and  C_10
REMARK    7  A    between atoms: C_10  and  C_11
REMARK    8  A    between atoms: C_11  and  O_12
REMARK    9  A    between atoms: O_12  and  C_13
REMARK   10  A    between atoms: C_18  and  C_19
REMARK                            x       y       z     vdW  Elec       q    Type
REMARK                         _______ _______ _______ _____ _____    ______ ____
ROOT
ATOM      1  N   UNL     1       3.726   4.226  17.615  0.00  0.00    +0.000 N 
ATOM      2  C   UNL     1       4.776   3.917  16.731  0.00  0.00    +0.000 A 
ATOM      3  O   UNL     1       4.814   2.847  16.117  0.00  0.00    +0.000 OA
ATOM      4  N   UNL     1       5.768   4.903  16.547  0.00  0.00    +0.000 N 
ATOM      5  C   UNL     1       5.562   6.260  16.779  0.00  0.00    +0.000 A 
ATOM      6  O   UNL     1       6.311   7.156  16.403  0.00  0.00    +0.000 OA
ATOM      7  C   UNL     1       4.348   6.520  17.466  0.00  0.00    +0.000 A 
ATOM      8  N   UNL     1       3.764   7.709  17.800  0.00  0.00    +0.000 N 
ATOM      9  C   UNL     1       2.574   7.423  18.439  0.00  0.00    +0.000 A 
ATOM     10  N   UNL     1       2.416   6.103  18.534  0.00  0.00    +0.000 NA
ATOM     11  C   UNL     1       3.495   5.560  17.895  0.00  0.00    +0.000 A 
ATOM     12  H   UNL     1       4.133   8.627  17.612  0.00  0.00    +0.000 HD
ENDROOT
BRANCH   9  13
ATOM     13  C   UNL     1       1.665   8.461  18.932  0.00  0.00    +0.000 A 
ATOM     14  C   UNL     1       1.311   8.545  20.291  0.00  0.00    +0.000 A 
ATOM     15  C   UNL     1       0.411   9.517  20.740  0.00  0.00    +0.000 A 
ATOM     16  C   UNL     1      -0.142  10.419  19.837  0.00  0.00    +0.000 A 
ATOM     17  C   UNL     1       0.209  10.358  18.488  0.00  0.00    +0.000 A 
ATOM     18  C   UNL     1       1.112   9.391  18.042  0.00  0.00    +0.000 A 
ENDBRANCH   9  13
BRANCH   1  19
ATOM     19  C   UNL     1       2.743   3.189  17.959  0.00  0.00    +0.000 C 
BRANCH  19  20
ATOM     20  C   UNL     1       3.283   2.125  18.931  0.00  0.00    +0.000 C 
BRANCH  20  21
ATOM     21  C   UNL     1       3.852   2.740  20.207  0.00  0.00    +0.000 C 
BRANCH  21  23
ATOM     22  C   UNL     1       2.147   3.709  21.532  0.00  0.00    +0.000 C 
ATOM     23  O   UNL     1       2.910   2.545  21.259  0.00  0.00    +0.000 OA
ENDBRANCH  21  23
ENDBRANCH  20  21
ENDBRANCH  19  20
ENDBRANCH   1  19
BRANCH   4  24
ATOM     24  C   UNL     1       6.967   4.525  15.795  0.00  0.00    +0.000 C 
BRANCH  24  25
ATOM     25  C   UNL     1       6.879   4.800  14.284  0.00  0.00    +0.000 C 
BRANCH  25  26
ATOM     26  O   UNL     1       6.332   3.702  13.550  0.00  0.00    +0.000 OA
ATOM     27  C   UNL     1       6.769   3.753  12.189  0.00  0.00    +0.000 C 
ENDBRANCH  25  26
ENDBRANCH  24  25
ENDBRANCH   4  24
TORSDOF 8
ENDMDL
MODEL 9
REMARK VINA RESULT:      -6.7      2.095      4.455
REMARK  Name = 
REMARK  10 active torsions:
REMARK  status: ('A' for Active; 'I' for Inactive)
REMARK    1  A    between atoms: C_1  and  O_2
REMARK    2  A    between atoms: O_2  and  C_3
REMARK    3  A    between atoms: C_3  and  C_4
REMARK    4  A    between atoms: C_4  and  C_5
REMARK    5  A    between atoms: C_5  and  N_6
REMARK    6  A    between atoms: N_9  and  C_10
REMARK    7  A    between atoms: C_10  and  C_11
REMARK    8  A    between atoms: C_11  and  O_12
REMARK    9  A    between atoms: O_12  and  C_13
REMARK   10  A    between atoms: C_18  and  C_19
REMARK                            x       y       z     vdW  Elec       q    Type
REMARK                         _______ _______ _______ _____ _____    ______ ____
ROOT
ATOM      1  N   UNL     1       4.406   5.748  18.646  0.00  0.00    +0.000 N 
ATOM      2  C   UNL     1       4.892   4.490  19.048  0.00  0.00    +0.000 A 
ATOM      3  O   UNL     1       6.050   4.137  18.812  0.00  0.00    +0.000 OA
ATOM      4  N   UNL     1       4.006   3.661  19.768  0.00  0.00    +0.000 N 
ATOM      5  C   UNL     1       2.915   4.139  20.490  0.00  0.00    +0.000 A 
ATOM      6  O   UNL     1       2.280   3.485  21.312  0.00  0.00    +0.000 OA
ATOM      7  C   UNL     1       2.632   5.502  20.216  0.00  0.00    +0.000 A 
ATOM      8  N   UNL     1       1.706   6.336  20.775  0.00  0.00    +0.000 N 
ATOM      9  C   UNL     1       1.848   7.574  20.180  0.00  0.00    +0.000 A 
ATOM     10  N   UNL     1       2.809   7.526  19.257  0.00  0.00    +0.000 NA
ATOM     11  C   UNL     1       3.310   6.255  19.319  0.00  0.00    +0.000 A 
ATOM     12  H   UNL     1       1.042   6.093  21.493  0.00  0.00    +0.000 HD
ENDROOT
BRANCH   9  13
ATOM     13  C   UNL     1       1.025   8.731  20.540  0.00  0.00    +0.000 A 
ATOM     14  C   UNL     1       0.673   9.709  19.592  0.00  0.00    +0.000 A 
ATOM     15  C   UNL     1      -0.081  10.828  19.960  0.00  0.00    +0.000 A 
ATOM     16  C   UNL     1      -0.496  10.981  21.279  0.00  0.00    +0.000 A 
ATOM     17  C   UNL     1      -0.168  10.013  22.228  0.00  0.00    +0.000 A 
ATOM     18  C   UNL     1       0.580   8.892  21.859  0.00  0.00    +0.000 A 
ENDBRANCH   9  13
BRANCH   1  19
ATOM     19  C   UNL     1       5.229   6.595  17.772  0.00  0.00    +0.000 C 
BRANCH  19  20
ATOM     20  C   UNL     1       4.784   6.574  16.298  0.00  0.00    +0.000 C 
BRANCH  20  21
ATOM     21  C   UNL     1       5.324   5.361  15.546  0.00  0.00    +0.000 C 
BRANCH  21  23
ATOM     22  C   UNL     1       7.162   4.899  14.126  0.00  0.00    +0.000 C 
ATOM     23  O   UNL     1       6.711   5.571  15.291  0.00  0.00    +0.000 OA
ENDBRANCH  21  23
ENDBRANCH  20  21
ENDBRANCH  19  20
ENDBRANCH   1  19
BRANCH   4  24
ATOM     24  C   UNL     1       4.421   2.279  20.015  0.00  0.00    +0.000 C 
BRANCH  24  25
ATOM     25  C   UNL     1       3.781   1.247  19.072  0.00  0.00    +0.000 C 
BRANCH  25  26
ATOM     26  O   UNL     1       3.628   1.733  17.736  0.00  0.00    +0.000 OA
ATOM     27  C   UNL     1       2.296   2.215  17.537  0.00  0.00    +0.000 C 
ENDBRANCH  25  26
ENDBRANCH  24  25
ENDBRANCH   4  24
TORSDOF 8
ENDMDL
