MODEL 1
REMARK VINA RESULT:      -8.6      0.000      0.000
REMARK  Name = 
REMARK  10 active torsions:
REMARK  status: ('A' for Active; 'I' for Inactive)
REMARK    1  A    between atoms: C_1  and  O_2
REMARK    2  A    between atoms: O_2  and  C_3
REMARK    3  A    between atoms: C_6  and  N_7
REMARK    4  A    between atoms: N_7  and  C_8
REMARK    5  A    between atoms: C_15  and  N_16
REMARK    6  A    between atoms: N_16  and  C_17
REMARK    7  A    between atoms: C_17  and  N_19
REMARK    8  A    between atoms: N_19  and  C_20
REMARK    9  A    between atoms: C_30  and  O_31
REMARK   10  A    between atoms: O_31  and  C_32
REMARK                            x       y       z     vdW  Elec       q    Type
REMARK                         _______ _______ _______ _____ _____    ______ ____
ROOT
ATOM      1  C   UNL     1      -0.054  11.073  20.411  0.00  0.00    +0.000 A 
ATOM      2  N   UNL     1       0.659  12.189  20.506  0.00  0.00    +0.000 NA
ATOM      3  C   UNL     1       1.521  12.287  19.506  0.00  0.00    +0.000 A 
ATOM      4  N   UNL     1       1.700  11.360  18.553  0.00  0.00    +0.000 NA
ATOM      5  C   UNL     1       1.313  10.117  18.850  0.00  0.00    +0.000 A 
ATOM      6  C   UNL     1       1.835   9.116  18.064  0.00  0.00    +0.000 A 
ATOM      7  C   UNL     1       2.154   7.856  18.565  0.00  0.00    +0.000 A 
ATOM      8  C   UNL     1       2.041   7.552  19.918  0.00  0.00    +0.000 A 
ATOM      9  C   UNL     1       1.248   8.501  20.650  0.00  0.00    +0.000 A 
ATOM     10  C   UNL     1       0.660   9.821  20.016  0.00  0.00    +0.000 A 
ENDROOT
BRANCH   1  11
ATOM     11  N   UNL     1      -1.455  11.397  19.898  0.00  0.00    +0.000 N 
ATOM     12  H   UNL     1      -1.241  12.382  19.625  0.00  0.00    +0.000 HD
BRANCH  11  16
ATOM     13  C   UNL     1      -3.587  10.675  16.026  0.00  0.00    +0.000 A 
ATOM     14  C   UNL     1      -2.364  10.061  16.308  0.00  0.00    +0.000 A 
ATOM     15  C   UNL     1      -1.679  10.241  17.559  0.00  0.00    +0.000 A 
ATOM     16  C   UNL     1      -2.165  11.071  18.584  0.00  0.00    +0.000 A 
ATOM     17  C   UNL     1      -3.432  11.682  18.281  0.00  0.00    +0.000 A 
ATOM     18  C   UNL     1      -4.132  11.497  17.027  0.00  0.00    +0.000 A 
BRANCH  13  20
ATOM     19  C   UNL     1      -3.623   9.893  13.727  0.00  0.00    +0.000 C 
ATOM     20  O   UNL     1      -4.228  10.578  14.819  0.00  0.00    +0.000 OA
ENDBRANCH  13  20
BRANCH  18  21
ATOM     21  O   UNL     1      -5.324  12.193  16.949  0.00  0.00    +0.000 OA
ATOM     22  C   UNL     1      -6.468  11.754  17.690  0.00  0.00    +0.000 C 
ENDBRANCH  18  21
ENDBRANCH  11  16
ENDBRANCH   1  11
BRANCH   8  23
ATOM     23  N   UNL     1       2.768   6.325  20.201  0.00  0.00    +0.000 N 
ATOM     24  H   UNL     1       3.279   6.401  21.076  0.00  0.00    +0.000 HD
BRANCH  23  25
ATOM     25  C   UNL     1       2.783   4.977  19.921  0.00  0.00    +0.000 C 
ATOM     26  S   UNL     1       1.526   3.908  20.157  0.00  0.00    +0.000 S 
BRANCH  25  27
ATOM     27  N   UNL     1       4.037   4.452  19.531  0.00  0.00    +0.000 N 
ATOM     28  H   UNL     1       4.451   3.817  20.224  0.00  0.00    +0.000 HD
BRANCH  27  29
ATOM     29  C   UNL     1       4.790   4.555  18.316  0.00  0.00    +0.000 A 
ATOM     30  C   UNL     1       4.216   4.374  17.060  0.00  0.00    +0.000 A 
ATOM     31  C   UNL     1       4.989   4.412  15.874  0.00  0.00    +0.000 A 
ATOM     32  C   UNL     1       6.347   4.623  15.942  0.00  0.00    +0.000 A 
ATOM     33 CL   UNL     1       7.272   4.634  14.485  0.00  0.00    +0.000 Cl
ATOM     34  C   UNL     1       6.965   4.784  17.179  0.00  0.00    +0.000 A 
ATOM     35  C   UNL     1       6.187   4.752  18.359  0.00  0.00    +0.000 A 
ENDBRANCH  27  29
ENDBRANCH  25  27
ENDBRANCH  23  25
ENDBRANCH   8  23
TORSDOF 8
ENDMDL
MODEL 2
REMARK VINA RESULT:      -8.1      4.595      9.590
REMARK  Name = 
REMARK  10 active torsions:
REMARK  status: ('A' for Active; 'I' for Inactive)
REMARK    1  A    between atoms: C_1  and  O_2
REMARK    2  A    between atoms: O_2  and  C_3
REMARK    3  A    between atoms: C_6  and  N_7
REMARK    4  A    between atoms: N_7  and  C_8
REMARK    5  A    between atoms: C_15  and  N_16
REMARK    6  A    between atoms: N_16  and  C_17
REMARK    7  A    between atoms: C_17  and  N_19
REMARK    8  A    between atoms: N_19  and  C_20
REMARK    9  A    between atoms: C_30  and  O_31
REMARK   10  A    between atoms: O_31  and  C_32
REMARK                            x       y       z     vdW  Elec       q    Type
REMARK                         _______ _______ _______ _____ _____    ______ ____
ROOT
ATOM      1  C   UNL     1       3.656   3.098  18.792  0.00  0.00    +0.000 A 
ATOM      2  N   UNL     1       2.796   2.111  19.015  0.00  0.00    +0.000 NA
ATOM      3  C   UNL     1       1.632   2.357  18.433  0.00  0.00    +0.000 A 
ATOM      4  N   UNL     1       1.332   3.476  17.758  0.00  0.00    +0.000 NA
ATOM      5  C   UNL     1       2.066   4.556  18.038  0.00  0.00    +0.000 A 
ATOM      6  C   UNL     1       1.532   5.767  17.661  0.00  0.00    +0.000 A 
ATOM      7  C   UNL     1       1.705   6.930  18.407  0.00  0.00    +0.000 A 
ATOM      8  C   UNL     1       2.363   6.927  19.632  0.00  0.00    +0.000 A 
ATOM      9  C   UNL     1       3.135   5.736  19.861  0.00  0.00    +0.000 A 
ATOM     10  C   UNL     1       3.145   4.500  18.880  0.00  0.00    +0.000 A 
ENDROOT
BRANCH   1  11
ATOM     11  N   UNL     1       4.666   2.673  17.731  0.00  0.00    +0.000 N 
ATOM     12  H   UNL     1       3.963   2.281  17.067  0.00  0.00    +0.000 HD
BRANCH  11  16
ATOM     13  C   UNL     1       7.033   4.992  14.717  0.00  0.00    +0.000 A 
ATOM     14  C   UNL     1       6.258   3.892  14.342  0.00  0.00    +0.000 A 
ATOM     15  C   UNL     1       5.455   3.156  15.281  0.00  0.00    +0.000 A 
ATOM     16  C   UNL     1       5.409   3.461  16.652  0.00  0.00    +0.000 A 
ATOM     17  C   UNL     1       6.201   4.606  17.016  0.00  0.00    +0.000 A 
ATOM     18  C   UNL     1       7.005   5.357  16.074  0.00  0.00    +0.000 A 
BRANCH  13  20
ATOM     19  C   UNL     1       7.888   5.351  12.472  0.00  0.00    +0.000 C 
ATOM     20  O   UNL     1       7.861   5.668  13.860  0.00  0.00    +0.000 OA
ENDBRANCH  13  20
BRANCH  18  21
ATOM     21  O   UNL     1       7.696   6.408  16.648  0.00  0.00    +0.000 OA
ATOM     22  C   UNL     1       7.111   7.161  17.717  0.00  0.00    +0.000 C 
ENDBRANCH  18  21
ENDBRANCH  11  16
ENDBRANCH   1  11
BRANCH   8  23
ATOM     23  N   UNL     1       2.081   8.167  20.338  0.00  0.00    +0.000 N 
ATOM     24  H   UNL     1       2.908   8.754  20.381  0.00  0.00    +0.000 HD
BRANCH  23  25
ATOM     25  C   UNL     1       1.052   9.011  20.690  0.00  0.00    +0.000 C 
ATOM     26  S   UNL     1      -0.008   8.795  21.958  0.00  0.00    +0.000 S 
BRANCH  25  27
ATOM     27  N   UNL     1       0.809  10.078  19.795  0.00  0.00    +0.000 N 
ATOM     28  H   UNL     1       1.647  10.633  19.579  0.00  0.00    +0.000 HD
BRANCH  27  29
ATOM     29  C   UNL     1      -0.353  10.470  19.054  0.00  0.00    +0.000 A 
ATOM     30  C   UNL     1      -1.254  11.425  19.521  0.00  0.00    +0.000 A 
ATOM     31  C   UNL     1      -2.432  11.751  18.807  0.00  0.00    +0.000 A 
ATOM     32  C   UNL     1      -2.720  11.112  17.622  0.00  0.00    +0.000 A 
ATOM     33 CL   UNL     1      -4.179  11.504  16.787  0.00  0.00    +0.000 Cl
ATOM     34  C   UNL     1      -1.859  10.133  17.132  0.00  0.00    +0.000 A 
ATOM     35  C   UNL     1      -0.681   9.818  17.846  0.00  0.00    +0.000 A 
ENDBRANCH  27  29
ENDBRANCH  25  27
ENDBRANCH  23  25
ENDBRANCH   8  23
TORSDOF 8
ENDMDL
MODEL 3
REMARK VINA RESULT:      -8.1      6.267      9.445
REMARK  Name = 
REMARK  10 active torsions:
REMARK  status: ('A' for Active; 'I' for Inactive)
REMARK    1  A    between atoms: C_1  and  O_2
REMARK    2  A    between atoms: O_2  and  C_3
REMARK    3  A    between atoms: C_6  and  N_7
REMARK    4  A    between atoms: N_7  and  C_8
REMARK    5  A    between atoms: C_15  and  N_16
REMARK    6  A    between atoms: N_16  and  C_17
REMARK    7  A    between atoms: C_17  and  N_19
REMARK    8  A    between atoms: N_19  and  C_20
REMARK    9  A    between atoms: C_30  and  O_31
REMARK   10  A    between atoms: O_31  and  C_32
REMARK                            x       y       z     vdW  Elec       q    Type
REMARK                         _______ _______ _______ _____ _____    ______ ____
ROOT
ATOM      1  C   UNL     1       5.502   6.474  16.236  0.00  0.00    +0.000 A 
ATOM      2  N   UNL     1       5.946   5.735  15.226  0.00  0.00    +0.000 NA
ATOM      3  C   UNL     1       6.901   4.911  15.627  0.00  0.00    +0.000 A 
ATOM      4  N   UNL     1       7.401   4.862  16.870  0.00  0.00    +0.000 NA
ATOM      5  C   UNL     1       7.244   5.957  17.619  0.00  0.00    +0.000 A 
ATOM      6  C   UNL     1       8.069   6.065  18.715  0.00  0.00    +0.000 A 
ATOM      7  C   UNL     1       8.569   7.285  19.162  0.00  0.00    +0.000 A 
ATOM      8  C   UNL     1       8.333   8.472  18.477  0.00  0.00    +0.000 A 
ATOM      9  C   UNL     1       7.264   8.375  17.521  0.00  0.00    +0.000 A 
ATOM     10  C   UNL     1       6.509   7.029  17.189  0.00  0.00    +0.000 A 
ENDROOT
BRANCH   1  11
ATOM     11  N   UNL     1       4.151   5.944  16.708  0.00  0.00    +0.000 N 
ATOM     12  H   UNL     1       4.241   5.008  16.256  0.00  0.00    +0.000 HD
BRANCH  11  16
ATOM     13  C   UNL     1       2.567   4.337  20.577  0.00  0.00    +0.000 A 
ATOM     14  C   UNL     1       3.516   3.632  19.832  0.00  0.00    +0.000 A 
ATOM     15  C   UNL     1       4.073   4.144  18.609  0.00  0.00    +0.000 A 
ATOM     16  C   UNL     1       3.688   5.374  18.049  0.00  0.00    +0.000 A 
ATOM     17  C   UNL     1       2.722   6.092  18.839  0.00  0.00    +0.000 A 
ATOM     18  C   UNL     1       2.164   5.586  20.076  0.00  0.00    +0.000 A 
BRANCH  13  20
ATOM     19  C   UNL     1       1.391   2.544  21.717  0.00  0.00    +0.000 C 
ATOM     20  O   UNL     1       1.969   3.845  21.707  0.00  0.00    +0.000 OA
ENDBRANCH  13  20
BRANCH  18  21
ATOM     21  O   UNL     1       1.242   6.436  20.657  0.00  0.00    +0.000 OA
ATOM     22  C   UNL     1       1.560   7.818  20.862  0.00  0.00    +0.000 C 
ENDBRANCH  18  21
ENDBRANCH  11  16
ENDBRANCH   1  11
BRANCH   8  23
ATOM     23  N   UNL     1       9.252   9.496  18.949  0.00  0.00    +0.000 N 
ATOM     24  H   UNL     1      10.212   9.251  18.724  0.00  0.00    +0.000 HD
BRANCH  23  25
ATOM     25  C   UNL     1       9.319  10.827  19.294  0.00  0.00    +0.000 C 
ATOM     26  S   UNL     1       9.461  11.437  20.839  0.00  0.00    +0.000 S 
BRANCH  25  27
ATOM     27  N   UNL     1       9.105  11.740  18.236  0.00  0.00    +0.000 N 
ATOM     28  H   UNL     1       8.609  11.331  17.433  0.00  0.00    +0.000 HD
BRANCH  27  29
ATOM     29  C   UNL     1       9.353  13.145  18.108  0.00  0.00    +0.000 A 
ATOM     30  C   UNL     1       8.329  14.088  18.077  0.00  0.00    +0.000 A 
ATOM     31  C   UNL     1       8.590  15.466  17.882  0.00  0.00    +0.000 A 
ATOM     32  C   UNL     1       9.883  15.906  17.707  0.00  0.00    +0.000 A 
ATOM     33 CL   UNL     1      10.171  17.587  17.440  0.00  0.00    +0.000 Cl
ATOM     34  C   UNL     1      10.934  14.994  17.708  0.00  0.00    +0.000 A 
ATOM     35  C   UNL     1      10.668  13.620  17.910  0.00  0.00    +0.000 A 
ENDBRANCH  27  29
ENDBRANCH  25  27
ENDBRANCH  23  25
ENDBRANCH   8  23
TORSDOF 8
ENDMDL
MODEL 4
REMARK VINA RESULT:      -8.1      1.624      2.702
REMARK  Name = 
REMARK  10 active torsions:
REMARK  status: ('A' for Active; 'I' for Inactive)
REMARK    1  A    between atoms: C_1  and  O_2
REMARK    2  A    between atoms: O_2  and  C_3
REMARK    3  A    between atoms: C_6  and  N_7
REMARK    4  A    between atoms: N_7  and  C_8
REMARK    5  A    between atoms: C_15  and  N_16
REMARK    6  A    between atoms: N_16  and  C_17
REMARK    7  A    between atoms: C_17  and  N_19
REMARK    8  A    between atoms: N_19  and  C_20
REMARK    9  A    between atoms: C_30  and  O_31
REMARK   10  A    between atoms: O_31  and  C_32
REMARK                            x       y       z     vdW  Elec       q    Type
REMARK                         _______ _______ _______ _____ _____    ______ ____
ROOT
ATOM      1  C   UNL     1       0.242  10.834  19.525  0.00  0.00    +0.000 A 
ATOM      2  N   UNL     1       0.982  11.937  19.549  0.00  0.00    +0.000 NA
ATOM      3  C   UNL     1       1.939  11.885  18.636  0.00  0.00    +0.000 A 
ATOM      4  N   UNL     1       2.176  10.839  17.830  0.00  0.00    +0.000 NA
ATOM      5  C   UNL     1       1.719   9.654  18.243  0.00  0.00    +0.000 A 
ATOM      6  C   UNL     1       2.279   8.547  17.646  0.00  0.00    +0.000 A 
ATOM      7  C   UNL     1       2.503   7.356  18.332  0.00  0.00    +0.000 A 
ATOM      8  C   UNL     1       2.251   7.233  19.694  0.00  0.00    +0.000 A 
ATOM      9  C   UNL     1       1.425   8.286  20.218  0.00  0.00    +0.000 A 
ATOM     10  C   UNL     1       0.947   9.526  19.366  0.00  0.00    +0.000 A 
ENDROOT
BRANCH   1  11
ATOM     11  N   UNL     1      -1.090  11.121  18.839  0.00  0.00    +0.000 N 
ATOM     12  H   UNL     1      -1.489  10.167  18.982  0.00  0.00    +0.000 HD
BRANCH  11  16
ATOM     13  C   UNL     1      -4.910  13.022  20.199  0.00  0.00    +0.000 A 
ATOM     14  C   UNL     1      -3.708  13.242  20.876  0.00  0.00    +0.000 A 
ATOM     15  C   UNL     1      -2.460  12.679  20.436  0.00  0.00    +0.000 A 
ATOM     16  C   UNL     1      -2.352  11.840  19.315  0.00  0.00    +0.000 A 
ATOM     17  C   UNL     1      -3.598  11.639  18.622  0.00  0.00    +0.000 A 
ATOM     18  C   UNL     1      -4.857  12.210  19.054  0.00  0.00    +0.000 A 
BRANCH  13  20
ATOM     19  C   UNL     1      -6.708  14.649  20.052  0.00  0.00    +0.000 C 
ATOM     20  O   UNL     1      -6.124  13.488  20.633  0.00  0.00    +0.000 OA
ENDBRANCH  13  20
BRANCH  18  21
ATOM     21  O   UNL     1      -5.926  11.870  18.247  0.00  0.00    +0.000 OA
ATOM     22  C   UNL     1      -6.704  10.700  18.531  0.00  0.00    +0.000 C 
ENDBRANCH  18  21
ENDBRANCH  11  16
ENDBRANCH   1  11
BRANCH   8  23
ATOM     23  N   UNL     1       2.903   6.037  20.201  0.00  0.00    +0.000 N 
ATOM     24  H   UNL     1       3.425   6.241  21.049  0.00  0.00    +0.000 HD
BRANCH  23  25
ATOM     25  C   UNL     1       2.835   4.662  20.175  0.00  0.00    +0.000 C 
ATOM     26  S   UNL     1       1.599   3.726  20.788  0.00  0.00    +0.000 S 
BRANCH  25  27
ATOM     27  N   UNL     1       3.995   4.005  19.704  0.00  0.00    +0.000 N 
ATOM     28  H   UNL     1       4.292   3.219  20.296  0.00  0.00    +0.000 HD
BRANCH  27  29
ATOM     29  C   UNL     1       4.773   4.158  18.511  0.00  0.00    +0.000 A 
ATOM     30  C   UNL     1       6.081   4.638  18.524  0.00  0.00    +0.000 A 
ATOM     31  C   UNL     1       6.810   4.846  17.329  0.00  0.00    +0.000 A 
ATOM     32  C   UNL     1       6.228   4.585  16.110  0.00  0.00    +0.000 A 
ATOM     33 CL   UNL     1       7.128   4.877  14.666  0.00  0.00    +0.000 Cl
ATOM     34  C   UNL     1       4.914   4.127  16.050  0.00  0.00    +0.000 A 
ATOM     35  C   UNL     1       4.193   3.914  17.247  0.00  0.00    +0.000 A 
ENDBRANCH  27  29
ENDBRANCH  25  27
ENDBRANCH  23  25
ENDBRANCH   8  23
TORSDOF 8
ENDMDL
MODEL 5
REMARK VINA RESULT:      -8.0      4.505      9.345
REMARK  Name = 
REMARK  10 active torsions:
REMARK  status: ('A' for Active; 'I' for Inactive)
REMARK    1  A    between atoms: C_1  and  O_2
REMARK    2  A    between atoms: O_2  and  C_3
REMARK    3  A    between atoms: C_6  and  N_7
REMARK    4  A    between atoms: N_7  and  C_8
REMARK    5  A    between atoms: C_15  and  N_16
REMARK    6  A    between atoms: N_16  and  C_17
REMARK    7  A    between atoms: C_17  and  N_19
REMARK    8  A    between atoms: N_19  and  C_20
REMARK    9  A    between atoms: C_30  and  O_31
REMARK   10  A    between atoms: O_31  and  C_32
REMARK                            x       y       z     vdW  Elec       q    Type
REMARK                         _______ _______ _______ _____ _____    ______ ____
ROOT
ATOM      1  C   UNL     1       3.190   3.544  19.119  0.00  0.00    +0.000 A 
ATOM      2  N   UNL     1       2.202   2.705  18.829  0.00  0.00    +0.000 NA
ATOM      3  C   UNL     1       1.362   3.246  17.960  0.00  0.00    +0.000 A 
ATOM      4  N   UNL     1       1.455   4.493  17.477  0.00  0.00    +0.000 NA
ATOM      5  C   UNL     1       2.156   5.365  18.207  0.00  0.00    +0.000 A 
ATOM      6  C   UNL     1       1.935   6.696  17.939  0.00  0.00    +0.000 A 
ATOM      7  C   UNL     1       1.958   7.676  18.928  0.00  0.00    +0.000 A 
ATOM      8  C   UNL     1       2.125   7.360  20.272  0.00  0.00    +0.000 A 
ATOM      9  C   UNL     1       2.623   6.029  20.487  0.00  0.00    +0.000 A 
ATOM     10  C   UNL     1       2.845   4.982  19.327  0.00  0.00    +0.000 A 
ENDROOT
BRANCH   1  11
ATOM     11  N   UNL     1       4.461   3.116  18.389  0.00  0.00    +0.000 N 
ATOM     12  H   UNL     1       3.997   2.408  17.778  0.00  0.00    +0.000 HD
BRANCH  11  16
ATOM     13  C   UNL     1       6.945   5.012  15.181  0.00  0.00    +0.000 A 
ATOM     14  C   UNL     1       6.171   3.878  14.925  0.00  0.00    +0.000 A 
ATOM     15  C   UNL     1       5.331   3.274  15.925  0.00  0.00    +0.000 A 
ATOM     16  C   UNL     1       5.245   3.754  17.242  0.00  0.00    +0.000 A 
ATOM     17  C   UNL     1       6.037   4.932  17.482  0.00  0.00    +0.000 A 
ATOM     18  C   UNL     1       6.877   5.550  16.477  0.00  0.00    +0.000 A 
BRANCH  13  20
ATOM     19  C   UNL     1       7.699   5.259  12.885  0.00  0.00    +0.000 C 
ATOM     20  O   UNL     1       7.806   5.568  14.271  0.00  0.00    +0.000 OA
ENDBRANCH  13  20
BRANCH  18  21
ATOM     21  O   UNL     1       7.561   6.662  16.934  0.00  0.00    +0.000 OA
ATOM     22  C   UNL     1       7.870   6.800  18.326  0.00  0.00    +0.000 C 
ENDBRANCH  18  21
ENDBRANCH  11  16
ENDBRANCH   1  11
BRANCH   8  23
ATOM     23  N   UNL     1       1.750   8.503  21.089  0.00  0.00    +0.000 N 
ATOM     24  H   UNL     1       2.573   8.956  21.478  0.00  0.00    +0.000 HD
BRANCH  23  25
ATOM     25  C   UNL     1       0.741   9.419  21.287  0.00  0.00    +0.000 C 
ATOM     26  S   UNL     1      -0.413   9.366  22.488  0.00  0.00    +0.000 S 
BRANCH  25  27
ATOM     27  N   UNL     1       0.611  10.406  20.283  0.00  0.00    +0.000 N 
ATOM     28  H   UNL     1       1.405  11.059  20.243  0.00  0.00    +0.000 HD
BRANCH  27  29
ATOM     29  C   UNL     1      -0.358  10.608  19.248  0.00  0.00    +0.000 A 
ATOM     30  C   UNL     1      -0.801   9.577  18.423  0.00  0.00    +0.000 A 
ATOM     31  C   UNL     1      -1.709   9.809  17.362  0.00  0.00    +0.000 A 
ATOM     32  C   UNL     1      -2.171  11.082  17.114  0.00  0.00    +0.000 A 
ATOM     33 CL   UNL     1      -3.253  11.343  15.795  0.00  0.00    +0.000 Cl
ATOM     34  C   UNL     1      -1.735  12.145  17.899  0.00  0.00    +0.000 A 
ATOM     35  C   UNL     1      -0.834  11.906  18.962  0.00  0.00    +0.000 A 
ENDBRANCH  27  29
ENDBRANCH  25  27
ENDBRANCH  23  25
ENDBRANCH   8  23
TORSDOF 8
ENDMDL
MODEL 6
REMARK VINA RESULT:      -8.0      2.149      3.113
REMARK  Name = 
REMARK  10 active torsions:
REMARK  status: ('A' for Active; 'I' for Inactive)
REMARK    1  A    between atoms: C_1  and  O_2
REMARK    2  A    between atoms: O_2  and  C_3
REMARK    3  A    between atoms: C_6  and  N_7
REMARK    4  A    between atoms: N_7  and  C_8
REMARK    5  A    between atoms: C_15  and  N_16
REMARK    6  A    between atoms: N_16  and  C_17
REMARK    7  A    between atoms: C_17  and  N_19
REMARK    8  A    between atoms: N_19  and  C_20
REMARK    9  A    between atoms: C_30  and  O_31
REMARK   10  A    between atoms: O_31  and  C_32
REMARK                            x       y       z     vdW  Elec       q    Type
REMARK                         _______ _______ _______ _____ _____    ______ ____
ROOT
ATOM      1  C   UNL     1       0.362  11.232  19.467  0.00  0.00    +0.000 A 
ATOM      2  N   UNL     1       1.173  12.284  19.449  0.00  0.00    +0.000 NA
ATOM      3  C   UNL     1       2.108  12.145  18.522  0.00  0.00    +0.000 A 
ATOM      4  N   UNL     1       2.261  11.066  17.741  0.00  0.00    +0.000 NA
ATOM      5  C   UNL     1       1.735   9.925  18.192  0.00  0.00    +0.000 A 
ATOM      6  C   UNL     1       2.210   8.769  17.616  0.00  0.00    +0.000 A 
ATOM      7  C   UNL     1       2.369   7.584  18.329  0.00  0.00    +0.000 A 
ATOM      8  C   UNL     1       2.134   7.512  19.698  0.00  0.00    +0.000 A 
ATOM      9  C   UNL     1       1.388   8.630  20.207  0.00  0.00    +0.000 A 
ATOM     10  C   UNL     1       0.977   9.877  19.331  0.00  0.00    +0.000 A 
ENDROOT
BRANCH   1  11
ATOM     11  N   UNL     1      -0.961  11.588  18.795  0.00  0.00    +0.000 N 
ATOM     12  H   UNL     1      -1.218  10.609  18.543  0.00  0.00    +0.000 HD
BRANCH  11  16
ATOM     13  C   UNL     1      -4.910  12.771  20.546  0.00  0.00    +0.000 A 
ATOM     14  C   UNL     1      -4.819  12.213  19.267  0.00  0.00    +0.000 A 
ATOM     15  C   UNL     1      -3.570  11.786  18.698  0.00  0.00    +0.000 A 
ATOM     16  C   UNL     1      -2.340  11.921  19.363  0.00  0.00    +0.000 A 
ATOM     17  C   UNL     1      -2.456  12.482  20.684  0.00  0.00    +0.000 A 
ATOM     18  C   UNL     1      -3.712  12.907  21.267  0.00  0.00    +0.000 A 
BRANCH  13  20
ATOM     19  C   UNL     1      -6.979  12.379  21.756  0.00  0.00    +0.000 C 
ATOM     20  O   UNL     1      -6.074  13.251  21.086  0.00  0.00    +0.000 OA
ENDBRANCH  13  20
BRANCH  18  21
ATOM     21  O   UNL     1      -3.584  13.431  22.539  0.00  0.00    +0.000 OA
ATOM     22  C   UNL     1      -3.668  12.577  23.687  0.00  0.00    +0.000 C 
ENDBRANCH  18  21
ENDBRANCH  11  16
ENDBRANCH   1  11
BRANCH   8  23
ATOM     23  N   UNL     1       2.716   6.288  20.227  0.00  0.00    +0.000 N 
ATOM     24  H   UNL     1       2.361   6.093  21.159  0.00  0.00    +0.000 HD
BRANCH  23  25
ATOM     25  C   UNL     1       3.312   5.109  19.841  0.00  0.00    +0.000 C 
ATOM     26  S   UNL     1       2.643   3.586  19.951  0.00  0.00    +0.000 S 
BRANCH  25  27
ATOM     27  N   UNL     1       4.667   5.213  19.450  0.00  0.00    +0.000 N 
ATOM     28  H   UNL     1       5.323   5.227  20.241  0.00  0.00    +0.000 HD
BRANCH  27  29
ATOM     29  C   UNL     1       5.304   5.201  18.167  0.00  0.00    +0.000 A 
ATOM     30  C   UNL     1       4.644   5.571  16.998  0.00  0.00    +0.000 A 
ATOM     31  C   UNL     1       5.269   5.488  15.730  0.00  0.00    +0.000 A 
ATOM     32  C   UNL     1       6.560   5.021  15.627  0.00  0.00    +0.000 A 
ATOM     33 CL   UNL     1       7.289   4.899  14.067  0.00  0.00    +0.000 Cl
ATOM     34  C   UNL     1       7.248   4.617  16.768  0.00  0.00    +0.000 A 
ATOM     35  C   UNL     1       6.621   4.710  18.031  0.00  0.00    +0.000 A 
ENDBRANCH  27  29
ENDBRANCH  25  27
ENDBRANCH  23  25
ENDBRANCH   8  23
TORSDOF 8
ENDMDL
MODEL 7
REMARK VINA RESULT:      -8.0      1.719      2.808
REMARK  Name = 
REMARK  10 active torsions:
REMARK  status: ('A' for Active; 'I' for Inactive)
REMARK    1  A    between atoms: C_1  and  O_2
REMARK    2  A    between atoms: O_2  and  C_3
REMARK    3  A    between atoms: C_6  and  N_7
REMARK    4  A    between atoms: N_7  and  C_8
REMARK    5  A    between atoms: C_15  and  N_16
REMARK    6  A    between atoms: N_16  and  C_17
REMARK    7  A    between atoms: C_17  and  N_19
REMARK    8  A    between atoms: N_19  and  C_20
REMARK    9  A    between atoms: C_30  and  O_31
REMARK   10  A    between atoms: O_31  and  C_32
REMARK                            x       y       z     vdW  Elec       q    Type
REMARK                         _______ _______ _______ _____ _____    ______ ____
ROOT
ATOM      1  C   UNL     1       0.488  10.677  19.586  0.00  0.00    +0.000 A 
ATOM      2  N   UNL     1       1.275  11.739  19.454  0.00  0.00    +0.000 NA
ATOM      3  C   UNL     1       2.117  11.581  18.445  0.00  0.00    +0.000 A 
ATOM      4  N   UNL     1       2.212  10.478  17.689  0.00  0.00    +0.000 NA
ATOM      5  C   UNL     1       1.751   9.345  18.227  0.00  0.00    +0.000 A 
ATOM      6  C   UNL     1       2.188   8.177  17.645  0.00  0.00    +0.000 A 
ATOM      7  C   UNL     1       2.435   7.019  18.379  0.00  0.00    +0.000 A 
ATOM      8  C   UNL     1       2.336   6.991  19.766  0.00  0.00    +0.000 A 
ATOM      9  C   UNL     1       1.624   8.117  20.308  0.00  0.00    +0.000 A 
ATOM     10  C   UNL     1       1.109   9.327  19.436  0.00  0.00    +0.000 A 
ENDROOT
BRANCH   1  11
ATOM     11  N   UNL     1      -0.900  10.992  19.036  0.00  0.00    +0.000 N 
ATOM     12  H   UNL     1      -1.311  10.056  19.245  0.00  0.00    +0.000 HD
BRANCH  11  16
ATOM     13  C   UNL     1      -4.506  13.069  20.692  0.00  0.00    +0.000 A 
ATOM     14  C   UNL     1      -3.291  13.063  21.381  0.00  0.00    +0.000 A 
ATOM     15  C   UNL     1      -2.107  12.441  20.853  0.00  0.00    +0.000 A 
ATOM     16  C   UNL     1      -2.082  11.764  19.622  0.00  0.00    +0.000 A 
ATOM     17  C   UNL     1      -3.339  11.795  18.920  0.00  0.00    +0.000 A 
ATOM     18  C   UNL     1      -4.532  12.428  19.442  0.00  0.00    +0.000 A 
BRANCH  13  20
ATOM     19  C   UNL     1      -6.397  12.900  22.207  0.00  0.00    +0.000 C 
ATOM     20  O   UNL     1      -5.667  13.592  21.199  0.00  0.00    +0.000 OA
ENDBRANCH  13  20
BRANCH  18  21
ATOM     21  O   UNL     1      -5.628  12.320  18.606  0.00  0.00    +0.000 OA
ATOM     22  C   UNL     1      -5.453  11.978  17.225  0.00  0.00    +0.000 C 
ENDBRANCH  18  21
ENDBRANCH  11  16
ENDBRANCH   1  11
BRANCH   8  23
ATOM     23  N   UNL     1       2.987   5.795  20.275  0.00  0.00    +0.000 N 
ATOM     24  H   UNL     1       2.805   5.679  21.268  0.00  0.00    +0.000 HD
BRANCH  23  25
ATOM     25  C   UNL     1       3.487   4.574  19.882  0.00  0.00    +0.000 C 
ATOM     26  S   UNL     1       2.759   3.093  20.111  0.00  0.00    +0.000 S 
BRANCH  25  27
ATOM     27  N   UNL     1       4.803   4.595  19.364  0.00  0.00    +0.000 N 
ATOM     28  H   UNL     1       5.530   4.485  20.083  0.00  0.00    +0.000 HD
BRANCH  27  29
ATOM     29  C   UNL     1       5.312   4.638  18.026  0.00  0.00    +0.000 A 
ATOM     30  C   UNL     1       4.508   4.420  16.909  0.00  0.00    +0.000 A 
ATOM     31  C   UNL     1       5.042   4.399  15.598  0.00  0.00    +0.000 A 
ATOM     32  C   UNL     1       6.391   4.587  15.399  0.00  0.00    +0.000 A 
ATOM     33 CL   UNL     1       7.022   4.525  13.794  0.00  0.00    +0.000 Cl
ATOM     34  C   UNL     1       7.235   4.783  16.490  0.00  0.00    +0.000 A 
ATOM     35  C   UNL     1       6.694   4.811  17.795  0.00  0.00    +0.000 A 
ENDBRANCH  27  29
ENDBRANCH  25  27
ENDBRANCH  23  25
ENDBRANCH   8  23
TORSDOF 8
ENDMDL
MODEL 8
REMARK VINA RESULT:      -7.9      1.010      1.124
REMARK  Name = 
REMARK  10 active torsions:
REMARK  status: ('A' for Active; 'I' for Inactive)
REMARK    1  A    between atoms: C_1  and  O_2
REMARK    2  A    between atoms: O_2  and  C_3
REMARK    3  A    between atoms: C_6  and  N_7
REMARK    4  A    between atoms: N_7  and  C_8
REMARK    5  A    between atoms: C_15  and  N_16
REMARK    6  A    between atoms: N_16  and  C_17
REMARK    7  A    between atoms: C_17  and  N_19
REMARK    8  A    between atoms: N_19  and  C_20
REMARK    9  A    between atoms: C_30  and  O_31
REMARK   10  A    between atoms: O_31  and  C_32
REMARK                            x       y       z     vdW  Elec       q    Type
REMARK                         _______ _______ _______ _____ _____    ______ ____
ROOT
ATOM      1  C   UNL     1      -0.691  11.503  20.893  0.00  0.00    +0.000 A 
ATOM      2  N   UNL     1      -0.013  12.566  21.309  0.00  0.00    +0.000 NA
ATOM      3  C   UNL     1       1.069  12.758  20.570  0.00  0.00    +0.000 A 
ATOM      4  N   UNL     1       1.468  11.957  19.571  0.00  0.00    +0.000 NA
ATOM      5  C   UNL     1       1.009  10.703  19.593  0.00  0.00    +0.000 A 
ATOM      6  C   UNL     1       1.699   9.792  18.827  0.00  0.00    +0.000 A 
ATOM      7  C   UNL     1       1.875   8.465  19.213  0.00  0.00    +0.000 A 
ATOM      8  C   UNL     1       1.432   7.992  20.444  0.00  0.00    +0.000 A 
ATOM      9  C   UNL     1       0.491   8.870  21.086  0.00  0.00    +0.000 A 
ATOM     10  C   UNL     1       0.088  10.285  20.515  0.00  0.00    +0.000 A 
ENDROOT
BRANCH   1  11
ATOM     11  N   UNL     1      -1.920  11.950  20.107  0.00  0.00    +0.000 N 
ATOM     12  H   UNL     1      -1.477  12.800  19.694  0.00  0.00    +0.000 HD
BRANCH  11  16
ATOM     13  C   UNL     1      -3.728  10.796  16.175  0.00  0.00    +0.000 A 
ATOM     14  C   UNL     1      -2.474  10.319  16.566  0.00  0.00    +0.000 A 
ATOM     15  C   UNL     1      -1.889  10.639  17.840  0.00  0.00    +0.000 A 
ATOM     16  C   UNL     1      -2.512  11.478  18.779  0.00  0.00    +0.000 A 
ATOM     17  C   UNL     1      -3.809  11.946  18.364  0.00  0.00    +0.000 A 
ATOM     18  C   UNL     1      -4.408  11.620  17.086  0.00  0.00    +0.000 A 
BRANCH  13  20
ATOM     19  C   UNL     1      -3.500  10.007  13.889  0.00  0.00    +0.000 C 
ATOM     20  O   UNL     1      -4.279  10.565  14.942  0.00  0.00    +0.000 OA
ENDBRANCH  13  20
BRANCH  18  21
ATOM     21  O   UNL     1      -5.651  12.193  16.894  0.00  0.00    +0.000 OA
ATOM     22  C   UNL     1      -6.406  12.677  18.012  0.00  0.00    +0.000 C 
ENDBRANCH  18  21
ENDBRANCH  11  16
ENDBRANCH   1  11
BRANCH   8  23
ATOM     23  N   UNL     1       2.056   6.709  20.724  0.00  0.00    +0.000 N 
ATOM     24  H   UNL     1       2.311   6.638  21.705  0.00  0.00    +0.000 HD
BRANCH  23  25
ATOM     25  C   UNL     1       2.149   5.416  20.259  0.00  0.00    +0.000 C 
ATOM     26  S   UNL     1       2.367   4.050  21.188  0.00  0.00    +0.000 S 
BRANCH  25  27
ATOM     27  N   UNL     1       2.200   5.280  18.853  0.00  0.00    +0.000 N 
ATOM     28  H   UNL     1       1.282   5.364  18.397  0.00  0.00    +0.000 HD
BRANCH  27  29
ATOM     29  C   UNL     1       3.292   5.149  17.935  0.00  0.00    +0.000 A 
ATOM     30  C   UNL     1       3.755   3.913  17.490  0.00  0.00    +0.000 A 
ATOM     31  C   UNL     1       4.879   3.800  16.636  0.00  0.00    +0.000 A 
ATOM     32  C   UNL     1       5.554   4.930  16.231  0.00  0.00    +0.000 A 
ATOM     33 CL   UNL     1       6.940   4.764  15.215  0.00  0.00    +0.000 Cl
ATOM     34  C   UNL     1       5.139   6.184  16.672  0.00  0.00    +0.000 A 
ATOM     35  C   UNL     1       4.012   6.290  17.518  0.00  0.00    +0.000 A 
ENDBRANCH  27  29
ENDBRANCH  25  27
ENDBRANCH  23  25
ENDBRANCH   8  23
TORSDOF 8
ENDMDL
MODEL 9
REMARK VINA RESULT:      -7.9      4.790      9.702
REMARK  Name = 
REMARK  10 active torsions:
REMARK  status: ('A' for Active; 'I' for Inactive)
REMARK    1  A    between atoms: C_1  and  O_2
REMARK    2  A    between atoms: O_2  and  C_3
REMARK    3  A    between atoms: C_6  and  N_7
REMARK    4  A    between atoms: N_7  and  C_8
REMARK    5  A    between atoms: C_15  and  N_16
REMARK    6  A    between atoms: N_16  and  C_17
REMARK    7  A    between atoms: C_17  and  N_19
REMARK    8  A    between atoms: N_19  and  C_20
REMARK    9  A    between atoms: C_30  and  O_31
REMARK   10  A    between atoms: O_31  and  C_32
REMARK                            x       y       z     vdW  Elec       q    Type
REMARK                         _______ _______ _______ _____ _____    ______ ____
ROOT
ATOM      1  C   UNL     1       3.091   5.304  19.831  0.00  0.00    +0.000 A 
ATOM      2  N   UNL     1       2.302   4.275  19.543  0.00  0.00    +0.000 NA
ATOM      3  C   UNL     1       1.642   4.485  18.415  0.00  0.00    +0.000 A 
ATOM      4  N   UNL     1       1.708   5.607  17.684  0.00  0.00    +0.000 NA
ATOM      5  C   UNL     1       2.110   6.710  18.321  0.00  0.00    +0.000 A 
ATOM      6  C   UNL     1       1.812   7.906  17.709  0.00  0.00    +0.000 A 
ATOM      7  C   UNL     1       1.484   9.055  18.424  0.00  0.00    +0.000 A 
ATOM      8  C   UNL     1       1.356   9.049  19.808  0.00  0.00    +0.000 A 
ATOM      9  C   UNL     1       1.933   7.888  20.428  0.00  0.00    +0.000 A 
ATOM     10  C   UNL     1       2.546   6.679  19.618  0.00  0.00    +0.000 A 
ENDROOT
BRANCH   1  11
ATOM     11  N   UNL     1       4.539   4.952  19.505  0.00  0.00    +0.000 N 
ATOM     12  H   UNL     1       4.397   3.918  19.502  0.00  0.00    +0.000 HD
BRANCH  11  16
ATOM     13  C   UNL     1       7.032   5.054  15.786  0.00  0.00    +0.000 A 
ATOM     14  C   UNL     1       6.180   3.981  16.060  0.00  0.00    +0.000 A 
ATOM     15  C   UNL     1       5.337   3.943  17.225  0.00  0.00    +0.000 A 
ATOM     16  C   UNL     1       5.324   4.960  18.194  0.00  0.00    +0.000 A 
ATOM     17  C   UNL     1       6.196   6.063  17.885  0.00  0.00    +0.000 A 
ATOM     18  C   UNL     1       7.041   6.112  16.710  0.00  0.00    +0.000 A 
BRANCH  13  20
ATOM     19  C   UNL     1       7.409   5.240  13.393  0.00  0.00    +0.000 C 
ATOM     20  O   UNL     1       7.896   5.088  14.723  0.00  0.00    +0.000 OA
ENDBRANCH  13  20
BRANCH  18  21
ATOM     21  O   UNL     1       7.807   7.259  16.626  0.00  0.00    +0.000 OA
ATOM     22  C   UNL     1       7.772   8.233  17.677  0.00  0.00    +0.000 C 
ENDBRANCH  18  21
ENDBRANCH  11  16
ENDBRANCH   1  11
BRANCH   8  23
ATOM     23  N   UNL     1       0.669  10.257  20.237  0.00  0.00    +0.000 N 
ATOM     24  H   UNL     1       0.499  10.239  21.239  0.00  0.00    +0.000 HD
BRANCH  23  25
ATOM     25  C   UNL     1       0.442  11.567  19.882  0.00  0.00    +0.000 C 
ATOM     26  S   UNL     1       0.965  12.916  20.709  0.00  0.00    +0.000 S 
BRANCH  25  27
ATOM     27  N   UNL     1      -0.435  11.756  18.789  0.00  0.00    +0.000 N 
ATOM     28  H   UNL     1       0.043  12.029  17.920  0.00  0.00    +0.000 HD
BRANCH  27  29
ATOM     29  C   UNL     1      -1.842  11.542  18.632  0.00  0.00    +0.000 A 
ATOM     30  C   UNL     1      -2.372  10.740  17.624  0.00  0.00    +0.000 A 
ATOM     31  C   UNL     1      -3.769  10.594  17.443  0.00  0.00    +0.000 A 
ATOM     32  C   UNL     1      -4.645  11.261  18.269  0.00  0.00    +0.000 A 
ATOM     33 CL   UNL     1      -6.343  11.092  18.008  0.00  0.00    +0.000 Cl
ATOM     34  C   UNL     1      -4.158  12.093  19.274  0.00  0.00    +0.000 A 
ATOM     35  C   UNL     1      -2.763  12.229  19.454  0.00  0.00    +0.000 A 
ENDBRANCH  27  29
ENDBRANCH  25  27
ENDBRANCH  23  25
ENDBRANCH   8  23
TORSDOF 8
ENDMDL
