MODEL 1
REMARK VINA RESULT:      -7.3      0.000      0.000
REMARK  Name = 
REMARK  5 active torsions:
REMARK  status: ('A' for Active; 'I' for Inactive)
REMARK    1  A    between atoms: C_2  and  C_15
REMARK    2  A    between atoms: N_3  and  C_4
REMARK    3  A    between atoms: C_7  and  O_8
REMARK    4  A    between atoms: O_8  and  C_9
REMARK    5  A    between atoms: C_15  and  C_17
REMARK                            x       y       z     vdW  Elec       q    Type
REMARK                         _______ _______ _______ _____ _____    ______ ____
ROOT
ATOM      1  C   UNL     1       4.924   4.369  18.475  0.00  0.00    +0.000 A 
ATOM      2  C   UNL     1       6.067   5.165  18.531  0.00  0.00    +0.000 A 
ATOM      3  C   UNL     1       6.945   5.227  17.444  0.00  0.00    +0.000 A 
ATOM      4  C   UNL     1       6.707   4.481  16.290  0.00  0.00    +0.000 A 
ATOM      5  C   UNL     1       5.563   3.694  16.220  0.00  0.00    +0.000 A 
ATOM      6  C   UNL     1       4.689   3.618  17.318  0.00  0.00    +0.000 A 
ENDROOT
BRANCH   1   9
ATOM      7  O   UNL     1       2.028   5.022  18.481  0.00  0.00    +0.000 OA
ATOM      8  C   UNL     1       2.643   4.632  19.475  0.00  0.00    +0.000 C 
ATOM      9  N   UNL     1       3.987   4.287  19.527  0.00  0.00    +0.000 N 
ATOM     10  H   UNL     1       4.305   3.845  20.387  0.00  0.00    +0.000 HD
BRANCH   8  11
ATOM     11  C   UNL     1       1.938   4.470  20.793  0.00  0.00    +0.000 C 
ATOM     12  F   UNL     1       0.985   5.443  20.960  0.00  0.00    +0.000 F 
BRANCH  11  13
ATOM     13  C   UNL     1       1.317   3.088  20.834  0.00  0.00    +0.000 C 
ATOM     14  F   UNL     1       0.970   2.672  22.070  0.00  0.00    +0.000 F 
ATOM     15  F   UNL     1       0.210   3.025  20.053  0.00  0.00    +0.000 F 
ATOM     16  F   UNL     1       2.182   2.160  20.347  0.00  0.00    +0.000 F 
ENDBRANCH  11  13
ENDBRANCH   8  11
ENDBRANCH   1   9
BRANCH   4  17
ATOM     17  O   UNL     1       7.596   4.691  15.282  0.00  0.00    +0.000 OA
BRANCH  17  18
ATOM     18  C   UNL     1       7.122   4.861  13.954  0.00  0.00    +0.000 C 
ATOM     19  F   UNL     1       6.809   3.712  13.320  0.00  0.00    +0.000 F 
ATOM     20  F   UNL     1       6.024   5.649  13.981  0.00  0.00    +0.000 F 
ATOM     21  F   UNL     1       8.073   5.494  13.231  0.00  0.00    +0.000 F 
ENDBRANCH  17  18
ENDBRANCH   4  17
TORSDOF 5
ENDMDL
MODEL 2
REMARK VINA RESULT:      -7.2      1.517      1.871
REMARK  Name = 
REMARK  5 active torsions:
REMARK  status: ('A' for Active; 'I' for Inactive)
REMARK    1  A    between atoms: C_2  and  C_15
REMARK    2  A    between atoms: N_3  and  C_4
REMARK    3  A    between atoms: C_7  and  O_8
REMARK    4  A    between atoms: O_8  and  C_9
REMARK    5  A    between atoms: C_15  and  C_17
REMARK                            x       y       z     vdW  Elec       q    Type
REMARK                         _______ _______ _______ _____ _____    ______ ____
ROOT
ATOM      1  C   UNL     1       3.874   5.068  17.934  0.00  0.00    +0.000 A 
ATOM      2  C   UNL     1       4.030   4.079  16.964  0.00  0.00    +0.000 A 
ATOM      3  C   UNL     1       4.741   4.341  15.789  0.00  0.00    +0.000 A 
ATOM      4  C   UNL     1       5.293   5.600  15.554  0.00  0.00    +0.000 A 
ATOM      5  C   UNL     1       5.154   6.589  16.522  0.00  0.00    +0.000 A 
ATOM      6  C   UNL     1       4.425   6.331  17.696  0.00  0.00    +0.000 A 
ENDROOT
BRANCH   1   9
ATOM      7  O   UNL     1       4.332   3.008  20.022  0.00  0.00    +0.000 OA
ATOM      8  C   UNL     1       3.438   3.853  20.081  0.00  0.00    +0.000 C 
ATOM      9  N   UNL     1       3.192   4.855  19.151  0.00  0.00    +0.000 N 
ATOM     10  H   UNL     1       2.509   5.560  19.421  0.00  0.00    +0.000 HD
BRANCH   8  11
ATOM     11  C   UNL     1       2.490   3.882  21.249  0.00  0.00    +0.000 C 
ATOM     12  F   UNL     1       2.082   5.165  21.514  0.00  0.00    +0.000 F 
BRANCH  11  13
ATOM     13  C   UNL     1       1.307   2.992  20.923  0.00  0.00    +0.000 C 
ATOM     14  F   UNL     1       0.743   2.406  21.999  0.00  0.00    +0.000 F 
ATOM     15  F   UNL     1       0.337   3.684  20.275  0.00  0.00    +0.000 F 
ATOM     16  F   UNL     1       1.681   1.986  20.091  0.00  0.00    +0.000 F 
ENDBRANCH  11  13
ENDBRANCH   8  11
ENDBRANCH   1   9
BRANCH   4  17
ATOM     17  O   UNL     1       6.023   5.699  14.410  0.00  0.00    +0.000 OA
BRANCH  17  18
ATOM     18  C   UNL     1       7.120   4.822  14.202  0.00  0.00    +0.000 C 
ATOM     19  F   UNL     1       7.729   4.407  15.332  0.00  0.00    +0.000 F 
ATOM     20  F   UNL     1       6.687   3.735  13.525  0.00  0.00    +0.000 F 
ATOM     21  F   UNL     1       8.040   5.452  13.437  0.00  0.00    +0.000 F 
ENDBRANCH  17  18
ENDBRANCH   4  17
TORSDOF 5
ENDMDL
MODEL 3
REMARK VINA RESULT:      -7.2      1.645      7.457
REMARK  Name = 
REMARK  5 active torsions:
REMARK  status: ('A' for Active; 'I' for Inactive)
REMARK    1  A    between atoms: C_2  and  C_15
REMARK    2  A    between atoms: N_3  and  C_4
REMARK    3  A    between atoms: C_7  and  O_8
REMARK    4  A    between atoms: O_8  and  C_9
REMARK    5  A    between atoms: C_15  and  C_17
REMARK                            x       y       z     vdW  Elec       q    Type
REMARK                         _______ _______ _______ _____ _____    ______ ____
ROOT
ATOM      1  C   UNL     1       4.558   4.431  16.806  0.00  0.00    +0.000 A 
ATOM      2  C   UNL     1       4.363   3.151  17.325  0.00  0.00    +0.000 A 
ATOM      3  C   UNL     1       3.770   2.975  18.578  0.00  0.00    +0.000 A 
ATOM      4  C   UNL     1       3.379   4.073  19.345  0.00  0.00    +0.000 A 
ATOM      5  C   UNL     1       3.558   5.352  18.830  0.00  0.00    +0.000 A 
ATOM      6  C   UNL     1       4.169   5.531  17.578  0.00  0.00    +0.000 A 
ENDROOT
BRANCH   1   9
ATOM      7  O   UNL     1       7.412   4.489  15.991  0.00  0.00    +0.000 OA
ATOM      8  C   UNL     1       6.476   4.711  15.220  0.00  0.00    +0.000 C 
ATOM      9  N   UNL     1       5.125   4.672  15.536  0.00  0.00    +0.000 N 
ATOM     10  H   UNL     1       4.478   4.735  14.752  0.00  0.00    +0.000 HD
BRANCH   8  11
ATOM     11  C   UNL     1       6.739   5.045  13.778  0.00  0.00    +0.000 C 
ATOM     12  F   UNL     1       8.064   5.340  13.578  0.00  0.00    +0.000 F 
BRANCH  11  13
ATOM     13  C   UNL     1       6.312   3.863  12.930  0.00  0.00    +0.000 C 
ATOM     14  F   UNL     1       6.423   2.669  13.548  0.00  0.00    +0.000 F 
ATOM     15  F   UNL     1       5.027   3.995  12.517  0.00  0.00    +0.000 F 
ATOM     16  F   UNL     1       7.069   3.783  11.805  0.00  0.00    +0.000 F 
ENDBRANCH  11  13
ENDBRANCH   8  11
ENDBRANCH   1   9
BRANCH   4  17
ATOM     17  O   UNL     1       2.748   3.760  20.508  0.00  0.00    +0.000 OA
BRANCH  17  18
ATOM     18  C   UNL     1       1.330   3.811  20.572  0.00  0.00    +0.000 C 
ATOM     19  F   UNL     1       0.822   5.042  20.789  0.00  0.00    +0.000 F 
ATOM     20  F   UNL     1       0.824   3.338  19.411  0.00  0.00    +0.000 F 
ATOM     21  F   UNL     1       0.910   3.002  21.571  0.00  0.00    +0.000 F 
ENDBRANCH  17  18
ENDBRANCH   4  17
TORSDOF 5
ENDMDL
MODEL 4
REMARK VINA RESULT:      -7.2      1.174      1.786
REMARK  Name = 
REMARK  5 active torsions:
REMARK  status: ('A' for Active; 'I' for Inactive)
REMARK    1  A    between atoms: C_2  and  C_15
REMARK    2  A    between atoms: N_3  and  C_4
REMARK    3  A    between atoms: C_7  and  O_8
REMARK    4  A    between atoms: O_8  and  C_9
REMARK    5  A    between atoms: C_15  and  C_17
REMARK                            x       y       z     vdW  Elec       q    Type
REMARK                         _______ _______ _______ _____ _____    ______ ____
ROOT
ATOM      1  C   UNL     1       4.726   4.392  18.476  0.00  0.00    +0.000 A 
ATOM      2  C   UNL     1       4.457   3.803  17.242  0.00  0.00    +0.000 A 
ATOM      3  C   UNL     1       5.393   3.864  16.205  0.00  0.00    +0.000 A 
ATOM      4  C   UNL     1       6.607   4.529  16.376  0.00  0.00    +0.000 A 
ATOM      5  C   UNL     1       6.890   5.109  17.609  0.00  0.00    +0.000 A 
ATOM      6  C   UNL     1       5.942   5.063  18.645  0.00  0.00    +0.000 A 
ENDROOT
BRANCH   1   9
ATOM      7  O   UNL     1       4.288   2.225  20.456  0.00  0.00    +0.000 OA
ATOM      8  C   UNL     1       3.656   3.283  20.450  0.00  0.00    +0.000 C 
ATOM      9  N   UNL     1       3.834   4.341  19.568  0.00  0.00    +0.000 N 
ATOM     10  H   UNL     1       3.333   5.199  19.789  0.00  0.00    +0.000 HD
BRANCH   8  11
ATOM     11  C   UNL     1       2.583   3.538  21.473  0.00  0.00    +0.000 C 
ATOM     12  F   UNL     1       2.410   4.884  21.673  0.00  0.00    +0.000 F 
BRANCH  11  13
ATOM     13  C   UNL     1       1.301   2.890  20.990  0.00  0.00    +0.000 C 
ATOM     14  F   UNL     1       1.479   1.949  20.040  0.00  0.00    +0.000 F 
ATOM     15  F   UNL     1       0.626   2.316  22.016  0.00  0.00    +0.000 F 
ATOM     16  F   UNL     1       0.467   3.821  20.456  0.00  0.00    +0.000 F 
ENDBRANCH  11  13
ENDBRANCH   8  11
ENDBRANCH   1   9
BRANCH   4  17
ATOM     17  O   UNL     1       7.457   4.448  15.317  0.00  0.00    +0.000 OA
BRANCH  17  18
ATOM     18  C   UNL     1       6.985   4.764  14.016  0.00  0.00    +0.000 C 
ATOM     19  F   UNL     1       6.592   3.698  13.288  0.00  0.00    +0.000 F 
ATOM     20  F   UNL     1       5.942   5.617  14.125  0.00  0.00    +0.000 F 
ATOM     21  F   UNL     1       7.971   5.394  13.338  0.00  0.00    +0.000 F 
ENDBRANCH  17  18
ENDBRANCH   4  17
TORSDOF 5
ENDMDL
MODEL 5
REMARK VINA RESULT:      -7.2      1.294      1.428
REMARK  Name = 
REMARK  5 active torsions:
REMARK  status: ('A' for Active; 'I' for Inactive)
REMARK    1  A    between atoms: C_2  and  C_15
REMARK    2  A    between atoms: N_3  and  C_4
REMARK    3  A    between atoms: C_7  and  O_8
REMARK    4  A    between atoms: O_8  and  C_9
REMARK    5  A    between atoms: C_15  and  C_17
REMARK                            x       y       z     vdW  Elec       q    Type
REMARK                         _______ _______ _______ _____ _____    ______ ____
ROOT
ATOM      1  C   UNL     1       3.993   5.039  17.951  0.00  0.00    +0.000 A 
ATOM      2  C   UNL     1       4.398   6.309  17.540  0.00  0.00    +0.000 A 
ATOM      3  C   UNL     1       5.107   6.478  16.347  0.00  0.00    +0.000 A 
ATOM      4  C   UNL     1       5.440   5.381  15.552  0.00  0.00    +0.000 A 
ATOM      5  C   UNL     1       5.029   4.113  15.947  0.00  0.00    +0.000 A 
ATOM      6  C   UNL     1       4.332   3.940  17.155  0.00  0.00    +0.000 A 
ENDROOT
BRANCH   1   9
ATOM      7  O   UNL     1       1.232   3.999  18.272  0.00  0.00    +0.000 OA
ATOM      8  C   UNL     1       1.947   4.341  19.215  0.00  0.00    +0.000 C 
ATOM      9  N   UNL     1       3.252   4.808  19.129  0.00  0.00    +0.000 N 
ATOM     10  H   UNL     1       3.753   4.907  20.010  0.00  0.00    +0.000 HD
BRANCH   8  11
ATOM     11  C   UNL     1       1.440   4.256  20.628  0.00  0.00    +0.000 C 
ATOM     12  F   UNL     1       0.097   4.536  20.682  0.00  0.00    +0.000 F 
BRANCH  11  13
ATOM     13  C   UNL     1       1.726   2.864  21.155  0.00  0.00    +0.000 C 
ATOM     14  F   UNL     1       0.908   2.471  22.153  0.00  0.00    +0.000 F 
ATOM     15  F   UNL     1       1.643   1.940  20.166  0.00  0.00    +0.000 F 
ATOM     16  F   UNL     1       2.991   2.789  21.644  0.00  0.00    +0.000 F 
ENDBRANCH  11  13
ENDBRANCH   8  11
ENDBRANCH   1   9
BRANCH   4  17
ATOM     17  O   UNL     1       6.062   5.692  14.383  0.00  0.00    +0.000 OA
BRANCH  17  18
ATOM     18  C   UNL     1       7.105   4.857  13.901  0.00  0.00    +0.000 C 
ATOM     19  F   UNL     1       6.683   3.747  13.261  0.00  0.00    +0.000 F 
ATOM     20  F   UNL     1       7.880   5.572  13.055  0.00  0.00    +0.000 F 
ATOM     21  F   UNL     1       7.872   4.472  14.947  0.00  0.00    +0.000 F 
ENDBRANCH  17  18
ENDBRANCH   4  17
TORSDOF 5
ENDMDL
MODEL 6
REMARK VINA RESULT:      -7.2      3.213      3.646
REMARK  Name = 
REMARK  5 active torsions:
REMARK  status: ('A' for Active; 'I' for Inactive)
REMARK    1  A    between atoms: C_2  and  C_15
REMARK    2  A    between atoms: N_3  and  C_4
REMARK    3  A    between atoms: C_7  and  O_8
REMARK    4  A    between atoms: O_8  and  C_9
REMARK    5  A    between atoms: C_15  and  C_17
REMARK                            x       y       z     vdW  Elec       q    Type
REMARK                         _______ _______ _______ _____ _____    ______ ____
ROOT
ATOM      1  C   UNL     1       5.060   5.179  18.684  0.00  0.00    +0.000 A 
ATOM      2  C   UNL     1       6.391   5.162  19.100  0.00  0.00    +0.000 A 
ATOM      3  C   UNL     1       7.327   6.027  18.525  0.00  0.00    +0.000 A 
ATOM      4  C   UNL     1       6.955   6.912  17.513  0.00  0.00    +0.000 A 
ATOM      5  C   UNL     1       5.627   6.945  17.101  0.00  0.00    +0.000 A 
ATOM      6  C   UNL     1       4.689   6.064  17.666  0.00  0.00    +0.000 A 
ENDROOT
BRANCH   1   9
ATOM      7  O   UNL     1       3.885   2.664  17.634  0.00  0.00    +0.000 OA
ATOM      8  C   UNL     1       3.535   3.192  18.691  0.00  0.00    +0.000 C 
ATOM      9  N   UNL     1       4.065   4.351  19.244  0.00  0.00    +0.000 N 
ATOM     10  H   UNL     1       3.767   4.572  20.193  0.00  0.00    +0.000 HD
BRANCH   8  11
ATOM     11  C   UNL     1       2.449   2.577  19.530  0.00  0.00    +0.000 C 
ATOM     12  F   UNL     1       2.665   2.821  20.863  0.00  0.00    +0.000 F 
BRANCH  11  13
ATOM     13  C   UNL     1       1.120   3.148  19.081  0.00  0.00    +0.000 C 
ATOM     14  F   UNL     1       1.215   4.072  18.102  0.00  0.00    +0.000 F 
ATOM     15  F   UNL     1       0.288   2.170  18.644  0.00  0.00    +0.000 F 
ATOM     16  F   UNL     1       0.485   3.755  20.118  0.00  0.00    +0.000 F 
ENDBRANCH  11  13
ENDBRANCH   8  11
ENDBRANCH   1   9
BRANCH   4  17
ATOM     17  O   UNL     1       7.943   7.749  17.095  0.00  0.00    +0.000 OA
BRANCH  17  18
ATOM     18  C   UNL     1       8.253   8.903  17.862  0.00  0.00    +0.000 C 
ATOM     19  F   UNL     1       7.195   9.693  18.141  0.00  0.00    +0.000 F 
ATOM     20  F   UNL     1       8.816   8.513  19.028  0.00  0.00    +0.000 F 
ATOM     21  F   UNL     1       9.161   9.642  17.186  0.00  0.00    +0.000 F 
ENDBRANCH  17  18
ENDBRANCH   4  17
TORSDOF 5
ENDMDL
MODEL 7
REMARK VINA RESULT:      -7.2      1.613      7.434
REMARK  Name = 
REMARK  5 active torsions:
REMARK  status: ('A' for Active; 'I' for Inactive)
REMARK    1  A    between atoms: C_2  and  C_15
REMARK    2  A    between atoms: N_3  and  C_4
REMARK    3  A    between atoms: C_7  and  O_8
REMARK    4  A    between atoms: O_8  and  C_9
REMARK    5  A    between atoms: C_15  and  C_17
REMARK                            x       y       z     vdW  Elec       q    Type
REMARK                         _______ _______ _______ _____ _____    ______ ____
ROOT
ATOM      1  C   UNL     1       4.465   4.423  16.861  0.00  0.00    +0.000 A 
ATOM      2  C   UNL     1       4.178   5.426  17.786  0.00  0.00    +0.000 A 
ATOM      3  C   UNL     1       3.605   5.111  19.021  0.00  0.00    +0.000 A 
ATOM      4  C   UNL     1       3.291   3.792  19.349  0.00  0.00    +0.000 A 
ATOM      5  C   UNL     1       3.586   2.784  18.438  0.00  0.00    +0.000 A 
ATOM      6  C   UNL     1       4.146   3.100  17.189  0.00  0.00    +0.000 A 
ENDROOT
BRANCH   1   9
ATOM      7  O   UNL     1       7.341   4.475  16.128  0.00  0.00    +0.000 OA
ATOM      8  C   UNL     1       6.429   4.709  15.333  0.00  0.00    +0.000 C 
ATOM      9  N   UNL     1       5.069   4.674  15.611  0.00  0.00    +0.000 N 
ATOM     10  H   UNL     1       4.445   4.748  14.809  0.00  0.00    +0.000 HD
BRANCH   8  11
ATOM     11  C   UNL     1       6.734   5.057  13.902  0.00  0.00    +0.000 C 
ATOM     12  F   UNL     1       8.067   5.341  13.742  0.00  0.00    +0.000 F 
BRANCH  11  13
ATOM     13  C   UNL     1       6.318   3.890  13.030  0.00  0.00    +0.000 C 
ATOM     14  F   UNL     1       7.049   3.750  11.905  0.00  0.00    +0.000 F 
ATOM     15  F   UNL     1       6.385   2.720  13.712  0.00  0.00    +0.000 F 
ATOM     16  F   UNL     1       5.026   4.027  12.631  0.00  0.00    +0.000 F 
ENDBRANCH  11  13
ENDBRANCH   8  11
ENDBRANCH   1   9
BRANCH   4  17
ATOM     17  O   UNL     1       2.809   3.616  20.608  0.00  0.00    +0.000 OA
BRANCH  17  18
ATOM     18  C   UNL     1       1.412   3.456  20.808  0.00  0.00    +0.000 C 
ATOM     19  F   UNL     1       0.796   2.700  19.875  0.00  0.00    +0.000 F 
ATOM     20  F   UNL     1       1.207   2.893  22.020  0.00  0.00    +0.000 F 
ATOM     21  F   UNL     1       0.831   4.677  20.809  0.00  0.00    +0.000 F 
ENDBRANCH  17  18
ENDBRANCH   4  17
TORSDOF 5
ENDMDL
MODEL 8
REMARK VINA RESULT:      -7.2      1.435      1.870
REMARK  Name = 
REMARK  5 active torsions:
REMARK  status: ('A' for Active; 'I' for Inactive)
REMARK    1  A    between atoms: C_2  and  C_15
REMARK    2  A    between atoms: N_3  and  C_4
REMARK    3  A    between atoms: C_7  and  O_8
REMARK    4  A    between atoms: O_8  and  C_9
REMARK    5  A    between atoms: C_15  and  C_17
REMARK                            x       y       z     vdW  Elec       q    Type
REMARK                         _______ _______ _______ _____ _____    ______ ____
ROOT
ATOM      1  C   UNL     1       4.725   4.828  17.368  0.00  0.00    +0.000 A 
ATOM      2  C   UNL     1       5.249   3.628  16.889  0.00  0.00    +0.000 A 
ATOM      3  C   UNL     1       5.888   3.577  15.647  0.00  0.00    +0.000 A 
ATOM      4  C   UNL     1       6.001   4.718  14.853  0.00  0.00    +0.000 A 
ATOM      5  C   UNL     1       5.493   5.922  15.329  0.00  0.00    +0.000 A 
ATOM      6  C   UNL     1       4.835   5.971  16.569  0.00  0.00    +0.000 A 
ENDROOT
BRANCH   1   9
ATOM      7  O   UNL     1       1.839   4.710  18.051  0.00  0.00    +0.000 OA
ATOM      8  C   UNL     1       2.729   4.910  18.879  0.00  0.00    +0.000 C 
ATOM      9  N   UNL     1       4.094   4.949  18.625  0.00  0.00    +0.000 N 
ATOM     10  H   UNL     1       4.702   4.978  19.440  0.00  0.00    +0.000 HD
BRANCH   8  11
ATOM     11  C   UNL     1       2.390   5.122  20.329  0.00  0.00    +0.000 C 
ATOM     12  F   UNL     1       1.401   6.064  20.466  0.00  0.00    +0.000 F 
BRANCH  11  13
ATOM     13  C   UNL     1       1.960   3.794  20.917  0.00  0.00    +0.000 C 
ATOM     14  F   UNL     1       0.640   3.537  20.802  0.00  0.00    +0.000 F 
ATOM     15  F   UNL     1       2.631   2.764  20.344  0.00  0.00    +0.000 F 
ATOM     16  F   UNL     1       2.245   3.744  22.245  0.00  0.00    +0.000 F 
ENDBRANCH  11  13
ENDBRANCH   8  11
ENDBRANCH   1   9
BRANCH   4  17
ATOM     17  O   UNL     1       6.710   4.547  13.706  0.00  0.00    +0.000 OA
BRANCH  17  18
ATOM     18  C   UNL     1       6.150   3.792  12.641  0.00  0.00    +0.000 C 
ATOM     19  F   UNL     1       6.416   2.470  12.691  0.00  0.00    +0.000 F 
ATOM     20  F   UNL     1       4.808   3.961  12.647  0.00  0.00    +0.000 F 
ATOM     21  F   UNL     1       6.627   4.272  11.471  0.00  0.00    +0.000 F 
ENDBRANCH  17  18
ENDBRANCH   4  17
TORSDOF 5
ENDMDL
MODEL 9
REMARK VINA RESULT:      -7.2      1.648      7.450
REMARK  Name = 
REMARK  5 active torsions:
REMARK  status: ('A' for Active; 'I' for Inactive)
REMARK    1  A    between atoms: C_2  and  C_15
REMARK    2  A    between atoms: N_3  and  C_4
REMARK    3  A    between atoms: C_7  and  O_8
REMARK    4  A    between atoms: O_8  and  C_9
REMARK    5  A    between atoms: C_15  and  C_17
REMARK                            x       y       z     vdW  Elec       q    Type
REMARK                         _______ _______ _______ _____ _____    ______ ____
ROOT
ATOM      1  C   UNL     1       4.473   4.482  16.747  0.00  0.00    +0.000 A 
ATOM      2  C   UNL     1       4.029   5.506  17.582  0.00  0.00    +0.000 A 
ATOM      3  C   UNL     1       3.454   5.214  18.822  0.00  0.00    +0.000 A 
ATOM      4  C   UNL     1       3.296   3.894  19.244  0.00  0.00    +0.000 A 
ATOM      5  C   UNL     1       3.748   2.866  18.423  0.00  0.00    +0.000 A 
ATOM      6  C   UNL     1       4.310   3.158  17.169  0.00  0.00    +0.000 A 
ENDROOT
BRANCH   1   9
ATOM      7  O   UNL     1       7.354   4.512  16.033  0.00  0.00    +0.000 OA
ATOM      8  C   UNL     1       6.449   4.740  15.229  0.00  0.00    +0.000 C 
ATOM      9  N   UNL     1       5.086   4.714  15.498  0.00  0.00    +0.000 N 
ATOM     10  H   UNL     1       4.468   4.780  14.691  0.00  0.00    +0.000 HD
BRANCH   8  11
ATOM     11  C   UNL     1       6.764   5.067  13.796  0.00  0.00    +0.000 C 
ATOM     12  F   UNL     1       8.103   5.326  13.638  0.00  0.00    +0.000 F 
BRANCH  11  13
ATOM     13  C   UNL     1       6.331   3.898  12.934  0.00  0.00    +0.000 C 
ATOM     14  F   UNL     1       5.053   3.967  12.508  0.00  0.00    +0.000 F 
ATOM     15  F   UNL     1       7.123   3.776  11.840  0.00  0.00    +0.000 F 
ATOM     16  F   UNL     1       6.444   2.731  13.620  0.00  0.00    +0.000 F 
ENDBRANCH  11  13
ENDBRANCH   8  11
ENDBRANCH   1   9
BRANCH   4  17
ATOM     17  O   UNL     1       2.793   3.752  20.500  0.00  0.00    +0.000 OA
BRANCH  17  18
ATOM     18  C   UNL     1       1.387   3.693  20.689  0.00  0.00    +0.000 C 
ATOM     19  F   UNL     1       0.782   4.895  20.779  0.00  0.00    +0.000 F 
ATOM     20  F   UNL     1       0.837   3.012  19.659  0.00  0.00    +0.000 F 
ATOM     21  F   UNL     1       1.131   3.008  21.827  0.00  0.00    +0.000 F 
ENDBRANCH  17  18
ENDBRANCH   4  17
TORSDOF 5
ENDMDL
