MODEL 1
REMARK VINA RESULT:      -8.8      0.000      0.000
REMARK  Name = 
REMARK  8 active torsions:
REMARK  status: ('A' for Active; 'I' for Inactive)
REMARK    1  A    between atoms: C_1  and  C_2
REMARK    2  A    between atoms: C_8  and  C_9
REMARK    3  A    between atoms: C_13  and  O_14
REMARK    4  A    between atoms: O_14  and  C_15
REMARK    5  A    between atoms: C_15  and  C_16
REMARK    6  A    between atoms: C_16  and  N_17
REMARK    7  A    between atoms: C_16  and  C_18
REMARK    8  A    between atoms: C_18  and  C_19
REMARK                            x       y       z     vdW  Elec       q    Type
REMARK                         _______ _______ _______ _____ _____    ______ ____
ROOT
ATOM      1  C   UNL     1       3.724   4.915  18.884  0.00  0.00    +0.000 A 
ATOM      2  C   UNL     1       3.349   3.633  19.294  0.00  0.00    +0.000 A 
ATOM      3  N   UNL     1       2.360   3.357  20.179  0.00  0.00    +0.000 NA
ATOM      4  C   UNL     1       1.706   4.419  20.702  0.00  0.00    +0.000 A 
ATOM      5  C   UNL     1       1.986   5.740  20.387  0.00  0.00    +0.000 A 
ATOM      6  C   UNL     1       3.001   5.976  19.460  0.00  0.00    +0.000 A 
ENDROOT
BRANCH   1  14
ATOM      7  C   UNL     1       5.116   3.763  13.396  0.00  0.00    +0.000 C 
ATOM      8  C   UNL     1       5.999   4.531  14.307  0.00  0.00    +0.000 A 
ATOM      9  N   UNL     1       7.189   4.977  13.888  0.00  0.00    +0.000 NA
ATOM     10  N   UNL     1       7.693   5.604  14.966  0.00  0.00    +0.000 N 
ATOM     11  C   UNL     1       6.880   5.571  16.066  0.00  0.00    +0.000 A 
ATOM     12  C   UNL     1       7.033   6.080  17.355  0.00  0.00    +0.000 A 
ATOM     13  C   UNL     1       5.984   5.849  18.260  0.00  0.00    +0.000 A 
ATOM     14  C   UNL     1       4.811   5.154  17.905  0.00  0.00    +0.000 A 
ATOM     15  C   UNL     1       4.704   4.678  16.581  0.00  0.00    +0.000 A 
ATOM     16  C   UNL     1       5.751   4.877  15.661  0.00  0.00    +0.000 A 
ATOM     17  H   UNL     1       8.608   6.033  14.886  0.00  0.00    +0.000 HD
ENDBRANCH   1  14
BRANCH   5  18
ATOM     18  O   UNL     1       1.232   6.688  21.018  0.00  0.00    +0.000 OA
BRANCH  18  19
ATOM     19  C   UNL     1       1.578   8.057  20.778  0.00  0.00    +0.000 C 
BRANCH  19  20
ATOM     20  C   UNL     1       0.321   8.935  20.977  0.00  0.00    +0.000 C 
BRANCH  20  21
ATOM     21  N   UNL     1       0.081   9.154  22.418  0.00  0.00    +0.000 NA
ATOM     22  H   UNL     1       0.632   8.496  22.967  0.00  0.00    +0.000 HD
ATOM     23  H   UNL     1      -0.894   8.904  22.609  0.00  0.00    +0.000 HD
ENDBRANCH  20  21
BRANCH  20  24
ATOM     24  C   UNL     1       0.491  10.263  20.210  0.00  0.00    +0.000 C 
BRANCH  24  25
ATOM     25  C   UNL     1      -0.696  10.672  19.371  0.00  0.00    +0.000 A 
ATOM     26  C   UNL     1      -1.635  11.592  19.866  0.00  0.00    +0.000 A 
ATOM     27  C   UNL     1      -2.719  11.990  19.081  0.00  0.00    +0.000 A 
ATOM     28  C   UNL     1      -2.869  11.472  17.801  0.00  0.00    +0.000 A 
ATOM     29  F   UNL     1      -3.900  11.875  17.047  0.00  0.00    +0.000 F 
ATOM     30  C   UNL     1      -1.957  10.550  17.299  0.00  0.00    +0.000 A 
ATOM     31  F   UNL     1      -2.104  10.061  16.059  0.00  0.00    +0.000 F 
ATOM     32  C   UNL     1      -0.881  10.148  18.086  0.00  0.00    +0.000 A 
ATOM     33  F   UNL     1       0.001   9.263  17.598  0.00  0.00    +0.000 F 
ENDBRANCH  24  25
ENDBRANCH  20  24
ENDBRANCH  19  20
ENDBRANCH  18  19
ENDBRANCH   5  18
TORSDOF 7
ENDMDL
MODEL 2
REMARK VINA RESULT:      -8.6      3.191      4.875
REMARK  Name = 
REMARK  8 active torsions:
REMARK  status: ('A' for Active; 'I' for Inactive)
REMARK    1  A    between atoms: C_1  and  C_2
REMARK    2  A    between atoms: C_8  and  C_9
REMARK    3  A    between atoms: C_13  and  O_14
REMARK    4  A    between atoms: O_14  and  C_15
REMARK    5  A    between atoms: C_15  and  C_16
REMARK    6  A    between atoms: C_16  and  N_17
REMARK    7  A    between atoms: C_16  and  C_18
REMARK    8  A    between atoms: C_18  and  C_19
REMARK                            x       y       z     vdW  Elec       q    Type
REMARK                         _______ _______ _______ _____ _____    ______ ____
ROOT
ATOM      1  C   UNL     1       2.361   7.721  18.710  0.00  0.00    +0.000 A 
ATOM      2  C   UNL     1       2.311   8.569  17.601  0.00  0.00    +0.000 A 
ATOM      3  N   UNL     1       1.768   9.811  17.594  0.00  0.00    +0.000 NA
ATOM      4  C   UNL     1       1.229  10.239  18.758  0.00  0.00    +0.000 A 
ATOM      5  C   UNL     1       1.205   9.493  19.927  0.00  0.00    +0.000 A 
ATOM      6  C   UNL     1       1.789   8.227  19.892  0.00  0.00    +0.000 A 
ENDROOT
BRANCH   1  14
ATOM      7  C   UNL     1       2.380   2.715  21.594  0.00  0.00    +0.000 C 
ATOM      8  C   UNL     1       3.193   2.946  20.376  0.00  0.00    +0.000 A 
ATOM      9  N   UNL     1       3.998   1.988  19.901  0.00  0.00    +0.000 NA
ATOM     10  N   UNL     1       4.564   2.553  18.820  0.00  0.00    +0.000 N 
ATOM     11  C   UNL     1       4.165   3.840  18.584  0.00  0.00    +0.000 A 
ATOM     12  C   UNL     1       4.515   4.761  17.598  0.00  0.00    +0.000 A 
ATOM     13  C   UNL     1       3.911   6.027  17.663  0.00  0.00    +0.000 A 
ATOM     14  C   UNL     1       2.976   6.374  18.658  0.00  0.00    +0.000 A 
ATOM     15  C   UNL     1       2.646   5.395  19.620  0.00  0.00    +0.000 A 
ATOM     16  C   UNL     1       3.255   4.126  19.590  0.00  0.00    +0.000 A 
ATOM     17  H   UNL     1       5.226   2.003  18.283  0.00  0.00    +0.000 HD
ENDBRANCH   1  14
BRANCH   5  18
ATOM     18  O   UNL     1       0.609  10.078  21.008  0.00  0.00    +0.000 OA
BRANCH  18  19
ATOM     19  C   UNL     1      -0.465   9.359  21.625  0.00  0.00    +0.000 C 
BRANCH  19  20
ATOM     20  C   UNL     1      -0.817  10.037  22.969  0.00  0.00    +0.000 C 
BRANCH  20  21
ATOM     21  N   UNL     1       0.148   9.628  24.010  0.00  0.00    +0.000 NA
ATOM     22  H   UNL     1      -0.323   9.076  24.724  0.00  0.00    +0.000 HD
ATOM     23  H   UNL     1       0.457  10.476  24.493  0.00  0.00    +0.000 HD
ENDBRANCH  20  21
BRANCH  20  24
ATOM     24  C   UNL     1      -0.852  11.568  22.782  0.00  0.00    +0.000 C 
BRANCH  24  25
ATOM     25  C   UNL     1      -2.102  12.104  22.127  0.00  0.00    +0.000 A 
ATOM     26  C   UNL     1      -2.123  12.381  20.751  0.00  0.00    +0.000 A 
ATOM     27  C   UNL     1      -3.287  12.853  20.140  0.00  0.00    +0.000 A 
ATOM     28  C   UNL     1      -4.434  13.047  20.901  0.00  0.00    +0.000 A 
ATOM     29  F   UNL     1      -5.551  13.479  20.303  0.00  0.00    +0.000 F 
ATOM     30  C   UNL     1      -4.428  12.791  22.267  0.00  0.00    +0.000 A 
ATOM     31  F   UNL     1      -5.541  12.973  22.993  0.00  0.00    +0.000 F 
ATOM     32  C   UNL     1      -3.264  12.329  22.876  0.00  0.00    +0.000 A 
ATOM     33  F   UNL     1      -3.263  12.077  24.194  0.00  0.00    +0.000 F 
ENDBRANCH  24  25
ENDBRANCH  20  24
ENDBRANCH  19  20
ENDBRANCH  18  19
ENDBRANCH   5  18
TORSDOF 7
ENDMDL
MODEL 3
REMARK VINA RESULT:      -8.5      3.476      9.148
REMARK  Name = 
REMARK  8 active torsions:
REMARK  status: ('A' for Active; 'I' for Inactive)
REMARK    1  A    between atoms: C_1  and  C_2
REMARK    2  A    between atoms: C_8  and  C_9
REMARK    3  A    between atoms: C_13  and  O_14
REMARK    4  A    between atoms: O_14  and  C_15
REMARK    5  A    between atoms: C_15  and  C_16
REMARK    6  A    between atoms: C_16  and  N_17
REMARK    7  A    between atoms: C_16  and  C_18
REMARK    8  A    between atoms: C_18  and  C_19
REMARK                            x       y       z     vdW  Elec       q    Type
REMARK                         _______ _______ _______ _____ _____    ______ ____
ROOT
ATOM      1  C   UNL     1       1.060   9.320  19.490  0.00  0.00    +0.000 A 
ATOM      2  C   UNL     1       1.160   8.402  20.538  0.00  0.00    +0.000 A 
ATOM      3  N   UNL     1       1.919   7.280  20.521  0.00  0.00    +0.000 NA
ATOM      4  C   UNL     1       2.618   7.043  19.388  0.00  0.00    +0.000 A 
ATOM      5  C   UNL     1       2.599   7.868  18.273  0.00  0.00    +0.000 A 
ATOM      6  C   UNL     1       1.816   9.020  18.341  0.00  0.00    +0.000 A 
ENDROOT
BRANCH   1  14
ATOM      7  C   UNL     1      -2.529  12.025  23.122  0.00  0.00    +0.000 C 
ATOM      8  C   UNL     1      -2.213  12.540  21.768  0.00  0.00    +0.000 A 
ATOM      9  N   UNL     1      -2.779  13.667  21.317  0.00  0.00    +0.000 NA
ATOM     10  N   UNL     1      -2.270  13.808  20.080  0.00  0.00    +0.000 N 
ATOM     11  C   UNL     1      -1.408  12.813  19.711  0.00  0.00    +0.000 A 
ATOM     12  C   UNL     1      -0.692  12.585  18.536  0.00  0.00    +0.000 A 
ATOM     13  C   UNL     1       0.107  11.432  18.489  0.00  0.00    +0.000 A 
ATOM     14  C   UNL     1       0.217  10.536  19.570  0.00  0.00    +0.000 A 
ATOM     15  C   UNL     1      -0.516  10.827  20.741  0.00  0.00    +0.000 A 
ATOM     16  C   UNL     1      -1.343  11.965  20.805  0.00  0.00    +0.000 A 
ATOM     17  H   UNL     1      -2.560  14.610  19.532  0.00  0.00    +0.000 HD
ENDBRANCH   1  14
BRANCH   5  18
ATOM     18  O   UNL     1       3.359   7.470  17.210  0.00  0.00    +0.000 OA
BRANCH  18  19
ATOM     19  C   UNL     1       4.563   6.753  17.506  0.00  0.00    +0.000 C 
BRANCH  19  20
ATOM     20  C   UNL     1       4.805   5.700  16.401  0.00  0.00    +0.000 C 
BRANCH  20  21
ATOM     21  N   UNL     1       6.030   6.034  15.644  0.00  0.00    +0.000 NA
ATOM     22  H   UNL     1       5.833   6.031  14.645  0.00  0.00    +0.000 HD
ATOM     23  H   UNL     1       6.696   5.268  15.784  0.00  0.00    +0.000 HD
ENDBRANCH  20  21
BRANCH  20  24
ATOM     24  C   UNL     1       4.882   4.294  17.033  0.00  0.00    +0.000 C 
BRANCH  24  25
ATOM     25  C   UNL     1       3.712   3.926  17.914  0.00  0.00    +0.000 A 
ATOM     26  C   UNL     1       2.402   3.962  17.410  0.00  0.00    +0.000 A 
ATOM     27  C   UNL     1       1.321   3.597  18.217  0.00  0.00    +0.000 A 
ATOM     28  C   UNL     1       1.546   3.196  19.528  0.00  0.00    +0.000 A 
ATOM     29  F   UNL     1       0.507   2.828  20.288  0.00  0.00    +0.000 F 
ATOM     30  C   UNL     1       2.835   3.168  20.048  0.00  0.00    +0.000 A 
ATOM     31  F   UNL     1       3.044   2.772  21.313  0.00  0.00    +0.000 F 
ATOM     32  C   UNL     1       3.909   3.539  19.246  0.00  0.00    +0.000 A 
ATOM     33  F   UNL     1       5.153   3.506  19.748  0.00  0.00    +0.000 F 
ENDBRANCH  24  25
ENDBRANCH  20  24
ENDBRANCH  19  20
ENDBRANCH  18  19
ENDBRANCH   5  18
TORSDOF 7
ENDMDL
MODEL 4
REMARK VINA RESULT:      -8.5      3.528      8.773
REMARK  Name = 
REMARK  8 active torsions:
REMARK  status: ('A' for Active; 'I' for Inactive)
REMARK    1  A    between atoms: C_1  and  C_2
REMARK    2  A    between atoms: C_8  and  C_9
REMARK    3  A    between atoms: C_13  and  O_14
REMARK    4  A    between atoms: O_14  and  C_15
REMARK    5  A    between atoms: C_15  and  C_16
REMARK    6  A    between atoms: C_16  and  N_17
REMARK    7  A    between atoms: C_16  and  C_18
REMARK    8  A    between atoms: C_18  and  C_19
REMARK                            x       y       z     vdW  Elec       q    Type
REMARK                         _______ _______ _______ _____ _____    ______ ____
ROOT
ATOM      1  C   UNL     1       1.370   9.550  19.068  0.00  0.00    +0.000 A 
ATOM      2  C   UNL     1       1.192   8.796  20.230  0.00  0.00    +0.000 A 
ATOM      3  N   UNL     1       1.729   7.573  20.454  0.00  0.00    +0.000 NA
ATOM      4  C   UNL     1       2.484   7.055  19.459  0.00  0.00    +0.000 A 
ATOM      5  C   UNL     1       2.732   7.695  18.254  0.00  0.00    +0.000 A 
ATOM      6  C   UNL     1       2.171   8.959  18.073  0.00  0.00    +0.000 A 
ENDROOT
BRANCH   1  14
ATOM      7  C   UNL     1       2.744  15.155  19.370  0.00  0.00    +0.000 C 
ATOM      8  C   UNL     1       1.386  14.676  19.016  0.00  0.00    +0.000 A 
ATOM      9  N   UNL     1       0.399  15.545  18.769  0.00  0.00    +0.000 NA
ATOM     10  N   UNL     1      -0.659  14.760  18.499  0.00  0.00    +0.000 N 
ATOM     11  C   UNL     1      -0.397  13.419  18.572  0.00  0.00    +0.000 A 
ATOM     12  C   UNL     1      -1.203  12.298  18.380  0.00  0.00    +0.000 A 
ATOM     13  C   UNL     1      -0.599  11.042  18.550  0.00  0.00    +0.000 A 
ATOM     14  C   UNL     1       0.761  10.889  18.883  0.00  0.00    +0.000 A 
ATOM     15  C   UNL     1       1.533  12.059  19.047  0.00  0.00    +0.000 A 
ATOM     16  C   UNL     1       0.946  13.331  18.903  0.00  0.00    +0.000 A 
ATOM     17  H   UNL     1      -1.542  15.205  18.276  0.00  0.00    +0.000 HD
ENDBRANCH   1  14
BRANCH   5  18
ATOM     18  O   UNL     1       3.509   7.020  17.356  0.00  0.00    +0.000 OA
BRANCH  18  19
ATOM     19  C   UNL     1       4.403   6.034  17.885  0.00  0.00    +0.000 C 
BRANCH  19  20
ATOM     20  C   UNL     1       4.788   5.049  16.758  0.00  0.00    +0.000 C 
BRANCH  20  21
ATOM     21  N   UNL     1       6.205   4.652  16.897  0.00  0.00    +0.000 NA
ATOM     22  H   UNL     1       6.605   4.461  15.980  0.00  0.00    +0.000 HD
ATOM     23  H   UNL     1       6.226   3.752  17.386  0.00  0.00    +0.000 HD
ENDBRANCH  20  21
BRANCH  20  24
ATOM     24  C   UNL     1       3.841   3.832  16.789  0.00  0.00    +0.000 C 
BRANCH  24  25
ATOM     25  C   UNL     1       3.305   3.475  18.155  0.00  0.00    +0.000 A 
ATOM     26  C   UNL     1       4.115   2.803  19.085  0.00  0.00    +0.000 A 
ATOM     27  C   UNL     1       3.627   2.495  20.357  0.00  0.00    +0.000 A 
ATOM     28  C   UNL     1       2.332   2.857  20.704  0.00  0.00    +0.000 A 
ATOM     29  F   UNL     1       1.880   2.577  21.933  0.00  0.00    +0.000 F 
ATOM     30  C   UNL     1       1.511   3.510  19.792  0.00  0.00    +0.000 A 
ATOM     31  F   UNL     1       0.264   3.864  20.138  0.00  0.00    +0.000 F 
ATOM     32  C   UNL     1       1.995   3.809  18.522  0.00  0.00    +0.000 A 
ATOM     33  F   UNL     1       1.203   4.445  17.644  0.00  0.00    +0.000 F 
ENDBRANCH  24  25
ENDBRANCH  20  24
ENDBRANCH  19  20
ENDBRANCH  18  19
ENDBRANCH   5  18
TORSDOF 7
ENDMDL
MODEL 5
REMARK VINA RESULT:      -8.5      2.746      3.818
REMARK  Name = 
REMARK  8 active torsions:
REMARK  status: ('A' for Active; 'I' for Inactive)
REMARK    1  A    between atoms: C_1  and  C_2
REMARK    2  A    between atoms: C_8  and  C_9
REMARK    3  A    between atoms: C_13  and  O_14
REMARK    4  A    between atoms: O_14  and  C_15
REMARK    5  A    between atoms: C_15  and  C_16
REMARK    6  A    between atoms: C_16  and  N_17
REMARK    7  A    between atoms: C_16  and  C_18
REMARK    8  A    between atoms: C_18  and  C_19
REMARK                            x       y       z     vdW  Elec       q    Type
REMARK                         _______ _______ _______ _____ _____    ______ ____
ROOT
ATOM      1  C   UNL     1       4.121   3.228  17.512  0.00  0.00    +0.000 A 
ATOM      2  C   UNL     1       3.034   2.545  16.961  0.00  0.00    +0.000 A 
ATOM      3  N   UNL     1       2.064   1.922  17.673  0.00  0.00    +0.000 NA
ATOM      4  C   UNL     1       2.182   1.967  19.019  0.00  0.00    +0.000 A 
ATOM      5  C   UNL     1       3.216   2.603  19.691  0.00  0.00    +0.000 A 
ATOM      6  C   UNL     1       4.183   3.244  18.918  0.00  0.00    +0.000 A 
ENDROOT
BRANCH   1  14
ATOM      7  C   UNL     1       6.108   3.307  12.087  0.00  0.00    +0.000 C 
ATOM      8  C   UNL     1       6.676   4.151  13.165  0.00  0.00    +0.000 A 
ATOM      9  N   UNL     1       7.709   4.967  12.922  0.00  0.00    +0.000 NA
ATOM     10  N   UNL     1       7.946   5.548  14.111  0.00  0.00    +0.000 N 
ATOM     11  C   UNL     1       7.114   5.134  15.114  0.00  0.00    +0.000 A 
ATOM     12  C   UNL     1       7.036   5.474  16.464  0.00  0.00    +0.000 A 
ATOM     13  C   UNL     1       6.047   4.833  17.228  0.00  0.00    +0.000 A 
ATOM     14  C   UNL     1       5.148   3.898  16.680  0.00  0.00    +0.000 A 
ATOM     15  C   UNL     1       5.262   3.606  15.304  0.00  0.00    +0.000 A 
ATOM     16  C   UNL     1       6.259   4.218  14.521  0.00  0.00    +0.000 A 
ATOM     17  H   UNL     1       8.701   6.221  14.173  0.00  0.00    +0.000 HD
ENDBRANCH   1  14
BRANCH   5  18
ATOM     18  O   UNL     1       3.183   2.540  21.055  0.00  0.00    +0.000 OA
BRANCH  18  19
ATOM     19  C   UNL     1       2.242   3.391  21.720  0.00  0.00    +0.000 C 
BRANCH  19  20
ATOM     20  C   UNL     1       1.745   4.464  20.725  0.00  0.00    +0.000 C 
BRANCH  20  21
ATOM     21  N   UNL     1       0.279   4.366  20.567  0.00  0.00    +0.000 NA
ATOM     22  H   UNL     1      -0.015   4.869  19.731  0.00  0.00    +0.000 HD
ATOM     23  H   UNL     1      -0.149   4.876  21.346  0.00  0.00    +0.000 HD
ENDBRANCH  20  21
BRANCH  20  24
ATOM     24  C   UNL     1       2.182   5.862  21.212  0.00  0.00    +0.000 C 
BRANCH  24  25
ATOM     25  C   UNL     1       2.119   6.950  20.166  0.00  0.00    +0.000 A 
ATOM     26  C   UNL     1       2.738   6.775  18.918  0.00  0.00    +0.000 A 
ATOM     27  C   UNL     1       2.659   7.770  17.941  0.00  0.00    +0.000 A 
ATOM     28  C   UNL     1       1.961   8.942  18.208  0.00  0.00    +0.000 A 
ATOM     29  F   UNL     1       1.872   9.882  17.258  0.00  0.00    +0.000 F 
ATOM     30  C   UNL     1       1.354   9.139  19.443  0.00  0.00    +0.000 A 
ATOM     31  F   UNL     1       0.675  10.269  19.689  0.00  0.00    +0.000 F 
ATOM     32  C   UNL     1       1.441   8.149  20.418  0.00  0.00    +0.000 A 
ATOM     33  F   UNL     1       0.848   8.339  21.607  0.00  0.00    +0.000 F 
ENDBRANCH  24  25
ENDBRANCH  20  24
ENDBRANCH  19  20
ENDBRANCH  18  19
ENDBRANCH   5  18
TORSDOF 7
ENDMDL
MODEL 6
REMARK VINA RESULT:      -8.5      2.283      3.757
REMARK  Name = 
REMARK  8 active torsions:
REMARK  status: ('A' for Active; 'I' for Inactive)
REMARK    1  A    between atoms: C_1  and  C_2
REMARK    2  A    between atoms: C_8  and  C_9
REMARK    3  A    between atoms: C_13  and  O_14
REMARK    4  A    between atoms: O_14  and  C_15
REMARK    5  A    between atoms: C_15  and  C_16
REMARK    6  A    between atoms: C_16  and  N_17
REMARK    7  A    between atoms: C_16  and  C_18
REMARK    8  A    between atoms: C_18  and  C_19
REMARK                            x       y       z     vdW  Elec       q    Type
REMARK                         _______ _______ _______ _____ _____    ______ ____
ROOT
ATOM      1  C   UNL     1       2.233   7.409  19.079  0.00  0.00    +0.000 A 
ATOM      2  C   UNL     1       1.818   7.314  20.410  0.00  0.00    +0.000 A 
ATOM      3  N   UNL     1       1.159   8.282  21.090  0.00  0.00    +0.000 NA
ATOM      4  C   UNL     1       0.902   9.426  20.415  0.00  0.00    +0.000 A 
ATOM      5  C   UNL     1       1.269   9.652  19.097  0.00  0.00    +0.000 A 
ATOM      6  C   UNL     1       1.931   8.621  18.431  0.00  0.00    +0.000 A 
ENDROOT
BRANCH   1  14
ATOM      7  C   UNL     1       7.369   6.221  16.713  0.00  0.00    +0.000 C 
ATOM      8  C   UNL     1       6.247   5.251  16.733  0.00  0.00    +0.000 A 
ATOM      9  N   UNL     1       6.379   4.044  16.171  0.00  0.00    +0.000 NA
ATOM     10  N   UNL     1       5.183   3.464  16.375  0.00  0.00    +0.000 N 
ATOM     11  C   UNL     1       4.282   4.252  17.037  0.00  0.00    +0.000 A 
ATOM     12  C   UNL     1       2.960   4.036  17.426  0.00  0.00    +0.000 A 
ATOM     13  C   UNL     1       2.311   5.088  18.092  0.00  0.00    +0.000 A 
ATOM     14  C   UNL     1       2.946   6.311  18.384  0.00  0.00    +0.000 A 
ATOM     15  C   UNL     1       4.290   6.466  17.983  0.00  0.00    +0.000 A 
ATOM     16  C   UNL     1       4.957   5.435  17.294  0.00  0.00    +0.000 A 
ATOM     17  H   UNL     1       5.042   2.521  16.030  0.00  0.00    +0.000 HD
ENDBRANCH   1  14
BRANCH   5  18
ATOM     18  O   UNL     1       0.938  10.870  18.575  0.00  0.00    +0.000 OA
BRANCH  18  19
ATOM     19  C   UNL     1       0.672  11.924  19.507  0.00  0.00    +0.000 C 
BRANCH  19  20
ATOM     20  C   UNL     1      -0.717  12.528  19.200  0.00  0.00    +0.000 C 
BRANCH  20  21
ATOM     21  N   UNL     1      -0.711  13.152  17.860  0.00  0.00    +0.000 NA
ATOM     22  H   UNL     1       0.208  13.544  17.663  0.00  0.00    +0.000 HD
ATOM     23  H   UNL     1      -1.341  13.959  17.894  0.00  0.00    +0.000 HD
ENDBRANCH  20  21
BRANCH  20  24
ATOM     24  C   UNL     1      -1.796  11.432  19.322  0.00  0.00    +0.000 C 
BRANCH  24  25
ATOM     25  C   UNL     1      -2.508  11.091  18.034  0.00  0.00    +0.000 A 
ATOM     26  C   UNL     1      -1.893  10.267  17.077  0.00  0.00    +0.000 A 
ATOM     27  C   UNL     1      -2.560   9.930  15.897  0.00  0.00    +0.000 A 
ATOM     28  C   UNL     1      -3.843  10.414  15.671  0.00  0.00    +0.000 A 
ATOM     29  F   UNL     1      -4.483  10.070  14.546  0.00  0.00    +0.000 F 
ATOM     30  C   UNL     1      -4.462  11.242  16.600  0.00  0.00    +0.000 A 
ATOM     31  F   UNL     1      -5.703  11.698  16.377  0.00  0.00    +0.000 F 
ATOM     32  C   UNL     1      -3.792  11.583  17.771  0.00  0.00    +0.000 A 
ATOM     33  F   UNL     1      -4.394  12.377  18.670  0.00  0.00    +0.000 F 
ENDBRANCH  24  25
ENDBRANCH  20  24
ENDBRANCH  19  20
ENDBRANCH  18  19
ENDBRANCH   5  18
TORSDOF 7
ENDMDL
MODEL 7
REMARK VINA RESULT:      -8.5      3.213      4.781
REMARK  Name = 
REMARK  8 active torsions:
REMARK  status: ('A' for Active; 'I' for Inactive)
REMARK    1  A    between atoms: C_1  and  C_2
REMARK    2  A    between atoms: C_8  and  C_9
REMARK    3  A    between atoms: C_13  and  O_14
REMARK    4  A    between atoms: O_14  and  C_15
REMARK    5  A    between atoms: C_15  and  C_16
REMARK    6  A    between atoms: C_16  and  N_17
REMARK    7  A    between atoms: C_16  and  C_18
REMARK    8  A    between atoms: C_18  and  C_19
REMARK                            x       y       z     vdW  Elec       q    Type
REMARK                         _______ _______ _______ _____ _____    ______ ____
ROOT
ATOM      1  C   UNL     1       2.300   7.744  18.557  0.00  0.00    +0.000 A 
ATOM      2  C   UNL     1       2.206   8.804  17.651  0.00  0.00    +0.000 A 
ATOM      3  N   UNL     1       1.656  10.012  17.921  0.00  0.00    +0.000 NA
ATOM      4  C   UNL     1       1.155  10.182  19.166  0.00  0.00    +0.000 A 
ATOM      5  C   UNL     1       1.176   9.208  20.154  0.00  0.00    +0.000 A 
ATOM      6  C   UNL     1       1.766   7.985  19.836  0.00  0.00    +0.000 A 
ENDROOT
BRANCH   1  14
ATOM      7  C   UNL     1       1.243   2.072  18.853  0.00  0.00    +0.000 C 
ATOM      8  C   UNL     1       2.491   2.630  18.279  0.00  0.00    +0.000 A 
ATOM      9  N   UNL     1       3.452   1.820  17.818  0.00  0.00    +0.000 NA
ATOM     10  N   UNL     1       4.408   2.666  17.396  0.00  0.00    +0.000 N 
ATOM     11  C   UNL     1       4.107   3.989  17.575  0.00  0.00    +0.000 A 
ATOM     12  C   UNL     1       4.816   5.155  17.290  0.00  0.00    +0.000 A 
ATOM     13  C   UNL     1       4.201   6.372  17.623  0.00  0.00    +0.000 A 
ATOM     14  C   UNL     1       2.920   6.445  18.204  0.00  0.00    +0.000 A 
ATOM     15  C   UNL     1       2.242   5.233  18.453  0.00  0.00    +0.000 A 
ATOM     16  C   UNL     1       2.845   3.998  18.149  0.00  0.00    +0.000 A 
ATOM     17  H   UNL     1       5.253   2.274  16.996  0.00  0.00    +0.000 HD
ENDBRANCH   1  14
BRANCH   5  18
ATOM     18  O   UNL     1       0.616   9.548  21.353  0.00  0.00    +0.000 OA
BRANCH  18  19
ATOM     19  C   UNL     1      -0.133  10.768  21.396  0.00  0.00    +0.000 C 
BRANCH  19  20
ATOM     20  C   UNL     1      -1.087  10.729  22.611  0.00  0.00    +0.000 C 
BRANCH  20  21
ATOM     21  N   UNL     1      -0.454   9.995  23.727  0.00  0.00    +0.000 NA
ATOM     22  H   UNL     1      -0.529  10.536  24.587  0.00  0.00    +0.000 HD
ATOM     23  H   UNL     1       0.550   9.946  23.532  0.00  0.00    +0.000 HD
ENDBRANCH  20  21
BRANCH  20  24
ATOM     24  C   UNL     1      -1.474  12.168  23.012  0.00  0.00    +0.000 C 
BRANCH  24  25
ATOM     25  C   UNL     1      -2.955  12.459  22.996  0.00  0.00    +0.000 A 
ATOM     26  C   UNL     1      -3.696  12.448  24.189  0.00  0.00    +0.000 A 
ATOM     27  C   UNL     1      -5.062  12.741  24.178  0.00  0.00    +0.000 A 
ATOM     28  C   UNL     1      -5.691  13.046  22.977  0.00  0.00    +0.000 A 
ATOM     29  F   UNL     1      -6.996  13.347  22.979  0.00  0.00    +0.000 F 
ATOM     30  C   UNL     1      -4.976  13.049  21.785  0.00  0.00    +0.000 A 
ATOM     31  F   UNL     1      -5.589  13.353  20.631  0.00  0.00    +0.000 F 
ATOM     32  C   UNL     1      -3.617  12.748  21.796  0.00  0.00    +0.000 A 
ATOM     33  F   UNL     1      -2.929  12.757  20.644  0.00  0.00    +0.000 F 
ENDBRANCH  24  25
ENDBRANCH  20  24
ENDBRANCH  19  20
ENDBRANCH  18  19
ENDBRANCH   5  18
TORSDOF 7
ENDMDL
MODEL 8
REMARK VINA RESULT:      -8.5      3.231      8.628
REMARK  Name = 
REMARK  8 active torsions:
REMARK  status: ('A' for Active; 'I' for Inactive)
REMARK    1  A    between atoms: C_1  and  C_2
REMARK    2  A    between atoms: C_8  and  C_9
REMARK    3  A    between atoms: C_13  and  O_14
REMARK    4  A    between atoms: O_14  and  C_15
REMARK    5  A    between atoms: C_15  and  C_16
REMARK    6  A    between atoms: C_16  and  N_17
REMARK    7  A    between atoms: C_16  and  C_18
REMARK    8  A    between atoms: C_18  and  C_19
REMARK                            x       y       z     vdW  Elec       q    Type
REMARK                         _______ _______ _______ _____ _____    ______ ____
ROOT
ATOM      1  C   UNL     1       0.627   9.000  18.970  0.00  0.00    +0.000 A 
ATOM      2  C   UNL     1       0.913   8.560  20.265  0.00  0.00    +0.000 A 
ATOM      3  N   UNL     1       1.961   7.772  20.605  0.00  0.00    +0.000 NA
ATOM      4  C   UNL     1       2.775   7.383  19.598  0.00  0.00    +0.000 A 
ATOM      5  C   UNL     1       2.597   7.741  18.269  0.00  0.00    +0.000 A 
ATOM      6  C   UNL     1       1.514   8.566  17.968  0.00  0.00    +0.000 A 
ENDROOT
BRANCH   1  14
ATOM      7  C   UNL     1      -3.249   9.939  14.789  0.00  0.00    +0.000 C 
ATOM      8  C   UNL     1      -3.220  10.718  16.050  0.00  0.00    +0.000 A 
ATOM      9  N   UNL     1      -4.097  11.707  16.263  0.00  0.00    +0.000 NA
ATOM     10  N   UNL     1      -3.764  12.175  17.479  0.00  0.00    +0.000 N 
ATOM     11  C   UNL     1      -2.700  11.535  18.055  0.00  0.00    +0.000 A 
ATOM     12  C   UNL     1      -2.048  11.720  19.273  0.00  0.00    +0.000 A 
ATOM     13  C   UNL     1      -0.959  10.876  19.548  0.00  0.00    +0.000 A 
ATOM     14  C   UNL     1      -0.533   9.869  18.660  0.00  0.00    +0.000 A 
ATOM     15  C   UNL     1      -1.243   9.717  17.449  0.00  0.00    +0.000 A 
ATOM     16  C   UNL     1      -2.324  10.564  17.141  0.00  0.00    +0.000 A 
ATOM     17  H   UNL     1      -4.303  12.943  17.860  0.00  0.00    +0.000 HD
ENDBRANCH   1  14
BRANCH   5  18
ATOM     18  O   UNL     1       3.511   7.249  17.381  0.00  0.00    +0.000 OA
BRANCH  18  19
ATOM     19  C   UNL     1       4.446   6.286  17.879  0.00  0.00    +0.000 C 
BRANCH  19  20
ATOM     20  C   UNL     1       4.841   5.329  16.731  0.00  0.00    +0.000 C 
BRANCH  20  21
ATOM     21  N   UNL     1       6.260   4.938  16.866  0.00  0.00    +0.000 NA
ATOM     22  H   UNL     1       6.774   5.660  17.367  0.00  0.00    +0.000 HD
ATOM     23  H   UNL     1       6.667   4.929  15.925  0.00  0.00    +0.000 HD
ENDBRANCH  20  21
BRANCH  20  24
ATOM     24  C   UNL     1       3.901   4.106  16.731  0.00  0.00    +0.000 C 
BRANCH  24  25
ATOM     25  C   UNL     1       3.389   3.695  18.091  0.00  0.00    +0.000 A 
ATOM     26  C   UNL     1       4.211   2.976  18.974  0.00  0.00    +0.000 A 
ATOM     27  C   UNL     1       3.747   2.617  20.242  0.00  0.00    +0.000 A 
ATOM     28  C   UNL     1       2.461   2.975  20.630  0.00  0.00    +0.000 A 
ATOM     29  F   UNL     1       2.032   2.645  21.855  0.00  0.00    +0.000 F 
ATOM     30  C   UNL     1       1.629   3.674  19.764  0.00  0.00    +0.000 A 
ATOM     31  F   UNL     1       0.393   4.023  20.150  0.00  0.00    +0.000 F 
ATOM     32  C   UNL     1       2.090   4.024  18.498  0.00  0.00    +0.000 A 
ATOM     33  F   UNL     1       1.287   4.703  17.666  0.00  0.00    +0.000 F 
ENDBRANCH  24  25
ENDBRANCH  20  24
ENDBRANCH  19  20
ENDBRANCH  18  19
ENDBRANCH   5  18
TORSDOF 7
ENDMDL
MODEL 9
REMARK VINA RESULT:      -8.5      1.098      1.602
REMARK  Name = 
REMARK  8 active torsions:
REMARK  status: ('A' for Active; 'I' for Inactive)
REMARK    1  A    between atoms: C_1  and  C_2
REMARK    2  A    between atoms: C_8  and  C_9
REMARK    3  A    between atoms: C_13  and  O_14
REMARK    4  A    between atoms: O_14  and  C_15
REMARK    5  A    between atoms: C_15  and  C_16
REMARK    6  A    between atoms: C_16  and  N_17
REMARK    7  A    between atoms: C_16  and  C_18
REMARK    8  A    between atoms: C_18  and  C_19
REMARK                            x       y       z     vdW  Elec       q    Type
REMARK                         _______ _______ _______ _____ _____    ______ ____
ROOT
ATOM      1  C   UNL     1       3.767   5.122  18.803  0.00  0.00    +0.000 A 
ATOM      2  C   UNL     1       3.350   3.863  19.241  0.00  0.00    +0.000 A 
ATOM      3  N   UNL     1       2.355   3.639  20.133  0.00  0.00    +0.000 NA
ATOM      4  C   UNL     1       1.738   4.733  20.635  0.00  0.00    +0.000 A 
ATOM      5  C   UNL     1       2.062   6.037  20.291  0.00  0.00    +0.000 A 
ATOM      6  C   UNL     1       3.082   6.219  19.358  0.00  0.00    +0.000 A 
ENDROOT
BRANCH   1  14
ATOM      7  C   UNL     1       5.142   3.735  13.365  0.00  0.00    +0.000 C 
ATOM      8  C   UNL     1       6.038   4.521  14.247  0.00  0.00    +0.000 A 
ATOM      9  N   UNL     1       7.237   4.930  13.814  0.00  0.00    +0.000 NA
ATOM     10  N   UNL     1       7.751   5.589  14.867  0.00  0.00    +0.000 N 
ATOM     11  C   UNL     1       6.936   5.613  15.966  0.00  0.00    +0.000 A 
ATOM     12  C   UNL     1       7.097   6.168  17.235  0.00  0.00    +0.000 A 
ATOM     13  C   UNL     1       6.043   5.991  18.147  0.00  0.00    +0.000 A 
ATOM     14  C   UNL     1       4.859   5.304  17.818  0.00  0.00    +0.000 A 
ATOM     15  C   UNL     1       4.744   4.779  16.512  0.00  0.00    +0.000 A 
ATOM     16  C   UNL     1       5.795   4.924  15.587  0.00  0.00    +0.000 A 
ATOM     17  H   UNL     1       8.673   5.998  14.773  0.00  0.00    +0.000 HD
ENDBRANCH   1  14
BRANCH   5  18
ATOM     18  O   UNL     1       1.342   7.023  20.904  0.00  0.00    +0.000 OA
BRANCH  18  19
ATOM     19  C   UNL     1       1.548   8.361  20.437  0.00  0.00    +0.000 C 
BRANCH  19  20
ATOM     20  C   UNL     1       0.656   9.322  21.257  0.00  0.00    +0.000 C 
BRANCH  20  21
ATOM     21  N   UNL     1       1.150   9.406  22.648  0.00  0.00    +0.000 NA
ATOM     22  H   UNL     1       0.442   9.832  23.243  0.00  0.00    +0.000 HD
ATOM     23  H   UNL     1       1.934  10.066  22.656  0.00  0.00    +0.000 HD
ENDBRANCH  20  21
BRANCH  20  24
ATOM     24  C   UNL     1       0.618  10.704  20.573  0.00  0.00    +0.000 C 
BRANCH  24  25
ATOM     25  C   UNL     1      -0.588  10.949  19.697  0.00  0.00    +0.000 A 
ATOM     26  C   UNL     1      -0.704  10.313  18.451  0.00  0.00    +0.000 A 
ATOM     27  C   UNL     1      -1.831  10.520  17.651  0.00  0.00    +0.000 A 
ATOM     28  C   UNL     1      -2.844  11.362  18.095  0.00  0.00    +0.000 A 
ATOM     29  F   UNL     1      -3.930  11.538  17.332  0.00  0.00    +0.000 F 
ATOM     30  C   UNL     1      -2.739  12.011  19.319  0.00  0.00    +0.000 A 
ATOM     31  F   UNL     1      -3.725  12.815  19.743  0.00  0.00    +0.000 F 
ATOM     32  C   UNL     1      -1.612  11.810  20.111  0.00  0.00    +0.000 A 
ATOM     33  F   UNL     1      -1.516  12.434  21.295  0.00  0.00    +0.000 F 
ENDBRANCH  24  25
ENDBRANCH  20  24
ENDBRANCH  19  20
ENDBRANCH  18  19
ENDBRANCH   5  18
TORSDOF 7
ENDMDL
