MODEL 1
REMARK VINA RESULT:      -8.0      0.000      0.000
REMARK  Name = 
REMARK  6 active torsions:
REMARK  status: ('A' for Active; 'I' for Inactive)
REMARK    1  A    between atoms: C_1  and  N_2
REMARK    2  A    between atoms: N_2  and  C_3
REMARK    3  A    between atoms: N_2  and  C_4
REMARK    4  A    between atoms: C_4  and  C_5
REMARK    5  A    between atoms: N_7  and  C_8
REMARK    6  A    between atoms: N_16  and  C_17
REMARK                            x       y       z     vdW  Elec       q    Type
REMARK                         _______ _______ _______ _____ _____    ______ ____
ROOT
ATOM      1  C   UNL     1       1.010   9.674  19.184  0.00  0.00    +0.000 C 
ATOM      2  C   UNL     1       1.258   8.297  19.910  0.00  0.00    +0.000 C 
ATOM      3  C   UNL     1       2.643   7.652  19.678  0.00  0.00    +0.000 C 
ATOM      4  N   UNL     1       2.868   7.631  18.242  0.00  0.00    +0.000 N 
ATOM      5  C   UNL     1       2.983   8.969  17.692  0.00  0.00    +0.000 C 
ATOM      6  C   UNL     1       1.571   9.534  17.744  0.00  0.00    +0.000 C 
ENDROOT
BRANCH   4   7
ATOM      7  C   UNL     1       3.535   6.600  17.607  0.00  0.00    +0.000 A 
ATOM      8  N   UNL     1       4.538   6.884  16.733  0.00  0.00    +0.000 NA
ATOM      9  C   UNL     1       5.183   5.869  16.123  0.00  0.00    +0.000 A 
ATOM     10  N   UNL     1       4.994   4.545  16.268  0.00  0.00    +0.000 NA
ATOM     11  C   UNL     1       4.036   4.291  17.173  0.00  0.00    +0.000 A 
ATOM     12  N   UNL     1       3.667   3.030  17.575  0.00  0.00    +0.000 N 
ATOM     13  C   UNL     1       2.722   3.121  18.557  0.00  0.00    +0.000 A 
ATOM     14  C   UNL     1       2.448   4.457  18.761  0.00  0.00    +0.000 A 
ATOM     15  C   UNL     1       3.277   5.225  17.874  0.00  0.00    +0.000 A 
ATOM     16  C   UNL     1       1.502   4.891  19.822  0.00  0.00    +0.000 C 
ATOM     17  C   UNL     1       0.701   3.760  20.458  0.00  0.00    +0.000 C 
ATOM     18  C   UNL     1       1.543   2.501  20.644  0.00  0.00    +0.000 C 
ATOM     19  C   UNL     1       2.086   1.991  19.293  0.00  0.00    +0.000 C 
ATOM     20  H   UNL     1       4.086   2.183  17.213  0.00  0.00    +0.000 HD
ENDBRANCH   4   7
BRANCH   1  21
ATOM     21  C   UNL     1      -0.543   9.920  18.976  0.00  0.00    +0.000 C 
ATOM     22  O   UNL     1      -1.349   9.562  19.839  0.00  0.00    +0.000 OA
ATOM     23  N   UNL     1      -0.922  10.473  17.763  0.00  0.00    +0.000 N 
ATOM     24  H   UNL     1      -0.214  10.558  17.049  0.00  0.00    +0.000 HD
BRANCH  23  25
ATOM     25  C   UNL     1      -2.242  10.814  17.376  0.00  0.00    +0.000 A 
ATOM     26  C   UNL     1      -3.155  11.463  18.215  0.00  0.00    +0.000 A 
ATOM     27  C   UNL     1      -4.457  11.744  17.781  0.00  0.00    +0.000 A 
ATOM     28  C   UNL     1      -4.858  11.389  16.502  0.00  0.00    +0.000 A 
ATOM     29  C   UNL     1      -3.953  10.766  15.646  0.00  0.00    +0.000 A 
ATOM     30  C   UNL     1      -2.652  10.489  16.079  0.00  0.00    +0.000 A 
ENDBRANCH  23  25
ENDBRANCH   1  21
BRANCH   1  32
ATOM     31  C   UNL     1       1.764  12.043  18.953  0.00  0.00    +0.000 C 
ATOM     32  N   UNL     1       1.665  10.862  19.829  0.00  0.00    +0.000 NA
ATOM     33  C   UNL     1       1.080  11.274  21.103  0.00  0.00    +0.000 C 
ENDBRANCH   1  32
TORSDOF 4
ENDMDL
MODEL 2
REMARK VINA RESULT:      -7.8      1.315      3.008
REMARK  Name = 
REMARK  6 active torsions:
REMARK  status: ('A' for Active; 'I' for Inactive)
REMARK    1  A    between atoms: C_1  and  N_2
REMARK    2  A    between atoms: N_2  and  C_3
REMARK    3  A    between atoms: N_2  and  C_4
REMARK    4  A    between atoms: C_4  and  C_5
REMARK    5  A    between atoms: N_7  and  C_8
REMARK    6  A    between atoms: N_16  and  C_17
REMARK                            x       y       z     vdW  Elec       q    Type
REMARK                         _______ _______ _______ _____ _____    ______ ____
ROOT
ATOM      1  C   UNL     1       1.079   9.569  19.064  0.00  0.00    +0.000 C 
ATOM      2  C   UNL     1       1.168   8.522  20.239  0.00  0.00    +0.000 C 
ATOM      3  C   UNL     1       2.280   7.456  20.110  0.00  0.00    +0.000 C 
ATOM      4  N   UNL     1       2.158   6.873  18.785  0.00  0.00    +0.000 N 
ATOM      5  C   UNL     1       2.445   7.838  17.740  0.00  0.00    +0.000 C 
ATOM      6  C   UNL     1       1.248   8.777  17.740  0.00  0.00    +0.000 C 
ENDROOT
BRANCH   4   7
ATOM      7  C   UNL     1       2.411   5.537  18.532  0.00  0.00    +0.000 A 
ATOM      8  N   UNL     1       1.398   4.633  18.609  0.00  0.00    +0.000 NA
ATOM      9  C   UNL     1       1.658   3.333  18.356  0.00  0.00    +0.000 A 
ATOM     10  N   UNL     1       2.823   2.764  18.000  0.00  0.00    +0.000 NA
ATOM     11  C   UNL     1       3.793   3.683  17.881  0.00  0.00    +0.000 A 
ATOM     12  N   UNL     1       5.075   3.405  17.470  0.00  0.00    +0.000 N 
ATOM     13  C   UNL     1       5.789   4.567  17.384  0.00  0.00    +0.000 A 
ATOM     14  C   UNL     1       4.970   5.602  17.785  0.00  0.00    +0.000 A 
ATOM     15  C   UNL     1       3.685   5.051  18.117  0.00  0.00    +0.000 A 
ATOM     16  C   UNL     1       5.438   7.010  17.739  0.00  0.00    +0.000 C 
ATOM     17  C   UNL     1       6.929   7.175  17.469  0.00  0.00    +0.000 C 
ATOM     18  C   UNL     1       7.438   6.159  16.449  0.00  0.00    +0.000 C 
ATOM     19  C   UNL     1       7.204   4.715  16.938  0.00  0.00    +0.000 C 
ATOM     20  H   UNL     1       5.396   2.477  17.229  0.00  0.00    +0.000 HD
ENDBRANCH   4   7
BRANCH   1  21
ATOM     21  C   UNL     1      -0.383  10.176  18.972  0.00  0.00    +0.000 C 
ATOM     22  O   UNL     1      -0.960  10.562  19.992  0.00  0.00    +0.000 OA
ATOM     23  N   UNL     1      -0.976  10.169  17.718  0.00  0.00    +0.000 N 
ATOM     24  H   UNL     1      -0.502   9.665  16.983  0.00  0.00    +0.000 HD
BRANCH  23  25
ATOM     25  C   UNL     1      -2.252  10.692  17.394  0.00  0.00    +0.000 A 
ATOM     26  C   UNL     1      -3.094  11.318  18.320  0.00  0.00    +0.000 A 
ATOM     27  C   UNL     1      -4.360  11.786  17.941  0.00  0.00    +0.000 A 
ATOM     28  C   UNL     1      -4.793  11.643  16.632  0.00  0.00    +0.000 A 
ATOM     29  C   UNL     1      -3.956  11.047  15.692  0.00  0.00    +0.000 A 
ATOM     30  C   UNL     1      -2.691  10.582  16.071  0.00  0.00    +0.000 A 
ENDBRANCH  23  25
ENDBRANCH   1  21
BRANCH   1  32
ATOM     31  C   UNL     1       2.366  11.288  17.790  0.00  0.00    +0.000 C 
ATOM     32  N   UNL     1       2.115  10.654  19.097  0.00  0.00    +0.000 NA
ATOM     33  C   UNL     1       1.880  11.704  20.086  0.00  0.00    +0.000 C 
ENDBRANCH   1  32
TORSDOF 4
ENDMDL
MODEL 3
REMARK VINA RESULT:      -7.8      4.712      8.835
REMARK  Name = 
REMARK  6 active torsions:
REMARK  status: ('A' for Active; 'I' for Inactive)
REMARK    1  A    between atoms: C_1  and  N_2
REMARK    2  A    between atoms: N_2  and  C_3
REMARK    3  A    between atoms: N_2  and  C_4
REMARK    4  A    between atoms: C_4  and  C_5
REMARK    5  A    between atoms: N_7  and  C_8
REMARK    6  A    between atoms: N_16  and  C_17
REMARK                            x       y       z     vdW  Elec       q    Type
REMARK                         _______ _______ _______ _____ _____    ______ ____
ROOT
ATOM      1  C   UNL     1      -2.619  13.250  22.247  0.00  0.00    +0.000 C 
ATOM      2  C   UNL     1      -2.659  13.500  20.691  0.00  0.00    +0.000 C 
ATOM      3  C   UNL     1      -2.235  12.306  19.805  0.00  0.00    +0.000 C 
ATOM      4  N   UNL     1      -0.958  11.832  20.312  0.00  0.00    +0.000 N 
ATOM      5  C   UNL     1      -1.077  11.280  21.649  0.00  0.00    +0.000 C 
ATOM      6  C   UNL     1      -1.303  12.486  22.549  0.00  0.00    +0.000 C 
ENDROOT
BRANCH   4   7
ATOM      7  C   UNL     1       0.037  11.343  19.486  0.00  0.00    +0.000 A 
ATOM      8  N   UNL     1       0.007  10.042  19.092  0.00  0.00    +0.000 NA
ATOM      9  C   UNL     1       0.983   9.579  18.283  0.00  0.00    +0.000 A 
ATOM     10  N   UNL     1       2.026  10.247  17.758  0.00  0.00    +0.000 NA
ATOM     11  C   UNL     1       2.003  11.538  18.120  0.00  0.00    +0.000 A 
ATOM     12  N   UNL     1       2.908  12.478  17.686  0.00  0.00    +0.000 N 
ATOM     13  C   UNL     1       2.562  13.706  18.177  0.00  0.00    +0.000 A 
ATOM     14  C   UNL     1       1.445  13.548  18.970  0.00  0.00    +0.000 A 
ATOM     15  C   UNL     1       1.077  12.159  18.952  0.00  0.00    +0.000 A 
ATOM     16  C   UNL     1       0.781  14.719  19.598  0.00  0.00    +0.000 C 
ATOM     17  C   UNL     1       1.568  16.021  19.502  0.00  0.00    +0.000 C 
ATOM     18  C   UNL     1       2.271  16.164  18.155  0.00  0.00    +0.000 C 
ATOM     19  C   UNL     1       3.254  15.000  17.914  0.00  0.00    +0.000 C 
ATOM     20  H   UNL     1       3.675  12.270  17.061  0.00  0.00    +0.000 HD
ENDBRANCH   4   7
BRANCH   1  21
ATOM     21  C   UNL     1      -2.462  14.622  23.025  0.00  0.00    +0.000 C 
ATOM     22  O   UNL     1      -3.265  15.539  22.835  0.00  0.00    +0.000 OA
ATOM     23  N   UNL     1      -1.351  14.742  23.845  0.00  0.00    +0.000 N 
ATOM     24  H   UNL     1      -0.653  14.013  23.793  0.00  0.00    +0.000 HD
BRANCH  23  25
ATOM     25  C   UNL     1      -1.029  15.855  24.661  0.00  0.00    +0.000 A 
ATOM     26  C   UNL     1      -0.613  17.093  24.158  0.00  0.00    +0.000 A 
ATOM     27  C   UNL     1      -0.278  18.145  25.021  0.00  0.00    +0.000 A 
ATOM     28  C   UNL     1      -0.366  17.976  26.394  0.00  0.00    +0.000 A 
ATOM     29  C   UNL     1      -0.805  16.758  26.910  0.00  0.00    +0.000 A 
ATOM     30  C   UNL     1      -1.141  15.709  26.047  0.00  0.00    +0.000 A 
ENDBRANCH  23  25
ENDBRANCH   1  21
BRANCH   1  32
ATOM     31  C   UNL     1      -3.884  12.489  24.261  0.00  0.00    +0.000 C 
ATOM     32  N   UNL     1      -3.763  12.445  22.793  0.00  0.00    +0.000 NA
ATOM     33  C   UNL     1      -5.068  12.751  22.210  0.00  0.00    +0.000 C 
ENDBRANCH   1  32
TORSDOF 4
ENDMDL
MODEL 4
REMARK VINA RESULT:      -7.7      1.345      3.011
REMARK  Name = 
REMARK  6 active torsions:
REMARK  status: ('A' for Active; 'I' for Inactive)
REMARK    1  A    between atoms: C_1  and  N_2
REMARK    2  A    between atoms: N_2  and  C_3
REMARK    3  A    between atoms: N_2  and  C_4
REMARK    4  A    between atoms: C_4  and  C_5
REMARK    5  A    between atoms: N_7  and  C_8
REMARK    6  A    between atoms: N_16  and  C_17
REMARK                            x       y       z     vdW  Elec       q    Type
REMARK                         _______ _______ _______ _____ _____    ______ ____
ROOT
ATOM      1  C   UNL     1       0.833   9.822  19.380  0.00  0.00    +0.000 C 
ATOM      2  C   UNL     1       0.709   9.047  20.747  0.00  0.00    +0.000 C 
ATOM      3  C   UNL     1       1.818   8.010  21.036  0.00  0.00    +0.000 C 
ATOM      4  N   UNL     1       1.922   7.159  19.862  0.00  0.00    +0.000 N 
ATOM      5  C   UNL     1       2.392   7.892  18.702  0.00  0.00    +0.000 C 
ATOM      6  C   UNL     1       1.220   8.777  18.301  0.00  0.00    +0.000 C 
ENDROOT
BRANCH   4   7
ATOM      7  C   UNL     1       2.203   5.808  19.943  0.00  0.00    +0.000 A 
ATOM      8  N   UNL     1       1.482   5.018  20.783  0.00  0.00    +0.000 NA
ATOM      9  C   UNL     1       1.765   3.701  20.850  0.00  0.00    +0.000 A 
ATOM     10  N   UNL     1       2.685   3.004  20.160  0.00  0.00    +0.000 NA
ATOM     11  C   UNL     1       3.347   3.795  19.302  0.00  0.00    +0.000 A 
ATOM     12  N   UNL     1       4.304   3.350  18.421  0.00  0.00    +0.000 N 
ATOM     13  C   UNL     1       4.725   4.391  17.641  0.00  0.00    +0.000 A 
ATOM     14  C   UNL     1       4.063   5.528  18.053  0.00  0.00    +0.000 A 
ATOM     15  C   UNL     1       3.179   5.166  19.127  0.00  0.00    +0.000 A 
ATOM     16  C   UNL     1       4.256   6.822  17.351  0.00  0.00    +0.000 C 
ATOM     17  C   UNL     1       5.401   6.833  16.345  0.00  0.00    +0.000 C 
ATOM     18  C   UNL     1       5.497   5.518  15.577  0.00  0.00    +0.000 C 
ATOM     19  C   UNL     1       5.723   4.330  16.535  0.00  0.00    +0.000 C 
ATOM     20  H   UNL     1       4.595   2.384  18.352  0.00  0.00    +0.000 HD
ENDBRANCH   4   7
BRANCH   1  21
ATOM     21  C   UNL     1      -0.587  10.355  18.915  0.00  0.00    +0.000 C 
ATOM     22  O   UNL     1      -1.308  10.970  19.705  0.00  0.00    +0.000 OA
ATOM     23  N   UNL     1      -0.978  10.024  17.627  0.00  0.00    +0.000 N 
ATOM     24  H   UNL     1      -0.405   9.363  17.122  0.00  0.00    +0.000 HD
BRANCH  23  25
ATOM     25  C   UNL     1      -2.179  10.422  16.989  0.00  0.00    +0.000 A 
ATOM     26  C   UNL     1      -3.139  11.248  17.585  0.00  0.00    +0.000 A 
ATOM     27  C   UNL     1      -4.322  11.578  16.912  0.00  0.00    +0.000 A 
ATOM     28  C   UNL     1      -4.554  11.097  15.632  0.00  0.00    +0.000 A 
ATOM     29  C   UNL     1      -3.597  10.296  15.015  0.00  0.00    +0.000 A 
ATOM     30  C   UNL     1      -2.414   9.969  15.687  0.00  0.00    +0.000 A 
ENDBRANCH  23  25
ENDBRANCH   1  21
BRANCH   1  32
ATOM     31  C   UNL     1       2.183  11.414  18.010  0.00  0.00    +0.000 C 
ATOM     32  N   UNL     1       1.857  10.920  19.360  0.00  0.00    +0.000 NA
ATOM     33  C   UNL     1       1.553  12.065  20.214  0.00  0.00    +0.000 C 
ENDBRANCH   1  32
TORSDOF 4
ENDMDL
MODEL 5
REMARK VINA RESULT:      -7.6      5.733     10.171
REMARK  Name = 
REMARK  6 active torsions:
REMARK  status: ('A' for Active; 'I' for Inactive)
REMARK    1  A    between atoms: C_1  and  N_2
REMARK    2  A    between atoms: N_2  and  C_3
REMARK    3  A    between atoms: N_2  and  C_4
REMARK    4  A    between atoms: C_4  and  C_5
REMARK    5  A    between atoms: N_7  and  C_8
REMARK    6  A    between atoms: N_16  and  C_17
REMARK                            x       y       z     vdW  Elec       q    Type
REMARK                         _______ _______ _______ _____ _____    ______ ____
ROOT
ATOM      1  C   UNL     1      -0.445  13.165  20.697  0.00  0.00    +0.000 C 
ATOM      2  C   UNL     1      -0.462  14.740  20.742  0.00  0.00    +0.000 C 
ATOM      3  C   UNL     1      -0.668  15.373  22.138  0.00  0.00    +0.000 C 
ATOM      4  N   UNL     1      -1.834  14.735  22.726  0.00  0.00    +0.000 N 
ATOM      5  C   UNL     1      -1.607  13.325  22.986  0.00  0.00    +0.000 C 
ATOM      6  C   UNL     1      -1.598  12.673  21.611  0.00  0.00    +0.000 C 
ENDROOT
BRANCH   4   7
ATOM      7  C   UNL     1      -2.729  15.415  23.531  0.00  0.00    +0.000 A 
ATOM      8  N   UNL     1      -2.281  16.395  24.360  0.00  0.00    +0.000 NA
ATOM      9  C   UNL     1      -3.166  17.053  25.138  0.00  0.00    +0.000 A 
ATOM     10  N   UNL     1      -4.500  16.897  25.208  0.00  0.00    +0.000 NA
ATOM     11  C   UNL     1      -4.923  15.961  24.345  0.00  0.00    +0.000 A 
ATOM     12  N   UNL     1      -6.242  15.629  24.150  0.00  0.00    +0.000 N 
ATOM     13  C   UNL     1      -6.337  14.699  23.152  0.00  0.00    +0.000 A 
ATOM     14  C   UNL     1      -5.060  14.398  22.729  0.00  0.00    +0.000 A 
ATOM     15  C   UNL     1      -4.136  15.193  23.490  0.00  0.00    +0.000 A 
ATOM     16  C   UNL     1      -4.830  13.462  21.599  0.00  0.00    +0.000 C 
ATOM     17  C   UNL     1      -6.069  12.699  21.145  0.00  0.00    +0.000 C 
ATOM     18  C   UNL     1      -7.320  13.573  21.180  0.00  0.00    +0.000 C 
ATOM     19  C   UNL     1      -7.588  14.103  22.604  0.00  0.00    +0.000 C 
ATOM     20  H   UNL     1      -7.007  16.061  24.651  0.00  0.00    +0.000 HD
ENDBRANCH   4   7
BRANCH   1  21
ATOM     21  C   UNL     1      -0.844  12.647  19.252  0.00  0.00    +0.000 C 
ATOM     22  O   UNL     1      -0.225  13.040  18.260  0.00  0.00    +0.000 OA
ATOM     23  N   UNL     1      -1.949  11.814  19.180  0.00  0.00    +0.000 N 
ATOM     24  H   UNL     1      -2.501  11.699  20.018  0.00  0.00    +0.000 HD
BRANCH  23  25
ATOM     25  C   UNL     1      -2.462  11.204  18.007  0.00  0.00    +0.000 A 
ATOM     26  C   UNL     1      -1.803  10.184  17.312  0.00  0.00    +0.000 A 
ATOM     27  C   UNL     1      -2.349   9.645  16.139  0.00  0.00    +0.000 A 
ATOM     28  C   UNL     1      -3.563  10.110  15.656  0.00  0.00    +0.000 A 
ATOM     29  C   UNL     1      -4.243  11.107  16.352  0.00  0.00    +0.000 A 
ATOM     30  C   UNL     1      -3.698  11.642  17.524  0.00  0.00    +0.000 A 
ENDBRANCH  23  25
ENDBRANCH   1  21
BRANCH   1  32
ATOM     31  C   UNL     1       0.904  11.076  20.924  0.00  0.00    +0.000 C 
ATOM     32  N   UNL     1       0.831  12.528  21.168  0.00  0.00    +0.000 NA
ATOM     33  C   UNL     1       2.054  13.147  20.663  0.00  0.00    +0.000 C 
ENDBRANCH   1  32
TORSDOF 4
ENDMDL
MODEL 6
REMARK VINA RESULT:      -7.6      5.088      9.766
REMARK  Name = 
REMARK  6 active torsions:
REMARK  status: ('A' for Active; 'I' for Inactive)
REMARK    1  A    between atoms: C_1  and  N_2
REMARK    2  A    between atoms: N_2  and  C_3
REMARK    3  A    between atoms: N_2  and  C_4
REMARK    4  A    between atoms: C_4  and  C_5
REMARK    5  A    between atoms: N_7  and  C_8
REMARK    6  A    between atoms: N_16  and  C_17
REMARK                            x       y       z     vdW  Elec       q    Type
REMARK                         _______ _______ _______ _____ _____    ______ ____
ROOT
ATOM      1  C   UNL     1      -0.117  12.565  20.249  0.00  0.00    +0.000 C 
ATOM      2  C   UNL     1       0.201  14.086  20.514  0.00  0.00    +0.000 C 
ATOM      3  C   UNL     1       0.371  14.491  21.996  0.00  0.00    +0.000 C 
ATOM      4  N   UNL     1      -0.785  13.978  22.712  0.00  0.00    +0.000 N 
ATOM      5  C   UNL     1      -0.814  12.527  22.724  0.00  0.00    +0.000 C 
ATOM      6  C   UNL     1      -1.175  12.135  21.299  0.00  0.00    +0.000 C 
ENDROOT
BRANCH   4   7
ATOM      7  C   UNL     1      -1.370  14.655  23.767  0.00  0.00    +0.000 A 
ATOM      8  N   UNL     1      -0.588  15.178  24.748  0.00  0.00    +0.000 NA
ATOM      9  C   UNL     1      -1.171  15.839  25.770  0.00  0.00    +0.000 A 
ATOM     10  N   UNL     1      -2.476  16.095  25.968  0.00  0.00    +0.000 NA
ATOM     11  C   UNL     1      -3.221  15.614  24.961  0.00  0.00    +0.000 A 
ATOM     12  N   UNL     1      -4.582  15.778  24.858  0.00  0.00    +0.000 N 
ATOM     13  C   UNL     1      -5.020  15.236  23.683  0.00  0.00    +0.000 A 
ATOM     14  C   UNL     1      -3.934  14.679  23.039  0.00  0.00    +0.000 A 
ATOM     15  C   UNL     1      -2.770  14.905  23.851  0.00  0.00    +0.000 A 
ATOM     16  C   UNL     1      -4.075  14.066  21.694  0.00  0.00    +0.000 C 
ATOM     17  C   UNL     1      -5.514  13.884  21.226  0.00  0.00    +0.000 C 
ATOM     18  C   UNL     1      -6.398  15.060  21.634  0.00  0.00    +0.000 C 
ATOM     19  C   UNL     1      -6.418  15.235  23.166  0.00  0.00    +0.000 C 
ATOM     20  H   UNL     1      -5.138  16.271  25.543  0.00  0.00    +0.000 HD
ENDBRANCH   4   7
BRANCH   1  21
ATOM     21  C   UNL     1      -0.855  12.388  18.856  0.00  0.00    +0.000 C 
ATOM     22  O   UNL     1      -0.682  13.210  17.953  0.00  0.00    +0.000 OA
ATOM     23  N   UNL     1      -1.737  11.323  18.757  0.00  0.00    +0.000 N 
ATOM     24  H   UNL     1      -1.953  10.818  19.605  0.00  0.00    +0.000 HD
BRANCH  23  25
ATOM     25  C   UNL     1      -2.473  10.950  17.605  0.00  0.00    +0.000 A 
ATOM     26  C   UNL     1      -2.016  10.028  16.657  0.00  0.00    +0.000 A 
ATOM     27  C   UNL     1      -2.778   9.727  15.520  0.00  0.00    +0.000 A 
ATOM     28  C   UNL     1      -4.009  10.335  15.325  0.00  0.00    +0.000 A 
ATOM     29  C   UNL     1      -4.489  11.235  16.273  0.00  0.00    +0.000 A 
ATOM     30  C   UNL     1      -3.728  11.533  17.408  0.00  0.00    +0.000 A 
ENDBRANCH  23  25
ENDBRANCH   1  21
BRANCH   1  32
ATOM     31  C   UNL     1       0.718  10.287  20.837  0.00  0.00    +0.000 C 
ATOM     32  N   UNL     1       1.059  11.639  20.361  0.00  0.00    +0.000 NA
ATOM     33  C   UNL     1       1.867  11.516  19.150  0.00  0.00    +0.000 C 
ENDBRANCH   1  32
TORSDOF 4
ENDMDL
MODEL 7
REMARK VINA RESULT:      -7.6      5.412     10.735
REMARK  Name = 
REMARK  6 active torsions:
REMARK  status: ('A' for Active; 'I' for Inactive)
REMARK    1  A    between atoms: C_1  and  N_2
REMARK    2  A    between atoms: N_2  and  C_3
REMARK    3  A    between atoms: N_2  and  C_4
REMARK    4  A    between atoms: C_4  and  C_5
REMARK    5  A    between atoms: N_7  and  C_8
REMARK    6  A    between atoms: N_16  and  C_17
REMARK                            x       y       z     vdW  Elec       q    Type
REMARK                         _______ _______ _______ _____ _____    ______ ____
ROOT
ATOM      1  C   UNL     1      -0.575  12.031  20.981  0.00  0.00    +0.000 C 
ATOM      2  C   UNL     1      -0.818  12.138  22.535  0.00  0.00    +0.000 C 
ATOM      3  C   UNL     1      -2.257  11.840  23.014  0.00  0.00    +0.000 C 
ATOM      4  N   UNL     1      -3.152  12.647  22.201  0.00  0.00    +0.000 N 
ATOM      5  C   UNL     1      -3.133  12.242  20.808  0.00  0.00    +0.000 C 
ATOM      6  C   UNL     1      -1.783  12.713  20.286  0.00  0.00    +0.000 C 
ENDROOT
BRANCH   4   7
ATOM      7  C   UNL     1      -4.309  13.213  22.704  0.00  0.00    +0.000 A 
ATOM      8  N   UNL     1      -5.490  12.549  22.588  0.00  0.00    +0.000 NA
ATOM      9  C   UNL     1      -6.611  13.112  23.086  0.00  0.00    +0.000 A 
ATOM     10  N   UNL     1      -6.746  14.281  23.736  0.00  0.00    +0.000 NA
ATOM     11  C   UNL     1      -5.561  14.892  23.882  0.00  0.00    +0.000 A 
ATOM     12  N   UNL     1      -5.379  16.074  24.559  0.00  0.00    +0.000 N 
ATOM     13  C   UNL     1      -4.047  16.383  24.589  0.00  0.00    +0.000 A 
ATOM     14  C   UNL     1      -3.368  15.410  23.886  0.00  0.00    +0.000 A 
ATOM     15  C   UNL     1      -4.326  14.447  23.417  0.00  0.00    +0.000 A 
ATOM     16  C   UNL     1      -1.886  15.428  23.794  0.00  0.00    +0.000 C 
ATOM     17  C   UNL     1      -1.234  16.708  24.303  0.00  0.00    +0.000 C 
ATOM     18  C   UNL     1      -1.935  17.249  25.546  0.00  0.00    +0.000 C 
ATOM     19  C   UNL     1      -3.418  17.558  25.257  0.00  0.00    +0.000 C 
ATOM     20  H   UNL     1      -6.130  16.589  24.999  0.00  0.00    +0.000 HD
ENDBRANCH   4   7
BRANCH   1  21
ATOM     21  C   UNL     1       0.671  12.914  20.553  0.00  0.00    +0.000 C 
ATOM     22  O   UNL     1       1.734  12.830  21.174  0.00  0.00    +0.000 OA
ATOM     23  N   UNL     1       0.463  13.812  19.517  0.00  0.00    +0.000 N 
ATOM     24  H   UNL     1      -0.486  13.941  19.197  0.00  0.00    +0.000 HD
BRANCH  23  25
ATOM     25  C   UNL     1       1.437  14.669  18.945  0.00  0.00    +0.000 A 
ATOM     26  C   UNL     1       2.561  14.211  18.249  0.00  0.00    +0.000 A 
ATOM     27  C   UNL     1       3.504  15.112  17.735  0.00  0.00    +0.000 A 
ATOM     28  C   UNL     1       3.328  16.477  17.902  0.00  0.00    +0.000 A 
ATOM     29  C   UNL     1       2.200  16.948  18.569  0.00  0.00    +0.000 A 
ATOM     30  C   UNL     1       1.258  16.049  19.079  0.00  0.00    +0.000 A 
ENDBRANCH  23  25
ENDBRANCH   1  21
BRANCH   1  32
ATOM     31  C   UNL     1       0.050  10.554  19.068  0.00  0.00    +0.000 C 
ATOM     32  N   UNL     1      -0.456  10.632  20.450  0.00  0.00    +0.000 NA
ATOM     33  C   UNL     1       0.322   9.718  21.283  0.00  0.00    +0.000 C 
ENDBRANCH   1  32
TORSDOF 4
ENDMDL
MODEL 8
REMARK VINA RESULT:      -7.6      8.078     10.119
REMARK  Name = 
REMARK  6 active torsions:
REMARK  status: ('A' for Active; 'I' for Inactive)
REMARK    1  A    between atoms: C_1  and  N_2
REMARK    2  A    between atoms: N_2  and  C_3
REMARK    3  A    between atoms: N_2  and  C_4
REMARK    4  A    between atoms: C_4  and  C_5
REMARK    5  A    between atoms: N_7  and  C_8
REMARK    6  A    between atoms: N_16  and  C_17
REMARK                            x       y       z     vdW  Elec       q    Type
REMARK                         _______ _______ _______ _____ _____    ______ ____
ROOT
ATOM      1  C   UNL     1      -1.261  14.814  21.422  0.00  0.00    +0.000 C 
ATOM      2  C   UNL     1      -2.497  15.680  21.880  0.00  0.00    +0.000 C 
ATOM      3  C   UNL     1      -3.432  15.023  22.920  0.00  0.00    +0.000 C 
ATOM      4  N   UNL     1      -3.769  13.702  22.415  0.00  0.00    +0.000 N 
ATOM      5  C   UNL     1      -2.609  12.832  22.355  0.00  0.00    +0.000 C 
ATOM      6  C   UNL     1      -1.780  13.369  21.197  0.00  0.00    +0.000 C 
ENDROOT
BRANCH   4   7
ATOM      7  C   UNL     1      -5.012  13.126  22.603  0.00  0.00    +0.000 A 
ATOM      8  N   UNL     1      -5.645  13.265  23.799  0.00  0.00    +0.000 NA
ATOM      9  C   UNL     1      -6.859  12.701  23.968  0.00  0.00    +0.000 A 
ATOM     10  N   UNL     1      -7.591  12.003  23.082  0.00  0.00    +0.000 NA
ATOM     11  C   UNL     1      -6.968  11.925  21.897  0.00  0.00    +0.000 A 
ATOM     12  N   UNL     1      -7.503  11.325  20.781  0.00  0.00    +0.000 N 
ATOM     13  C   UNL     1      -6.650  11.483  19.724  0.00  0.00    +0.000 A 
ATOM     14  C   UNL     1      -5.534  12.157  20.175  0.00  0.00    +0.000 A 
ATOM     15  C   UNL     1      -5.717  12.441  21.572  0.00  0.00    +0.000 A 
ATOM     16  C   UNL     1      -4.445  12.543  19.242  0.00  0.00    +0.000 C 
ATOM     17  C   UNL     1      -4.551  11.923  17.853  0.00  0.00    +0.000 C 
ATOM     18  C   UNL     1      -5.996  11.858  17.367  0.00  0.00    +0.000 C 
ATOM     19  C   UNL     1      -6.867  11.019  18.324  0.00  0.00    +0.000 C 
ATOM     20  H   UNL     1      -8.412  10.884  20.765  0.00  0.00    +0.000 HD
ENDBRANCH   4   7
BRANCH   1  21
ATOM     21  C   UNL     1      -0.761  15.276  19.989  0.00  0.00    +0.000 C 
ATOM     22  O   UNL     1      -0.623  14.450  19.084  0.00  0.00    +0.000 OA
ATOM     23  N   UNL     1      -0.428  16.615  19.855  0.00  0.00    +0.000 N 
ATOM     24  H   UNL     1      -0.396  17.173  20.697  0.00  0.00    +0.000 HD
BRANCH  23  25
ATOM     25  C   UNL     1       0.002  17.255  18.666  0.00  0.00    +0.000 A 
ATOM     26  C   UNL     1       1.322  17.227  18.203  0.00  0.00    +0.000 A 
ATOM     27  C   UNL     1       1.689  17.909  17.034  0.00  0.00    +0.000 A 
ATOM     28  C   UNL     1       0.740  18.616  16.312  0.00  0.00    +0.000 A 
ATOM     29  C   UNL     1      -0.584  18.631  16.746  0.00  0.00    +0.000 A 
ATOM     30  C   UNL     1      -0.949  17.947  17.911  0.00  0.00    +0.000 A 
ENDBRANCH  23  25
ENDBRANCH   1  21
BRANCH   1  32
ATOM     31  C   UNL     1       1.168  14.379  21.801  0.00  0.00    +0.000 C 
ATOM     32  N   UNL     1      -0.124  14.758  22.401  0.00  0.00    +0.000 NA
ATOM     33  C   UNL     1       0.069  15.970  23.194  0.00  0.00    +0.000 C 
ENDBRANCH   1  32
TORSDOF 4
ENDMDL
MODEL 9
REMARK VINA RESULT:      -7.5      1.935      3.607
REMARK  Name = 
REMARK  6 active torsions:
REMARK  status: ('A' for Active; 'I' for Inactive)
REMARK    1  A    between atoms: C_1  and  N_2
REMARK    2  A    between atoms: N_2  and  C_3
REMARK    3  A    between atoms: N_2  and  C_4
REMARK    4  A    between atoms: C_4  and  C_5
REMARK    5  A    between atoms: N_7  and  C_8
REMARK    6  A    between atoms: N_16  and  C_17
REMARK                            x       y       z     vdW  Elec       q    Type
REMARK                         _______ _______ _______ _____ _____    ______ ____
ROOT
ATOM      1  C   UNL     1       0.989   9.939  19.321  0.00  0.00    +0.000 C 
ATOM      2  C   UNL     1       1.270   9.594  17.808  0.00  0.00    +0.000 C 
ATOM      3  C   UNL     1       1.575   8.111  17.500  0.00  0.00    +0.000 C 
ATOM      4  N   UNL     1       2.615   7.689  18.423  0.00  0.00    +0.000 N 
ATOM      5  C   UNL     1       2.154   7.696  19.799  0.00  0.00    +0.000 C 
ATOM      6  C   UNL     1       2.041   9.169  20.163  0.00  0.00    +0.000 C 
ENDROOT
BRANCH   4   7
ATOM      7  C   UNL     1       3.609   6.795  18.068  0.00  0.00    +0.000 A 
ATOM      8  N   UNL     1       4.736   7.249  17.456  0.00  0.00    +0.000 NA
ATOM      9  C   UNL     1       5.699   6.367  17.119  0.00  0.00    +0.000 A 
ATOM     10  N   UNL     1       5.731   5.038  17.325  0.00  0.00    +0.000 NA
ATOM     11  C   UNL     1       4.633   4.624  17.975  0.00  0.00    +0.000 A 
ATOM     12  N   UNL     1       4.415   3.328  18.377  0.00  0.00    +0.000 N 
ATOM     13  C   UNL     1       3.242   3.257  19.076  0.00  0.00    +0.000 A 
ATOM     14  C   UNL     1       2.677   4.515  19.088  0.00  0.00    +0.000 A 
ATOM     15  C   UNL     1       3.553   5.406  18.378  0.00  0.00    +0.000 A 
ATOM     16  C   UNL     1       1.420   4.782  19.833  0.00  0.00    +0.000 C 
ATOM     17  C   UNL     1       0.707   3.534  20.340  0.00  0.00    +0.000 C 
ATOM     18  C   UNL     1       1.690   2.479  20.841  0.00  0.00    +0.000 C 
ATOM     19  C   UNL     1       2.658   2.046  19.720  0.00  0.00    +0.000 C 
ATOM     20  H   UNL     1       5.066   2.573  18.207  0.00  0.00    +0.000 HD
ENDBRANCH   4   7
BRANCH   1  21
ATOM     21  C   UNL     1       1.301  11.467  19.608  0.00  0.00    +0.000 C 
ATOM     22  O   UNL     1       1.458  11.860  20.767  0.00  0.00    +0.000 OA
ATOM     23  N   UNL     1       1.304  12.312  18.510  0.00  0.00    +0.000 N 
ATOM     24  H   UNL     1       0.981  11.935  17.631  0.00  0.00    +0.000 HD
BRANCH  23  25
ATOM     25  C   UNL     1       1.594  13.700  18.523  0.00  0.00    +0.000 A 
ATOM     26  C   UNL     1       0.668  14.683  18.890  0.00  0.00    +0.000 A 
ATOM     27  C   UNL     1       1.009  16.042  18.850  0.00  0.00    +0.000 A 
ATOM     28  C   UNL     1       2.280  16.432  18.456  0.00  0.00    +0.000 A 
ATOM     29  C   UNL     1       3.221  15.463  18.114  0.00  0.00    +0.000 A 
ATOM     30  C   UNL     1       2.880  14.106  18.156  0.00  0.00    +0.000 A 
ENDBRANCH  23  25
ENDBRANCH   1  21
BRANCH   1  32
ATOM     31  C   UNL     1      -0.479   9.466  21.284  0.00  0.00    +0.000 C 
ATOM     32  N   UNL     1      -0.377   9.561  19.817  0.00  0.00    +0.000 NA
ATOM     33  C   UNL     1      -1.467  10.403  19.328  0.00  0.00    +0.000 C 
ENDBRANCH   1  32
TORSDOF 4
ENDMDL
