MODEL 1
REMARK VINA RESULT:      -6.5      0.000      0.000
REMARK  Name = 
REMARK  7 active torsions:
REMARK  status: ('A' for Active; 'I' for Inactive)
REMARK    1  A    between atoms: C_1  and  C_2
REMARK    2  A    between atoms: C_2  and  O_3
REMARK    3  A    between atoms: O_3  and  C_4
REMARK    4  A    between atoms: C_4  and  C_6
REMARK    5  A    between atoms: C_7  and  C_8
REMARK    6  A    between atoms: C_14  and  N_15
REMARK    7  A    between atoms: C_17  and  C_18
REMARK                            x       y       z     vdW  Elec       q    Type
REMARK                         _______ _______ _______ _____ _____    ______ ____
ROOT
ATOM      1  C   UNL     1      -0.279  13.703  21.002  0.00  0.00    +0.000 C 
ATOM      2  C   UNL     1      -1.057  14.101  22.029  0.00  0.00    +0.000 C 
ATOM      3  C   UNL     1      -0.631  14.926  23.213  0.00  0.00    +0.000 C 
ATOM      4  O   UNL     1      -2.414  13.785  22.093  0.00  0.00    +0.000 OA
ATOM      5  C   UNL     1      -3.036  13.161  21.031  0.00  0.00    +0.000 A 
ATOM      6  N   UNL     1      -4.368  13.016  21.182  0.00  0.00    +0.000 NA
ATOM      7  C   UNL     1      -5.062  12.405  20.192  0.00  0.00    +0.000 A 
ATOM      8  C   UNL     1      -4.449  11.912  19.030  0.00  0.00    +0.000 A 
ATOM      9  C   UNL     1      -3.067  12.099  18.878  0.00  0.00    +0.000 A 
ATOM     10  C   UNL     1      -2.341  12.727  19.912  0.00  0.00    +0.000 A 
ATOM     11  C   UNL     1      -0.838  12.883  19.867  0.00  0.00    +0.000 C 
ATOM     12  C   UNL     1      -5.257  11.213  17.963  0.00  0.00    +0.000 C 
ATOM     13  C   UNL     1      -6.637  10.761  18.426  0.00  0.00    +0.000 C 
ATOM     14  C   UNL     1      -7.331  11.892  19.166  0.00  0.00    +0.000 C 
ATOM     15  C   UNL     1      -6.546  12.248  20.423  0.00  0.00    +0.000 C 
ENDROOT
BRANCH  11  16
ATOM     16  C   UNL     1      -0.139  11.519  19.801  0.00  0.00    +0.000 A 
ATOM     17  C   UNL     1      -0.305  10.593  20.846  0.00  0.00    +0.000 A 
ATOM     18  C   UNL     1       0.370   9.373  20.825  0.00  0.00    +0.000 A 
ATOM     19  C   UNL     1       1.193   9.058  19.746  0.00  0.00    +0.000 A 
ATOM     20 CL   UNL     1       2.032   7.556  19.726  0.00  0.00    +0.000 Cl
ATOM     21  C   UNL     1       1.342   9.947  18.687  0.00  0.00    +0.000 A 
ATOM     22  C   UNL     1       0.679  11.174  18.710  0.00  0.00    +0.000 A 
ENDBRANCH  11  16
BRANCH   9  23
ATOM     23  N   UNL     1      -2.477  11.883  17.615  0.00  0.00    +0.000 N 
ATOM     24  H   UNL     1      -3.017  12.230  16.829  0.00  0.00    +0.000 HD
ATOM     25  H   UNL     1      -2.170  10.937  17.434  0.00  0.00    +0.000 HD
ENDBRANCH   9  23
BRANCH   1  26
ATOM     26  C   UNL     1       1.160  14.073  20.890  0.00  0.00    +0.000 C 
ATOM     27  O   UNL     1       2.072  13.624  21.561  0.00  0.00    +0.000 OA
BRANCH  26  28
ATOM     28  O   UNL     1       1.269  15.075  19.981  0.00  0.00    +0.000 OA
BRANCH  28  30
ATOM     29  C   UNL     1       2.622  14.335  18.197  0.00  0.00    +0.000 C 
ATOM     30  C   UNL     1       2.559  15.261  19.397  0.00  0.00    +0.000 C 
ENDBRANCH  28  30
ENDBRANCH  26  28
ENDBRANCH   1  26
TORSDOF 5
ENDMDL
MODEL 2
REMARK VINA RESULT:      -6.5      3.022      6.170
REMARK  Name = 
REMARK  7 active torsions:
REMARK  status: ('A' for Active; 'I' for Inactive)
REMARK    1  A    between atoms: C_1  and  C_2
REMARK    2  A    between atoms: C_2  and  O_3
REMARK    3  A    between atoms: O_3  and  C_4
REMARK    4  A    between atoms: C_4  and  C_6
REMARK    5  A    between atoms: C_7  and  C_8
REMARK    6  A    between atoms: C_14  and  N_15
REMARK    7  A    between atoms: C_17  and  C_18
REMARK                            x       y       z     vdW  Elec       q    Type
REMARK                         _______ _______ _______ _____ _____    ______ ____
ROOT
ATOM      1  C   UNL     1      -0.888  12.007  21.018  0.00  0.00    +0.000 C 
ATOM      2  C   UNL     1      -1.023  11.214  22.100  0.00  0.00    +0.000 C 
ATOM      3  C   UNL     1      -1.868  11.485  23.315  0.00  0.00    +0.000 C 
ATOM      4  O   UNL     1      -0.367   9.986  22.203  0.00  0.00    +0.000 OA
ATOM      5  C   UNL     1       0.341   9.482  21.131  0.00  0.00    +0.000 A 
ATOM      6  N   UNL     1       0.829   8.241  21.329  0.00  0.00    +0.000 NA
ATOM      7  C   UNL     1       1.546   7.668  20.334  0.00  0.00    +0.000 A 
ATOM      8  C   UNL     1       1.808   8.317  19.118  0.00  0.00    +0.000 A 
ATOM      9  C   UNL     1       1.267   9.597  18.919  0.00  0.00    +0.000 A 
ATOM     10  C   UNL     1       0.526  10.199  19.958  0.00  0.00    +0.000 A 
ATOM     11  C   UNL     1      -0.010  11.608  19.859  0.00  0.00    +0.000 C 
ATOM     12  C   UNL     1       2.635   7.652  18.045  0.00  0.00    +0.000 C 
ATOM     13  C   UNL     1       3.447   6.460  18.537  0.00  0.00    +0.000 C 
ATOM     14  C   UNL     1       2.569   5.547  19.376  0.00  0.00    +0.000 C 
ATOM     15  C   UNL     1       2.088   6.287  20.618  0.00  0.00    +0.000 C 
ENDROOT
BRANCH  11  16
ATOM     16  C   UNL     1       1.126  12.624  19.677  0.00  0.00    +0.000 A 
ATOM     17  C   UNL     1       2.045  12.844  20.718  0.00  0.00    +0.000 A 
ATOM     18  C   UNL     1       3.047  13.805  20.586  0.00  0.00    +0.000 A 
ATOM     19  C   UNL     1       3.154  14.533  19.404  0.00  0.00    +0.000 A 
ATOM     20 CL   UNL     1       4.386  15.724  19.248  0.00  0.00    +0.000 Cl
ATOM     21  C   UNL     1       2.275  14.305  18.351  0.00  0.00    +0.000 A 
ATOM     22  C   UNL     1       1.263  13.354  18.483  0.00  0.00    +0.000 A 
ENDBRANCH  11  16
BRANCH   9  23
ATOM     23  N   UNL     1       1.262  10.149  17.621  0.00  0.00    +0.000 N 
ATOM     24  H   UNL     1       1.602  11.103  17.563  0.00  0.00    +0.000 HD
ATOM     25  H   UNL     1       0.391  10.061  17.114  0.00  0.00    +0.000 HD
ENDBRANCH   9  23
BRANCH   1  26
ATOM     26  C   UNL     1      -1.618  13.297  20.868  0.00  0.00    +0.000 C 
ATOM     27  O   UNL     1      -1.271  14.376  21.315  0.00  0.00    +0.000 OA
BRANCH  26  28
ATOM     28  O   UNL     1      -2.792  13.046  20.234  0.00  0.00    +0.000 OA
BRANCH  28  30
ATOM     29  C   UNL     1      -4.687  12.687  21.590  0.00  0.00    +0.000 C 
ATOM     30  C   UNL     1      -3.945  13.712  20.753  0.00  0.00    +0.000 C 
ENDBRANCH  28  30
ENDBRANCH  26  28
ENDBRANCH   1  26
TORSDOF 5
ENDMDL
MODEL 3
REMARK VINA RESULT:      -6.4      2.852      6.037
REMARK  Name = 
REMARK  7 active torsions:
REMARK  status: ('A' for Active; 'I' for Inactive)
REMARK    1  A    between atoms: C_1  and  C_2
REMARK    2  A    between atoms: C_2  and  O_3
REMARK    3  A    between atoms: O_3  and  C_4
REMARK    4  A    between atoms: C_4  and  C_6
REMARK    5  A    between atoms: C_7  and  C_8
REMARK    6  A    between atoms: C_14  and  N_15
REMARK    7  A    between atoms: C_17  and  C_18
REMARK                            x       y       z     vdW  Elec       q    Type
REMARK                         _______ _______ _______ _____ _____    ______ ____
ROOT
ATOM      1  C   UNL     1      -0.780  12.679  22.408  0.00  0.00    +0.000 C 
ATOM      2  C   UNL     1      -0.852  13.933  22.900  0.00  0.00    +0.000 C 
ATOM      3  C   UNL     1      -1.565  14.368  24.151  0.00  0.00    +0.000 C 
ATOM      4  O   UNL     1      -0.226  15.010  22.271  0.00  0.00    +0.000 OA
ATOM      5  C   UNL     1       0.604  14.800  21.189  0.00  0.00    +0.000 A 
ATOM      6  N   UNL     1       1.229  15.911  20.752  0.00  0.00    +0.000 NA
ATOM      7  C   UNL     1       2.057  15.804  19.687  0.00  0.00    +0.000 A 
ATOM      8  C   UNL     1       2.279  14.589  19.019  0.00  0.00    +0.000 A 
ATOM      9  C   UNL     1       1.644  13.437  19.508  0.00  0.00    +0.000 A 
ATOM     10  C   UNL     1       0.773  13.550  20.613  0.00  0.00    +0.000 A 
ATOM     11  C   UNL     1      -0.021  12.377  21.141  0.00  0.00    +0.000 C 
ATOM     12  C   UNL     1       3.191  14.518  17.819  0.00  0.00    +0.000 C 
ATOM     13  C   UNL     1       3.501  15.873  17.193  0.00  0.00    +0.000 C 
ATOM     14  C   UNL     1       3.887  16.866  18.276  0.00  0.00    +0.000 C 
ATOM     15  C   UNL     1       2.713  17.083  19.224  0.00  0.00    +0.000 C 
ENDROOT
BRANCH  11  16
ATOM     16  C   UNL     1      -0.970  11.821  20.071  0.00  0.00    +0.000 A 
ATOM     17  C   UNL     1      -0.693  10.586  19.459  0.00  0.00    +0.000 A 
ATOM     18  C   UNL     1      -1.516  10.097  18.446  0.00  0.00    +0.000 A 
ATOM     19  C   UNL     1      -2.637  10.824  18.055  0.00  0.00    +0.000 A 
ATOM     20 CL   UNL     1      -3.646  10.223  16.799  0.00  0.00    +0.000 Cl
ATOM     21  C   UNL     1      -2.946  12.032  18.673  0.00  0.00    +0.000 A 
ATOM     22  C   UNL     1      -2.118  12.532  19.678  0.00  0.00    +0.000 A 
ENDBRANCH  11  16
BRANCH   9  23
ATOM     23  N   UNL     1       2.066  12.171  19.053  0.00  0.00    +0.000 N 
ATOM     24  H   UNL     1       3.045  11.964  19.220  0.00  0.00    +0.000 HD
ATOM     25  H   UNL     1       1.824  11.949  18.097  0.00  0.00    +0.000 HD
ENDBRANCH   9  23
BRANCH   1  26
ATOM     26  C   UNL     1      -1.400  11.508  23.090  0.00  0.00    +0.000 C 
ATOM     27  O   UNL     1      -2.583  11.367  23.343  0.00  0.00    +0.000 OA
BRANCH  26  28
ATOM     28  O   UNL     1      -0.404  10.669  23.475  0.00  0.00    +0.000 OA
BRANCH  28  30
ATOM     29  C   UNL     1       0.917   9.056  22.375  0.00  0.00    +0.000 C 
ATOM     30  C   UNL     1      -0.457   9.342  22.949  0.00  0.00    +0.000 C 
ENDBRANCH  28  30
ENDBRANCH  26  28
ENDBRANCH   1  26
TORSDOF 5
ENDMDL
MODEL 4
REMARK VINA RESULT:      -6.4      3.539      6.029
REMARK  Name = 
REMARK  7 active torsions:
REMARK  status: ('A' for Active; 'I' for Inactive)
REMARK    1  A    between atoms: C_1  and  C_2
REMARK    2  A    between atoms: C_2  and  O_3
REMARK    3  A    between atoms: O_3  and  C_4
REMARK    4  A    between atoms: C_4  and  C_6
REMARK    5  A    between atoms: C_7  and  C_8
REMARK    6  A    between atoms: C_14  and  N_15
REMARK    7  A    between atoms: C_17  and  C_18
REMARK                            x       y       z     vdW  Elec       q    Type
REMARK                         _______ _______ _______ _____ _____    ______ ____
ROOT
ATOM      1  C   UNL     1      -0.753  11.869  21.019  0.00  0.00    +0.000 C 
ATOM      2  C   UNL     1      -0.854  11.050  22.085  0.00  0.00    +0.000 C 
ATOM      3  C   UNL     1      -1.679  11.280  23.322  0.00  0.00    +0.000 C 
ATOM      4  O   UNL     1      -0.179   9.830  22.147  0.00  0.00    +0.000 OA
ATOM      5  C   UNL     1       0.516   9.361  21.050  0.00  0.00    +0.000 A 
ATOM      6  N   UNL     1       1.025   8.123  21.210  0.00  0.00    +0.000 NA
ATOM      7  C   UNL     1       1.731   7.584  20.189  0.00  0.00    +0.000 A 
ATOM      8  C   UNL     1       1.960   8.265  18.983  0.00  0.00    +0.000 A 
ATOM      9  C   UNL     1       1.396   9.540  18.823  0.00  0.00    +0.000 A 
ATOM     10  C   UNL     1       0.667  10.107  19.891  0.00  0.00    +0.000 A 
ATOM     11  C   UNL     1       0.109  11.510  19.835  0.00  0.00    +0.000 C 
ATOM     12  C   UNL     1       2.775   7.637  17.879  0.00  0.00    +0.000 C 
ATOM     13  C   UNL     1       3.614   6.446  18.328  0.00  0.00    +0.000 C 
ATOM     14  C   UNL     1       2.766   5.501  19.161  0.00  0.00    +0.000 C 
ATOM     15  C   UNL     1       2.298   6.206  20.429  0.00  0.00    +0.000 C 
ENDROOT
BRANCH  11  16
ATOM     16  C   UNL     1       1.225  12.547  19.654  0.00  0.00    +0.000 A 
ATOM     17  C   UNL     1       2.109  12.819  20.713  0.00  0.00    +0.000 A 
ATOM     18  C   UNL     1       3.092  13.799  20.581  0.00  0.00    +0.000 A 
ATOM     19  C   UNL     1       3.217  14.495  19.382  0.00  0.00    +0.000 A 
ATOM     20 CL   UNL     1       4.424  15.710  19.224  0.00  0.00    +0.000 Cl
ATOM     21  C   UNL     1       2.373  14.215  18.311  0.00  0.00    +0.000 A 
ATOM     22  C   UNL     1       1.380  13.245  18.443  0.00  0.00    +0.000 A 
ENDBRANCH  11  16
BRANCH   9  23
ATOM     23  N   UNL     1       1.357  10.121  17.539  0.00  0.00    +0.000 N 
ATOM     24  H   UNL     1       0.654  10.843  17.421  0.00  0.00    +0.000 HD
ATOM     25  H   UNL     1       1.316   9.470  16.767  0.00  0.00    +0.000 HD
ENDBRANCH   9  23
BRANCH   1  26
ATOM     26  C   UNL     1      -1.504  13.151  20.913  0.00  0.00    +0.000 C 
ATOM     27  O   UNL     1      -2.440  13.377  20.168  0.00  0.00    +0.000 OA
BRANCH  26  28
ATOM     28  O   UNL     1      -0.898  14.062  21.718  0.00  0.00    +0.000 OA
BRANCH  28  30
ATOM     29  C   UNL     1       0.005  15.973  20.672  0.00  0.00    +0.000 C 
ATOM     30  C   UNL     1      -1.184  15.435  21.445  0.00  0.00    +0.000 C 
ENDBRANCH  28  30
ENDBRANCH  26  28
ENDBRANCH   1  26
TORSDOF 5
ENDMDL
MODEL 5
REMARK VINA RESULT:      -6.4      1.016      1.429
REMARK  Name = 
REMARK  7 active torsions:
REMARK  status: ('A' for Active; 'I' for Inactive)
REMARK    1  A    between atoms: C_1  and  C_2
REMARK    2  A    between atoms: C_2  and  O_3
REMARK    3  A    between atoms: O_3  and  C_4
REMARK    4  A    between atoms: C_4  and  C_6
REMARK    5  A    between atoms: C_7  and  C_8
REMARK    6  A    between atoms: C_14  and  N_15
REMARK    7  A    between atoms: C_17  and  C_18
REMARK                            x       y       z     vdW  Elec       q    Type
REMARK                         _______ _______ _______ _____ _____    ______ ____
ROOT
ATOM      1  C   UNL     1       0.704  13.355  20.343  0.00  0.00    +0.000 C 
ATOM      2  C   UNL     1      -0.026  14.019  21.263  0.00  0.00    +0.000 C 
ATOM      3  C   UNL     1       0.488  14.995  22.285  0.00  0.00    +0.000 C 
ATOM      4  O   UNL     1      -1.411  13.871  21.354  0.00  0.00    +0.000 OA
ATOM      5  C   UNL     1      -2.097  13.134  20.410  0.00  0.00    +0.000 A 
ATOM      6  N   UNL     1      -3.437  13.166  20.555  0.00  0.00    +0.000 NA
ATOM      7  C   UNL     1      -4.194  12.464  19.680  0.00  0.00    +0.000 A 
ATOM      8  C   UNL     1      -3.639  11.700  18.642  0.00  0.00    +0.000 A 
ATOM      9  C   UNL     1      -2.244  11.703  18.488  0.00  0.00    +0.000 A 
ATOM     10  C   UNL     1      -1.453  12.428  19.405  0.00  0.00    +0.000 A 
ATOM     11  C   UNL     1       0.057  12.406  19.366  0.00  0.00    +0.000 C 
ATOM     12  C   UNL     1      -4.518  10.911  17.703  0.00  0.00    +0.000 C 
ATOM     13  C   UNL     1      -5.941  10.706  18.210  0.00  0.00    +0.000 C 
ATOM     14  C   UNL     1      -6.504  12.024  18.714  0.00  0.00    +0.000 C 
ATOM     15  C   UNL     1      -5.686  12.517  19.902  0.00  0.00    +0.000 C 
ENDROOT
BRANCH  11  16
ATOM     16  C   UNL     1       0.599  10.984  19.566  0.00  0.00    +0.000 A 
ATOM     17  C   UNL     1       1.300  10.347  18.527  0.00  0.00    +0.000 A 
ATOM     18  C   UNL     1       1.747   9.035  18.676  0.00  0.00    +0.000 A 
ATOM     19  C   UNL     1       1.522   8.360  19.873  0.00  0.00    +0.000 A 
ATOM     20 CL   UNL     1       2.067   6.738  20.051  0.00  0.00    +0.000 Cl
ATOM     21  C   UNL     1       0.861   8.987  20.924  0.00  0.00    +0.000 A 
ATOM     22  C   UNL     1       0.399  10.294  20.775  0.00  0.00    +0.000 A 
ENDBRANCH  11  16
BRANCH   9  23
ATOM     23  N   UNL     1      -1.680  11.195  17.299  0.00  0.00    +0.000 N 
ATOM     24  H   UNL     1      -0.733  10.843  17.395  0.00  0.00    +0.000 HD
ATOM     25  H   UNL     1      -1.744  11.801  16.493  0.00  0.00    +0.000 HD
ENDBRANCH   9  23
BRANCH   1  26
ATOM     26  C   UNL     1       2.176  13.537  20.197  0.00  0.00    +0.000 C 
ATOM     27  O   UNL     1       3.004  13.436  21.084  0.00  0.00    +0.000 OA
BRANCH  26  28
ATOM     28  O   UNL     1       2.426  13.938  18.924  0.00  0.00    +0.000 OA
BRANCH  28  30
ATOM     29  C   UNL     1       3.410  15.644  17.628  0.00  0.00    +0.000 C 
ATOM     30  C   UNL     1       2.360  15.344  18.680  0.00  0.00    +0.000 C 
ENDBRANCH  28  30
ENDBRANCH  26  28
ENDBRANCH   1  26
TORSDOF 5
ENDMDL
MODEL 6
REMARK VINA RESULT:      -6.3      0.841      1.260
REMARK  Name = 
REMARK  7 active torsions:
REMARK  status: ('A' for Active; 'I' for Inactive)
REMARK    1  A    between atoms: C_1  and  C_2
REMARK    2  A    between atoms: C_2  and  O_3
REMARK    3  A    between atoms: O_3  and  C_4
REMARK    4  A    between atoms: C_4  and  C_6
REMARK    5  A    between atoms: C_7  and  C_8
REMARK    6  A    between atoms: C_14  and  N_15
REMARK    7  A    between atoms: C_17  and  C_18
REMARK                            x       y       z     vdW  Elec       q    Type
REMARK                         _______ _______ _______ _____ _____    ______ ____
ROOT
ATOM      1  C   UNL     1      -0.496  13.857  21.259  0.00  0.00    +0.000 C 
ATOM      2  C   UNL     1      -1.300  14.172  22.295  0.00  0.00    +0.000 C 
ATOM      3  C   UNL     1      -0.928  14.975  23.512  0.00  0.00    +0.000 C 
ATOM      4  O   UNL     1      -2.638  13.776  22.339  0.00  0.00    +0.000 OA
ATOM      5  C   UNL     1      -3.219  13.157  21.251  0.00  0.00    +0.000 A 
ATOM      6  N   UNL     1      -4.541  12.931  21.387  0.00  0.00    +0.000 NA
ATOM      7  C   UNL     1      -5.194  12.319  20.371  0.00  0.00    +0.000 A 
ATOM      8  C   UNL     1      -4.549  11.904  19.196  0.00  0.00    +0.000 A 
ATOM      9  C   UNL     1      -3.179  12.175  19.060  0.00  0.00    +0.000 A 
ATOM     10  C   UNL     1      -2.494  12.805  20.121  0.00  0.00    +0.000 A 
ATOM     11  C   UNL     1      -1.003  13.048  20.092  0.00  0.00    +0.000 C 
ATOM     12  C   UNL     1      -5.310  11.201  18.099  0.00  0.00    +0.000 C 
ATOM     13  C   UNL     1      -6.665  10.654  18.536  0.00  0.00    +0.000 C 
ATOM     14  C   UNL     1      -7.425  11.716  19.311  0.00  0.00    +0.000 C 
ATOM     15  C   UNL     1      -6.668  12.069  20.586  0.00  0.00    +0.000 C 
ENDROOT
BRANCH  11  16
ATOM     16  C   UNL     1      -0.227  11.729  19.980  0.00  0.00    +0.000 A 
ATOM     17  C   UNL     1       0.603  11.494  18.870  0.00  0.00    +0.000 A 
ATOM     18  C   UNL     1       1.269  10.278  18.729  0.00  0.00    +0.000 A 
ATOM     19  C   UNL     1       1.132   9.298  19.709  0.00  0.00    +0.000 A 
ATOM     20 CL   UNL     1       1.948   7.793  19.528  0.00  0.00    +0.000 Cl
ATOM     21  C   UNL     1       0.342   9.526  20.832  0.00  0.00    +0.000 A 
ATOM     22  C   UNL     1      -0.336  10.736  20.970  0.00  0.00    +0.000 A 
ENDBRANCH  11  16
BRANCH   9  23
ATOM     23  N   UNL     1      -2.572  12.040  17.794  0.00  0.00    +0.000 N 
ATOM     24  H   UNL     1      -2.494  12.903  17.265  0.00  0.00    +0.000 HD
ATOM     25  H   UNL     1      -2.947  11.308  17.207  0.00  0.00    +0.000 HD
ENDBRANCH   9  23
BRANCH   1  26
ATOM     26  C   UNL     1       0.920  14.311  21.171  0.00  0.00    +0.000 C 
ATOM     27  O   UNL     1       1.776  14.168  22.025  0.00  0.00    +0.000 OA
BRANCH  26  28
ATOM     28  O   UNL     1       1.067  15.007  20.014  0.00  0.00    +0.000 OA
BRANCH  28  30
ATOM     29  C   UNL     1      -0.180  16.518  18.702  0.00  0.00    +0.000 C 
ATOM     30  C   UNL     1       0.563  16.344  20.012  0.00  0.00    +0.000 C 
ENDBRANCH  28  30
ENDBRANCH  26  28
ENDBRANCH   1  26
TORSDOF 5
ENDMDL
MODEL 7
REMARK VINA RESULT:      -6.3      1.066      1.204
REMARK  Name = 
REMARK  7 active torsions:
REMARK  status: ('A' for Active; 'I' for Inactive)
REMARK    1  A    between atoms: C_1  and  C_2
REMARK    2  A    between atoms: C_2  and  O_3
REMARK    3  A    between atoms: O_3  and  C_4
REMARK    4  A    between atoms: C_4  and  C_6
REMARK    5  A    between atoms: C_7  and  C_8
REMARK    6  A    between atoms: C_14  and  N_15
REMARK    7  A    between atoms: C_17  and  C_18
REMARK                            x       y       z     vdW  Elec       q    Type
REMARK                         _______ _______ _______ _____ _____    ______ ____
ROOT
ATOM      1  C   UNL     1       0.636  13.376  19.964  0.00  0.00    +0.000 C 
ATOM      2  C   UNL     1      -0.030  14.033  20.935  0.00  0.00    +0.000 C 
ATOM      3  C   UNL     1       0.548  15.019  21.914  0.00  0.00    +0.000 C 
ATOM      4  O   UNL     1      -1.402  13.868  21.131  0.00  0.00    +0.000 OA
ATOM      5  C   UNL     1      -2.149  13.121  20.244  0.00  0.00    +0.000 A 
ATOM      6  N   UNL     1      -3.474  13.137  20.491  0.00  0.00    +0.000 NA
ATOM      7  C   UNL     1      -4.287  12.423  19.676  0.00  0.00    +0.000 A 
ATOM      8  C   UNL     1      -3.803  11.663  18.600  0.00  0.00    +0.000 A 
ATOM      9  C   UNL     1      -2.424  11.683  18.341  0.00  0.00    +0.000 A 
ATOM     10  C   UNL     1      -1.575  12.420  19.194  0.00  0.00    +0.000 A 
ATOM     11  C   UNL     1      -0.071  12.417  19.040  0.00  0.00    +0.000 C 
ATOM     12  C   UNL     1      -4.741  10.860  17.732  0.00  0.00    +0.000 C 
ATOM     13  C   UNL     1      -6.118  10.639  18.347  0.00  0.00    +0.000 C 
ATOM     14  C   UNL     1      -6.658  11.951  18.890  0.00  0.00    +0.000 C 
ATOM     15  C   UNL     1      -5.758  12.457  20.012  0.00  0.00    +0.000 C 
ENDROOT
BRANCH  11  16
ATOM     16  C   UNL     1       0.502  11.003  19.201  0.00  0.00    +0.000 A 
ATOM     17  C   UNL     1       0.317  10.302  20.405  0.00  0.00    +0.000 A 
ATOM     18  C   UNL     1       0.881   9.040  20.584  0.00  0.00    +0.000 A 
ATOM     19  C   UNL     1       1.610   8.457  19.551  0.00  0.00    +0.000 A 
ATOM     20 CL   UNL     1       2.313   6.903  19.777  0.00  0.00    +0.000 Cl
ATOM     21  C   UNL     1       1.775   9.121  18.339  0.00  0.00    +0.000 A 
ATOM     22  C   UNL     1       1.224  10.389  18.161  0.00  0.00    +0.000 A 
ENDBRANCH  11  16
BRANCH   9  23
ATOM     23  N   UNL     1      -1.945  11.179  17.114  0.00  0.00    +0.000 N 
ATOM     24  H   UNL     1      -2.640  11.125  16.376  0.00  0.00    +0.000 HD
ATOM     25  H   UNL     1      -1.434  10.308  17.170  0.00  0.00    +0.000 HD
ENDBRANCH   9  23
BRANCH   1  26
ATOM     26  C   UNL     1       2.090  13.576  19.706  0.00  0.00    +0.000 C 
ATOM     27  O   UNL     1       2.994  13.373  20.495  0.00  0.00    +0.000 OA
BRANCH  26  28
ATOM     28  O   UNL     1       2.227  14.124  18.471  0.00  0.00    +0.000 OA
BRANCH  28  30
ATOM     29  C   UNL     1       1.897  16.459  18.450  0.00  0.00    +0.000 C 
ATOM     30  C   UNL     1       2.942  15.360  18.404  0.00  0.00    +0.000 C 
ENDBRANCH  28  30
ENDBRANCH  26  28
ENDBRANCH   1  26
TORSDOF 5
ENDMDL
MODEL 8
REMARK VINA RESULT:      -6.3      0.536      1.062
REMARK  Name = 
REMARK  7 active torsions:
REMARK  status: ('A' for Active; 'I' for Inactive)
REMARK    1  A    between atoms: C_1  and  C_2
REMARK    2  A    between atoms: C_2  and  O_3
REMARK    3  A    between atoms: O_3  and  C_4
REMARK    4  A    between atoms: C_4  and  C_6
REMARK    5  A    between atoms: C_7  and  C_8
REMARK    6  A    between atoms: C_14  and  N_15
REMARK    7  A    between atoms: C_17  and  C_18
REMARK                            x       y       z     vdW  Elec       q    Type
REMARK                         _______ _______ _______ _____ _____    ______ ____
ROOT
ATOM      1  C   UNL     1      -0.118  13.684  20.891  0.00  0.00    +0.000 C 
ATOM      2  C   UNL     1      -0.926  14.343  21.747  0.00  0.00    +0.000 C 
ATOM      3  C   UNL     1      -0.509  15.361  22.774  0.00  0.00    +0.000 C 
ATOM      4  O   UNL     1      -2.307  14.147  21.758  0.00  0.00    +0.000 OA
ATOM      5  C   UNL     1      -2.909  13.365  20.793  0.00  0.00    +0.000 A 
ATOM      6  N   UNL     1      -4.255  13.352  20.856  0.00  0.00    +0.000 NA
ATOM      7  C   UNL     1      -4.932  12.604  19.954  0.00  0.00    +0.000 A 
ATOM      8  C   UNL     1      -4.288  11.836  18.971  0.00  0.00    +0.000 A 
ATOM      9  C   UNL     1      -2.887  11.885  18.902  0.00  0.00    +0.000 A 
ATOM     10  C   UNL     1      -2.180  12.659  19.847  0.00  0.00    +0.000 A 
ATOM     11  C   UNL     1      -0.670  12.691  19.901  0.00  0.00    +0.000 C 
ATOM     12  C   UNL     1      -5.080  10.993  18.001  0.00  0.00    +0.000 C 
ATOM     13  C   UNL     1      -6.524  10.750  18.426  0.00  0.00    +0.000 C 
ATOM     14  C   UNL     1      -7.162  12.058  18.861  0.00  0.00    +0.000 C 
ATOM     15  C   UNL     1      -6.436  12.607  20.084  0.00  0.00    +0.000 C 
ENDROOT
BRANCH  11  16
ATOM     16  C   UNL     1      -0.093  11.294  20.169  0.00  0.00    +0.000 A 
ATOM     17  C   UNL     1       0.721  10.673  19.206  0.00  0.00    +0.000 A 
ATOM     18  C   UNL     1       1.205   9.382  19.414  0.00  0.00    +0.000 A 
ATOM     19  C   UNL     1       0.901   8.713  20.596  0.00  0.00    +0.000 A 
ATOM     20 CL   UNL     1       1.491   7.116  20.847  0.00  0.00    +0.000 Cl
ATOM     21  C   UNL     1       0.124   9.325  21.576  0.00  0.00    +0.000 A 
ATOM     22  C   UNL     1      -0.373  10.611  21.366  0.00  0.00    +0.000 A 
ENDBRANCH  11  16
BRANCH   9  23
ATOM     23  N   UNL     1      -2.234  11.370  17.764  0.00  0.00    +0.000 N 
ATOM     24  H   UNL     1      -1.927  10.406  17.849  0.00  0.00    +0.000 HD
ATOM     25  H   UNL     1      -1.484  11.940  17.397  0.00  0.00    +0.000 HD
ENDBRANCH   9  23
BRANCH   1  26
ATOM     26  C   UNL     1       1.353  13.915  20.830  0.00  0.00    +0.000 C 
ATOM     27  O   UNL     1       2.186  13.450  21.587  0.00  0.00    +0.000 OA
BRANCH  26  28
ATOM     28  O   UNL     1       1.597  14.820  19.847  0.00  0.00    +0.000 OA
BRANCH  28  30
ATOM     29  C   UNL     1       2.611  13.647  18.071  0.00  0.00    +0.000 C 
ATOM     30  C   UNL     1       2.840  14.682  19.156  0.00  0.00    +0.000 C 
ENDBRANCH  28  30
ENDBRANCH  26  28
ENDBRANCH   1  26
TORSDOF 5
ENDMDL
MODEL 9
REMARK VINA RESULT:      -6.1      3.257      4.756
REMARK  Name = 
REMARK  7 active torsions:
REMARK  status: ('A' for Active; 'I' for Inactive)
REMARK    1  A    between atoms: C_1  and  C_2
REMARK    2  A    between atoms: C_2  and  O_3
REMARK    3  A    between atoms: O_3  and  C_4
REMARK    4  A    between atoms: C_4  and  C_6
REMARK    5  A    between atoms: C_7  and  C_8
REMARK    6  A    between atoms: C_14  and  N_15
REMARK    7  A    between atoms: C_17  and  C_18
REMARK                            x       y       z     vdW  Elec       q    Type
REMARK                         _______ _______ _______ _____ _____    ______ ____
ROOT
ATOM      1  C   UNL     1       0.432  10.492  19.884  0.00  0.00    +0.000 C 
ATOM      2  C   UNL     1       0.472   9.821  21.053  0.00  0.00    +0.000 C 
ATOM      3  C   UNL     1       1.443   8.737  21.436  0.00  0.00    +0.000 C 
ATOM      4  O   UNL     1      -0.422  10.089  22.091  0.00  0.00    +0.000 OA
ATOM      5  C   UNL     1      -1.299  11.151  21.999  0.00  0.00    +0.000 A 
ATOM      6  N   UNL     1      -2.026  11.363  23.114  0.00  0.00    +0.000 NA
ATOM      7  C   UNL     1      -2.920  12.378  23.114  0.00  0.00    +0.000 A 
ATOM      8  C   UNL     1      -3.126  13.206  21.999  0.00  0.00    +0.000 A 
ATOM      9  C   UNL     1      -2.339  12.990  20.857  0.00  0.00    +0.000 A 
ATOM     10  C   UNL     1      -1.412  11.926  20.853  0.00  0.00    +0.000 A 
ATOM     11  C   UNL     1      -0.595  11.568  19.634  0.00  0.00    +0.000 C 
ATOM     12  C   UNL     1      -4.153  14.311  22.031  0.00  0.00    +0.000 C 
ATOM     13  C   UNL     1      -5.164  14.187  23.166  0.00  0.00    +0.000 C 
ATOM     14  C   UNL     1      -4.442  13.897  24.471  0.00  0.00    +0.000 C 
ATOM     15  C   UNL     1      -3.723  12.556  24.380  0.00  0.00    +0.000 C 
ENDROOT
BRANCH  11  16
ATOM     16  C   UNL     1      -1.496  11.179  18.454  0.00  0.00    +0.000 A 
ATOM     17  C   UNL     1      -2.262  10.001  18.513  0.00  0.00    +0.000 A 
ATOM     18  C   UNL     1      -3.040   9.609  17.426  0.00  0.00    +0.000 A 
ATOM     19  C   UNL     1      -3.083  10.403  16.283  0.00  0.00    +0.000 A 
ATOM     20 CL   UNL     1      -4.037   9.912  14.939  0.00  0.00    +0.000 Cl
ATOM     21  C   UNL     1      -2.359  11.590  16.220  0.00  0.00    +0.000 A 
ATOM     22  C   UNL     1      -1.567  11.980  17.300  0.00  0.00    +0.000 A 
ENDBRANCH  11  16
BRANCH   9  23
ATOM     23  N   UNL     1      -2.311  13.969  19.843  0.00  0.00    +0.000 N 
ATOM     24  H   UNL     1      -2.308  14.927  20.177  0.00  0.00    +0.000 HD
ATOM     25  H   UNL     1      -3.002  13.860  19.113  0.00  0.00    +0.000 HD
ENDBRANCH   9  23
BRANCH   1  26
ATOM     26  C   UNL     1       1.408  10.254  18.784  0.00  0.00    +0.000 C 
ATOM     27  O   UNL     1       2.154  11.083  18.294  0.00  0.00    +0.000 OA
BRANCH  26  28
ATOM     28  O   UNL     1       1.250   8.978  18.349  0.00  0.00    +0.000 OA
BRANCH  28  30
ATOM     29  C   UNL     1       2.533   6.999  18.328  0.00  0.00    +0.000 C 
ATOM     30  C   UNL     1       2.385   8.381  17.719  0.00  0.00    +0.000 C 
ENDBRANCH  28  30
ENDBRANCH  26  28
ENDBRANCH   1  26
TORSDOF 5
ENDMDL
