MODEL 1
REMARK VINA RESULT:      -7.5      0.000      0.000
REMARK  Name = 
REMARK  2 active torsions:
REMARK  status: ('A' for Active; 'I' for Inactive)
REMARK    1  A    between atoms: C_9  and  C_10
REMARK    2  A    between atoms: N_17  and  O_18
REMARK                            x       y       z     vdW  Elec       q    Type
REMARK                         _______ _______ _______ _____ _____    ______ ____
ROOT
ATOM      1  O   UNL     1       0.936   5.115  20.822  0.00  0.00    +0.000 OA
ATOM      2  C   UNL     1       1.397   4.236  20.097  0.00  0.00    +0.000 C 
ATOM      3  C   UNL     1       0.728   2.860  19.981  0.00  0.00    +0.000 C 
ATOM      4  C   UNL     1       0.932   2.217  18.598  0.00  0.00    +0.000 C 
ATOM      5  C   UNL     1       2.417   2.093  18.216  0.00  0.00    +0.000 C 
ATOM      6  C   UNL     1       3.090   3.375  18.518  0.00  0.00    +0.000 A 
ATOM      7  C   UNL     1       2.651   4.369  19.359  0.00  0.00    +0.000 A 
ATOM      8  N   UNL     1       3.549   5.415  19.371  0.00  0.00    +0.000 NA
ATOM      9  C   UNL     1       4.564   5.042  18.594  0.00  0.00    +0.000 A 
ATOM     10  N   UNL     1       4.275   3.812  18.022  0.00  0.00    +0.000 N 
ENDROOT
BRANCH   9  11
ATOM     11  C   UNL     1       5.780   5.840  18.380  0.00  0.00    +0.000 A 
ATOM     12  C   UNL     1       6.909   5.625  19.185  0.00  0.00    +0.000 A 
ATOM     13  C   UNL     1       8.076   6.371  18.994  0.00  0.00    +0.000 A 
ATOM     14  C   UNL     1       8.139   7.340  17.990  0.00  0.00    +0.000 A 
ATOM     15  C   UNL     1       7.035   7.551  17.171  0.00  0.00    +0.000 A 
ATOM     16  C   UNL     1       5.879   6.799  17.367  0.00  0.00    +0.000 A 
ATOM     17  F   UNL     1       4.836   7.036  16.557  0.00  0.00    +0.000 F 
ENDBRANCH   9  11
BRANCH  10  18
ATOM     18  O   UNL     1       4.976   3.094  17.057  0.00  0.00    +0.000 OA
ATOM     19  H   UNL     1       5.131   3.772  16.382  0.00  0.00    +0.000 HD
ENDBRANCH  10  18
TORSDOF 2
ENDMDL
MODEL 2
REMARK VINA RESULT:      -7.3      2.040      5.938
REMARK  Name = 
REMARK  2 active torsions:
REMARK  status: ('A' for Active; 'I' for Inactive)
REMARK    1  A    between atoms: C_9  and  C_10
REMARK    2  A    between atoms: N_17  and  O_18
REMARK                            x       y       z     vdW  Elec       q    Type
REMARK                         _______ _______ _______ _____ _____    ______ ____
ROOT
ATOM      1  O   UNL     1       8.429   5.095  20.024  0.00  0.00    +0.000 OA
ATOM      2  C   UNL     1       7.738   5.771  19.266  0.00  0.00    +0.000 C 
ATOM      3  C   UNL     1       8.278   7.051  18.616  0.00  0.00    +0.000 C 
ATOM      4  C   UNL     1       7.653   7.324  17.236  0.00  0.00    +0.000 C 
ATOM      5  C   UNL     1       6.118   7.387  17.283  0.00  0.00    +0.000 C 
ATOM      6  C   UNL     1       5.622   6.245  18.082  0.00  0.00    +0.000 A 
ATOM      7  C   UNL     1       6.332   5.488  18.983  0.00  0.00    +0.000 A 
ATOM      8  N   UNL     1       5.527   4.506  19.518  0.00  0.00    +0.000 NA
ATOM      9  C   UNL     1       4.315   4.695  19.002  0.00  0.00    +0.000 A 
ATOM     10  N   UNL     1       4.367   5.729  18.079  0.00  0.00    +0.000 N 
ENDROOT
BRANCH   9  11
ATOM     11  C   UNL     1       3.129   3.904  19.359  0.00  0.00    +0.000 A 
ATOM     12  C   UNL     1       2.339   4.282  20.456  0.00  0.00    +0.000 A 
ATOM     13  C   UNL     1       1.206   3.545  20.809  0.00  0.00    +0.000 A 
ATOM     14  C   UNL     1       0.835   2.420  20.068  0.00  0.00    +0.000 A 
ATOM     15  C   UNL     1       1.596   2.044  18.966  0.00  0.00    +0.000 A 
ATOM     16  C   UNL     1       2.721   2.789  18.620  0.00  0.00    +0.000 A 
ATOM     17  F   UNL     1       3.428   2.390  17.552  0.00  0.00    +0.000 F 
ENDBRANCH   9  11
BRANCH  10  18
ATOM     18  O   UNL     1       3.385   6.195  17.210  0.00  0.00    +0.000 OA
ATOM     19  H   UNL     1       2.625   5.650  17.463  0.00  0.00    +0.000 HD
ENDBRANCH  10  18
TORSDOF 2
ENDMDL
MODEL 3
REMARK VINA RESULT:      -7.3      2.486      5.599
REMARK  Name = 
REMARK  2 active torsions:
REMARK  status: ('A' for Active; 'I' for Inactive)
REMARK    1  A    between atoms: C_9  and  C_10
REMARK    2  A    between atoms: N_17  and  O_18
REMARK                            x       y       z     vdW  Elec       q    Type
REMARK                         _______ _______ _______ _____ _____    ______ ____
ROOT
ATOM      1  O   UNL     1       8.045   5.032  17.806  0.00  0.00    +0.000 OA
ATOM      2  C   UNL     1       7.153   4.820  16.987  0.00  0.00    +0.000 C 
ATOM      3  C   UNL     1       7.342   5.136  15.498  0.00  0.00    +0.000 C 
ATOM      4  C   UNL     1       6.539   4.192  14.586  0.00  0.00    +0.000 C 
ATOM      5  C   UNL     1       5.037   4.184  14.917  0.00  0.00    +0.000 C 
ATOM      6  C   UNL     1       4.878   4.072  16.383  0.00  0.00    +0.000 A 
ATOM      7  C   UNL     1       5.819   4.346  17.347  0.00  0.00    +0.000 A 
ATOM      8  N   UNL     1       5.298   4.112  18.601  0.00  0.00    +0.000 NA
ATOM      9  C   UNL     1       4.028   3.758  18.417  0.00  0.00    +0.000 A 
ATOM     10  N   UNL     1       3.767   3.681  17.057  0.00  0.00    +0.000 N 
ENDROOT
BRANCH   9  11
ATOM     11  C   UNL     1       3.079   3.482  19.504  0.00  0.00    +0.000 A 
ATOM     12  C   UNL     1       3.442   2.618  20.549  0.00  0.00    +0.000 A 
ATOM     13  C   UNL     1       2.556   2.346  21.594  0.00  0.00    +0.000 A 
ATOM     14  C   UNL     1       1.291   2.939  21.621  0.00  0.00    +0.000 A 
ATOM     15  C   UNL     1       0.922   3.812  20.603  0.00  0.00    +0.000 A 
ATOM     16  C   UNL     1       1.816   4.080  19.568  0.00  0.00    +0.000 A 
ATOM     17  F   UNL     1       1.420   4.927  18.606  0.00  0.00    +0.000 F 
ENDBRANCH   9  11
BRANCH  10  18
ATOM     18  O   UNL     1       2.626   3.236  16.395  0.00  0.00    +0.000 OA
ATOM     19  H   UNL     1       2.972   2.483  15.892  0.00  0.00    +0.000 HD
ENDBRANCH  10  18
TORSDOF 2
ENDMDL
MODEL 4
REMARK VINA RESULT:      -7.3      1.008      2.268
REMARK  Name = 
REMARK  2 active torsions:
REMARK  status: ('A' for Active; 'I' for Inactive)
REMARK    1  A    between atoms: C_9  and  C_10
REMARK    2  A    between atoms: N_17  and  O_18
REMARK                            x       y       z     vdW  Elec       q    Type
REMARK                         _______ _______ _______ _____ _____    ______ ____
ROOT
ATOM      1  O   UNL     1       3.527   0.973  18.210  0.00  0.00    +0.000 OA
ATOM      2  C   UNL     1       2.906   1.922  18.684  0.00  0.00    +0.000 C 
ATOM      3  C   UNL     1       1.424   1.802  19.061  0.00  0.00    +0.000 C 
ATOM      4  C   UNL     1       1.037   2.711  20.241  0.00  0.00    +0.000 C 
ATOM      5  C   UNL     1       1.378   4.189  19.986  0.00  0.00    +0.000 C 
ATOM      6  C   UNL     1       2.750   4.269  19.439  0.00  0.00    +0.000 A 
ATOM      7  C   UNL     1       3.472   3.259  18.849  0.00  0.00    +0.000 A 
ATOM      8  N   UNL     1       4.716   3.719  18.475  0.00  0.00    +0.000 NA
ATOM      9  C   UNL     1       4.738   5.017  18.772  0.00  0.00    +0.000 A 
ATOM     10  N   UNL     1       3.556   5.360  19.410  0.00  0.00    +0.000 N 
ENDROOT
BRANCH   9  11
ATOM     11  C   UNL     1       5.862   5.915  18.474  0.00  0.00    +0.000 A 
ATOM     12  C   UNL     1       7.081   5.761  19.151  0.00  0.00    +0.000 A 
ATOM     13  C   UNL     1       8.162   6.603  18.879  0.00  0.00    +0.000 A 
ATOM     14  C   UNL     1       8.049   7.611  17.918  0.00  0.00    +0.000 A 
ATOM     15  C   UNL     1       6.854   7.765  17.225  0.00  0.00    +0.000 A 
ATOM     16  C   UNL     1       5.784   6.917  17.501  0.00  0.00    +0.000 A 
ATOM     17  F   UNL     1       4.648   7.101  16.811  0.00  0.00    +0.000 F 
ENDBRANCH   9  11
BRANCH  10  18
ATOM     18  O   UNL     1       3.184   6.562  20.006  0.00  0.00    +0.000 OA
ATOM     19  H   UNL     1       4.027   6.867  20.374  0.00  0.00    +0.000 HD
ENDBRANCH  10  18
TORSDOF 2
ENDMDL
MODEL 5
REMARK VINA RESULT:      -7.3      2.680      5.781
REMARK  Name = 
REMARK  2 active torsions:
REMARK  status: ('A' for Active; 'I' for Inactive)
REMARK    1  A    between atoms: C_9  and  C_10
REMARK    2  A    between atoms: N_17  and  O_18
REMARK                            x       y       z     vdW  Elec       q    Type
REMARK                         _______ _______ _______ _____ _____    ______ ____
ROOT
ATOM      1  O   UNL     1       7.929   5.435  17.775  0.00  0.00    +0.000 OA
ATOM      2  C   UNL     1       7.066   5.106  16.965  0.00  0.00    +0.000 C 
ATOM      3  C   UNL     1       7.238   5.364  15.462  0.00  0.00    +0.000 C 
ATOM      4  C   UNL     1       6.528   4.309  14.595  0.00  0.00    +0.000 C 
ATOM      5  C   UNL     1       5.031   4.185  14.921  0.00  0.00    +0.000 C 
ATOM      6  C   UNL     1       4.870   4.132  16.390  0.00  0.00    +0.000 A 
ATOM      7  C   UNL     1       5.775   4.535  17.342  0.00  0.00    +0.000 A 
ATOM      8  N   UNL     1       5.267   4.317  18.604  0.00  0.00    +0.000 NA
ATOM      9  C   UNL     1       4.034   3.845  18.433  0.00  0.00    +0.000 A 
ATOM     10  N   UNL     1       3.792   3.678  17.078  0.00  0.00    +0.000 N 
ENDROOT
BRANCH   9  11
ATOM     11  C   UNL     1       3.104   3.540  19.529  0.00  0.00    +0.000 A 
ATOM     12  C   UNL     1       1.825   4.117  19.545  0.00  0.00    +0.000 A 
ATOM     13  C   UNL     1       0.926   3.836  20.577  0.00  0.00    +0.000 A 
ATOM     14  C   UNL     1       1.283   2.965  21.609  0.00  0.00    +0.000 A 
ATOM     15  C   UNL     1       2.540   2.369  21.598  0.00  0.00    +0.000 A 
ATOM     16  C   UNL     1       3.427   2.653  20.562  0.00  0.00    +0.000 A 
ATOM     17  F   UNL     1       4.629   2.058  20.590  0.00  0.00    +0.000 F 
ENDBRANCH   9  11
BRANCH  10  18
ATOM     18  O   UNL     1       2.700   3.103  16.434  0.00  0.00    +0.000 OA
ATOM     19  H   UNL     1       2.962   2.171  16.397  0.00  0.00    +0.000 HD
ENDBRANCH  10  18
TORSDOF 2
ENDMDL
MODEL 6
REMARK VINA RESULT:      -7.1      2.110      5.978
REMARK  Name = 
REMARK  2 active torsions:
REMARK  status: ('A' for Active; 'I' for Inactive)
REMARK    1  A    between atoms: C_9  and  C_10
REMARK    2  A    between atoms: N_17  and  O_18
REMARK                            x       y       z     vdW  Elec       q    Type
REMARK                         _______ _______ _______ _____ _____    ______ ____
ROOT
ATOM      1  O   UNL     1       8.329   5.125  20.137  0.00  0.00    +0.000 OA
ATOM      2  C   UNL     1       7.676   5.790  19.336  0.00  0.00    +0.000 C 
ATOM      3  C   UNL     1       8.245   7.066  18.703  0.00  0.00    +0.000 C 
ATOM      4  C   UNL     1       7.695   7.322  17.289  0.00  0.00    +0.000 C 
ATOM      5  C   UNL     1       6.159   7.378  17.252  0.00  0.00    +0.000 C 
ATOM      6  C   UNL     1       5.626   6.241  18.033  0.00  0.00    +0.000 A 
ATOM      7  C   UNL     1       6.289   5.497  18.979  0.00  0.00    +0.000 A 
ATOM      8  N   UNL     1       5.462   4.516  19.480  0.00  0.00    +0.000 NA
ATOM      9  C   UNL     1       4.278   4.694  18.897  0.00  0.00    +0.000 A 
ATOM     10  N   UNL     1       4.375   5.719  17.968  0.00  0.00    +0.000 N 
ENDROOT
BRANCH   9  11
ATOM     11  C   UNL     1       3.078   3.900  19.198  0.00  0.00    +0.000 A 
ATOM     12  C   UNL     1       2.703   2.848  18.348  0.00  0.00    +0.000 A 
ATOM     13  C   UNL     1       1.568   2.079  18.619  0.00  0.00    +0.000 A 
ATOM     14  C   UNL     1       0.791   2.341  19.750  0.00  0.00    +0.000 A 
ATOM     15  C   UNL     1       1.160   3.368  20.613  0.00  0.00    +0.000 A 
ATOM     16  C   UNL     1       2.296   4.125  20.335  0.00  0.00    +0.000 A 
ATOM     17  F   UNL     1       2.615   5.106  21.192  0.00  0.00    +0.000 F 
ENDBRANCH   9  11
BRANCH  10  18
ATOM     18  O   UNL     1       3.439   6.171  17.042  0.00  0.00    +0.000 OA
ATOM     19  H   UNL     1       3.114   5.338  16.669  0.00  0.00    +0.000 HD
ENDBRANCH  10  18
TORSDOF 2
ENDMDL
MODEL 7
REMARK VINA RESULT:      -7.1      1.102      1.579
REMARK  Name = 
REMARK  2 active torsions:
REMARK  status: ('A' for Active; 'I' for Inactive)
REMARK    1  A    between atoms: C_9  and  C_10
REMARK    2  A    between atoms: N_17  and  O_18
REMARK                            x       y       z     vdW  Elec       q    Type
REMARK                         _______ _______ _______ _____ _____    ______ ____
ROOT
ATOM      1  O   UNL     1       1.064   5.084  20.840  0.00  0.00    +0.000 OA
ATOM      2  C   UNL     1       1.524   4.223  20.092  0.00  0.00    +0.000 C 
ATOM      3  C   UNL     1       0.887   2.832  19.983  0.00  0.00    +0.000 C 
ATOM      4  C   UNL     1       1.064   2.206  18.589  0.00  0.00    +0.000 C 
ATOM      5  C   UNL     1       2.538   2.125  18.159  0.00  0.00    +0.000 C 
ATOM      6  C   UNL     1       3.188   3.421  18.452  0.00  0.00    +0.000 A 
ATOM      7  C   UNL     1       2.751   4.396  19.316  0.00  0.00    +0.000 A 
ATOM      8  N   UNL     1       3.621   5.464  19.310  0.00  0.00    +0.000 NA
ATOM      9  C   UNL     1       4.621   5.125  18.498  0.00  0.00    +0.000 A 
ATOM     10  N   UNL     1       4.345   3.893  17.924  0.00  0.00    +0.000 N 
ENDROOT
BRANCH   9  11
ATOM     11  C   UNL     1       5.808   5.955  18.254  0.00  0.00    +0.000 A 
ATOM     12  C   UNL     1       5.788   6.926  17.241  0.00  0.00    +0.000 A 
ATOM     13  C   UNL     1       6.905   7.728  16.996  0.00  0.00    +0.000 A 
ATOM     14  C   UNL     1       8.063   7.582  17.766  0.00  0.00    +0.000 A 
ATOM     15  C   UNL     1       8.092   6.638  18.786  0.00  0.00    +0.000 A 
ATOM     16  C   UNL     1       6.970   5.847  19.024  0.00  0.00    +0.000 A 
ATOM     17  F   UNL     1       7.041   4.947  20.017  0.00  0.00    +0.000 F 
ENDBRANCH   9  11
BRANCH  10  18
ATOM     18  O   UNL     1       5.033   3.202  16.930  0.00  0.00    +0.000 OA
ATOM     19  H   UNL     1       4.345   3.087  16.258  0.00  0.00    +0.000 HD
ENDBRANCH  10  18
TORSDOF 2
ENDMDL
MODEL 8
REMARK VINA RESULT:      -7.1      2.347      2.803
REMARK  Name = 
REMARK  2 active torsions:
REMARK  status: ('A' for Active; 'I' for Inactive)
REMARK    1  A    between atoms: C_9  and  C_10
REMARK    2  A    between atoms: N_17  and  O_18
REMARK                            x       y       z     vdW  Elec       q    Type
REMARK                         _______ _______ _______ _____ _____    ______ ____
ROOT
ATOM      1  O   UNL     1       2.092   6.760  20.025  0.00  0.00    +0.000 OA
ATOM      2  C   UNL     1       2.232   5.539  20.007  0.00  0.00    +0.000 C 
ATOM      3  C   UNL     1       1.646   4.650  21.112  0.00  0.00    +0.000 C 
ATOM      4  C   UNL     1       1.257   3.251  20.602  0.00  0.00    +0.000 C 
ATOM      5  C   UNL     1       2.430   2.519  19.928  0.00  0.00    +0.000 C 
ATOM      6  C   UNL     1       3.104   3.457  19.005  0.00  0.00    +0.000 A 
ATOM      7  C   UNL     1       3.029   4.829  19.010  0.00  0.00    +0.000 A 
ATOM      8  N   UNL     1       3.789   5.351  17.986  0.00  0.00    +0.000 NA
ATOM      9  C   UNL     1       4.380   4.315  17.394  0.00  0.00    +0.000 A 
ATOM     10  N   UNL     1       3.930   3.139  17.977  0.00  0.00    +0.000 N 
ENDROOT
BRANCH   9  11
ATOM     11  C   UNL     1       5.340   4.429  16.288  0.00  0.00    +0.000 A 
ATOM     12  C   UNL     1       4.955   4.070  14.987  0.00  0.00    +0.000 A 
ATOM     13  C   UNL     1       5.852   4.175  13.920  0.00  0.00    +0.000 A 
ATOM     14  C   UNL     1       7.149   4.650  14.132  0.00  0.00    +0.000 A 
ATOM     15  C   UNL     1       7.540   5.028  15.411  0.00  0.00    +0.000 A 
ATOM     16  C   UNL     1       6.636   4.923  16.467  0.00  0.00    +0.000 A 
ATOM     17  F   UNL     1       7.054   5.297  17.685  0.00  0.00    +0.000 F 
ENDBRANCH   9  11
BRANCH  10  18
ATOM     18  O   UNL     1       4.173   1.818  17.612  0.00  0.00    +0.000 OA
ATOM     19  H   UNL     1       4.942   1.913  17.031  0.00  0.00    +0.000 HD
ENDBRANCH  10  18
TORSDOF 2
ENDMDL
MODEL 9
REMARK VINA RESULT:      -7.0      2.334      2.870
REMARK  Name = 
REMARK  2 active torsions:
REMARK  status: ('A' for Active; 'I' for Inactive)
REMARK    1  A    between atoms: C_9  and  C_10
REMARK    2  A    between atoms: N_17  and  O_18
REMARK                            x       y       z     vdW  Elec       q    Type
REMARK                         _______ _______ _______ _____ _____    ______ ____
ROOT
ATOM      1  O   UNL     1       0.326   2.064  18.404  0.00  0.00    +0.000 OA
ATOM      2  C   UNL     1       1.017   2.725  19.176  0.00  0.00    +0.000 C 
ATOM      3  C   UNL     1       0.558   3.021  20.610  0.00  0.00    +0.000 C 
ATOM      4  C   UNL     1       1.735   3.159  21.591  0.00  0.00    +0.000 C 
ATOM      5  C   UNL     1       2.750   4.228  21.152  0.00  0.00    +0.000 C 
ATOM      6  C   UNL     1       3.034   4.046  19.712  0.00  0.00    +0.000 A 
ATOM      7  C   UNL     1       2.274   3.365  18.792  0.00  0.00    +0.000 A 
ATOM      8  N   UNL     1       2.874   3.408  17.553  0.00  0.00    +0.000 NA
ATOM      9  C   UNL     1       3.962   4.163  17.692  0.00  0.00    +0.000 A 
ATOM     10  N   UNL     1       4.102   4.522  19.024  0.00  0.00    +0.000 N 
ENDROOT
BRANCH   9  11
ATOM     11  C   UNL     1       4.864   4.526  16.590  0.00  0.00    +0.000 A 
ATOM     12  C   UNL     1       5.553   3.525  15.889  0.00  0.00    +0.000 A 
ATOM     13  C   UNL     1       6.412   3.850  14.836  0.00  0.00    +0.000 A 
ATOM     14  C   UNL     1       6.593   5.183  14.457  0.00  0.00    +0.000 A 
ATOM     15  C   UNL     1       5.904   6.186  15.130  0.00  0.00    +0.000 A 
ATOM     16  C   UNL     1       5.046   5.850  16.175  0.00  0.00    +0.000 A 
ATOM     17  F   UNL     1       4.402   6.848  16.798  0.00  0.00    +0.000 F 
ENDBRANCH   9  11
BRANCH  10  18
ATOM     18  O   UNL     1       5.142   5.196  19.657  0.00  0.00    +0.000 OA
ATOM     19  H   UNL     1       4.699   5.547  20.444  0.00  0.00    +0.000 HD
ENDBRANCH  10  18
TORSDOF 2
ENDMDL
