MODEL 1
REMARK VINA RESULT:      -7.1      0.000      0.000
REMARK  Name = 
REMARK  8 active torsions:
REMARK  status: ('A' for Active; 'I' for Inactive)
REMARK    1  A    between atoms: C_1  and  C_2
REMARK    2  A    between atoms: C_2  and  O_4
REMARK    3  A    between atoms: O_4  and  C_5
REMARK    4  A    between atoms: C_7  and  O_8
REMARK    5  A    between atoms: O_8  and  C_9
REMARK    6  A    between atoms: C_9  and  C_10
REMARK    7  A    between atoms: C_13  and  C_14
REMARK    8  A    between atoms: C_13  and  C_15
REMARK                            x       y       z     vdW  Elec       q    Type
REMARK                         _______ _______ _______ _____ _____    ______ ____
ROOT
ATOM      1  C   UNL     1       4.959   5.139  16.802  0.00  0.00    +0.000 C 
ATOM      2  C   UNL     1       4.132   6.274  17.120  0.00  0.00    +0.000 C 
ATOM      3  C   UNL     1       2.696   6.050  18.105  0.00  0.00    +0.000 C 
ATOM      4  C   UNL     1       2.872   4.943  17.277  0.00  0.00    +0.000 C 
ATOM      5  C   UNL     1       4.250   4.471  18.640  0.00  0.00    +0.000 C 
ATOM      6  C   UNL     1       4.498   3.504  19.897  0.00  0.00    +0.000 C 
ATOM      7  C   UNL     1       5.346   5.561  19.228  0.00  0.00    +0.000 C 
ATOM      8  C   UNL     1       4.436   3.580  17.529  0.00  0.00    +0.000 C 
ATOM      9  C   UNL     1       2.724   3.057  18.191  0.00  0.00    +0.000 C 
ATOM     10  C   UNL     1       2.391   1.945  19.198  0.00  0.00    +0.000 C 
ATOM     11  O   UNL     1       2.620   0.764  18.943  0.00  0.00    +0.000 OA
ATOM     12  C   UNL     1       1.804   2.269  20.537  0.00  0.00    +0.000 C 
ATOM     13  C   UNL     1       1.474   3.475  21.022  0.00  0.00    +0.000 C 
ATOM     14  C   UNL     1       1.584   4.726  20.254  0.00  0.00    +0.000 C 
ATOM     15  O   UNL     1       1.235   5.782  20.775  0.00  0.00    +0.000 OA
ATOM     16  C   UNL     1       1.898   4.625  18.801  0.00  0.00    +0.000 C 
ENDROOT
BRANCH   1  17
ATOM     17  O   UNL     1       6.301   5.362  16.456  0.00  0.00    +0.000 OA
BRANCH  17  19
ATOM     18  C   UNL     1       5.650   4.356  14.479  0.00  0.00    +0.000 C 
ATOM     19  C   UNL     1       6.719   5.144  15.184  0.00  0.00    +0.000 C 
ATOM     20  O   UNL     1       7.787   5.475  14.702  0.00  0.00    +0.000 OA
ENDBRANCH  17  19
ENDBRANCH   1  17
BRANCH   3  21
ATOM     21  O   UNL     1       1.777   7.055  17.814  0.00  0.00    +0.000 OA
BRANCH  21  22
ATOM     22  C   UNL     1       2.164   8.110  18.604  0.00  0.00    +0.000 C 
ATOM     23  C   UNL     1       2.155   9.412  17.878  0.00  0.00    +0.000 C 
ATOM     24  O   UNL     1       2.539   8.017  19.769  0.00  0.00    +0.000 OA
ENDBRANCH  21  22
ENDBRANCH   3  21
TORSDOF 4
ENDMDL
MODEL 2
REMARK VINA RESULT:      -6.9      1.574      5.134
REMARK  Name = 
REMARK  8 active torsions:
REMARK  status: ('A' for Active; 'I' for Inactive)
REMARK    1  A    between atoms: C_1  and  C_2
REMARK    2  A    between atoms: C_2  and  O_4
REMARK    3  A    between atoms: O_4  and  C_5
REMARK    4  A    between atoms: C_7  and  O_8
REMARK    5  A    between atoms: O_8  and  C_9
REMARK    6  A    between atoms: C_9  and  C_10
REMARK    7  A    between atoms: C_13  and  C_14
REMARK    8  A    between atoms: C_13  and  C_15
REMARK                            x       y       z     vdW  Elec       q    Type
REMARK                         _______ _______ _______ _____ _____    ______ ____
ROOT
ATOM      1  C   UNL     1       3.422   3.691  19.903  0.00  0.00    +0.000 C 
ATOM      2  C   UNL     1       2.739   4.933  19.653  0.00  0.00    +0.000 C 
ATOM      3  C   UNL     1       3.515   6.165  18.673  0.00  0.00    +0.000 C 
ATOM      4  C   UNL     1       4.474   5.507  19.442  0.00  0.00    +0.000 C 
ATOM      5  C   UNL     1       4.253   4.104  18.042  0.00  0.00    +0.000 C 
ATOM      6  C   UNL     1       4.969   3.506  16.735  0.00  0.00    +0.000 C 
ATOM      7  C   UNL     1       2.776   3.597  17.499  0.00  0.00    +0.000 C 
ATOM      8  C   UNL     1       5.024   3.520  19.104  0.00  0.00    +0.000 C 
ATOM      9  C   UNL     1       6.202   4.864  18.435  0.00  0.00    +0.000 C 
ATOM     10  C   UNL     1       7.307   4.722  17.377  0.00  0.00    +0.000 C 
ATOM     11  O   UNL     1       8.285   4.003  17.569  0.00  0.00    +0.000 OA
ATOM     12  C   UNL     1       7.211   5.433  16.062  0.00  0.00    +0.000 C 
ATOM     13  C   UNL     1       6.242   6.262  15.642  0.00  0.00    +0.000 C 
ATOM     14  C   UNL     1       5.098   6.673  16.472  0.00  0.00    +0.000 C 
ATOM     15  O   UNL     1       4.272   7.455  16.008  0.00  0.00    +0.000 OA
ATOM     16  C   UNL     1       5.115   6.299  17.914  0.00  0.00    +0.000 C 
ENDROOT
BRANCH   1  17
ATOM     17  O   UNL     1       2.661   2.562  20.246  0.00  0.00    +0.000 OA
BRANCH  17  19
ATOM     18  C   UNL     1       0.378   2.916  20.144  0.00  0.00    +0.000 C 
ATOM     19  C   UNL     1       1.567   2.695  21.038  0.00  0.00    +0.000 C 
ATOM     20  O   UNL     1       1.545   2.693  22.255  0.00  0.00    +0.000 OA
ENDBRANCH  17  19
ENDBRANCH   1  17
BRANCH   3  21
ATOM     21  O   UNL     1       3.013   7.415  19.024  0.00  0.00    +0.000 OA
BRANCH  21  22
ATOM     22  C   UNL     1       2.058   7.680  18.073  0.00  0.00    +0.000 C 
ATOM     23  C   UNL     1       1.799   9.137  17.899  0.00  0.00    +0.000 C 
ATOM     24  O   UNL     1       1.425   6.828  17.455  0.00  0.00    +0.000 OA
ENDBRANCH  21  22
ENDBRANCH   3  21
TORSDOF 4
ENDMDL
MODEL 3
REMARK VINA RESULT:      -6.7      1.579      4.236
REMARK  Name = 
REMARK  8 active torsions:
REMARK  status: ('A' for Active; 'I' for Inactive)
REMARK    1  A    between atoms: C_1  and  C_2
REMARK    2  A    between atoms: C_2  and  O_4
REMARK    3  A    between atoms: O_4  and  C_5
REMARK    4  A    between atoms: C_7  and  O_8
REMARK    5  A    between atoms: O_8  and  C_9
REMARK    6  A    between atoms: C_9  and  C_10
REMARK    7  A    between atoms: C_13  and  C_14
REMARK    8  A    between atoms: C_13  and  C_15
REMARK                            x       y       z     vdW  Elec       q    Type
REMARK                         _______ _______ _______ _____ _____    ______ ____
ROOT
ATOM      1  C   UNL     1       4.999   4.883  16.590  0.00  0.00    +0.000 C 
ATOM      2  C   UNL     1       5.273   3.797  17.495  0.00  0.00    +0.000 C 
ATOM      3  C   UNL     1       4.600   3.832  19.116  0.00  0.00    +0.000 C 
ATOM      4  C   UNL     1       4.941   5.125  18.724  0.00  0.00    +0.000 C 
ATOM      5  C   UNL     1       3.239   4.981  17.695  0.00  0.00    +0.000 C 
ATOM      6  C   UNL     1       1.705   5.453  17.726  0.00  0.00    +0.000 C 
ATOM      7  C   UNL     1       2.841   3.652  16.793  0.00  0.00    +0.000 C 
ATOM      8  C   UNL     1       3.912   6.163  17.232  0.00  0.00    +0.000 C 
ATOM      9  C   UNL     1       3.491   6.612  19.038  0.00  0.00    +0.000 C 
ATOM     10  C   UNL     1       2.260   7.361  19.572  0.00  0.00    +0.000 C 
ATOM     11  O   UNL     1       2.041   8.530  19.262  0.00  0.00    +0.000 OA
ATOM     12  C   UNL     1       1.270   6.678  20.465  0.00  0.00    +0.000 C 
ATOM     13  C   UNL     1       1.309   5.420  20.928  0.00  0.00    +0.000 C 
ATOM     14  C   UNL     1       2.417   4.485  20.671  0.00  0.00    +0.000 C 
ATOM     15  O   UNL     1       2.375   3.358  21.157  0.00  0.00    +0.000 OA
ATOM     16  C   UNL     1       3.644   5.024  20.021  0.00  0.00    +0.000 C 
ENDROOT
BRANCH   1  17
ATOM     17  O   UNL     1       5.106   4.650  15.210  0.00  0.00    +0.000 OA
BRANCH  17  19
ATOM     18  C   UNL     1       6.262   3.842  13.377  0.00  0.00    +0.000 C 
ATOM     19  C   UNL     1       6.319   4.712  14.603  0.00  0.00    +0.000 C 
ATOM     20  O   UNL     1       7.300   5.315  14.996  0.00  0.00    +0.000 OA
ENDBRANCH  17  19
ENDBRANCH   1  17
BRANCH   3  21
ATOM     21  O   UNL     1       5.405   3.076  19.965  0.00  0.00    +0.000 OA
BRANCH  21  22
ATOM     22  C   UNL     1       4.795   1.846  20.010  0.00  0.00    +0.000 C 
ATOM     23  C   UNL     1       5.249   1.015  21.160  0.00  0.00    +0.000 C 
ATOM     24  O   UNL     1       4.001   1.424  19.174  0.00  0.00    +0.000 OA
ENDBRANCH  21  22
ENDBRANCH   3  21
TORSDOF 4
ENDMDL
MODEL 4
REMARK VINA RESULT:      -6.2      1.702      4.947
REMARK  Name = 
REMARK  8 active torsions:
REMARK  status: ('A' for Active; 'I' for Inactive)
REMARK    1  A    between atoms: C_1  and  C_2
REMARK    2  A    between atoms: C_2  and  O_4
REMARK    3  A    between atoms: O_4  and  C_5
REMARK    4  A    between atoms: C_7  and  O_8
REMARK    5  A    between atoms: O_8  and  C_9
REMARK    6  A    between atoms: C_9  and  C_10
REMARK    7  A    between atoms: C_13  and  C_14
REMARK    8  A    between atoms: C_13  and  C_15
REMARK                            x       y       z     vdW  Elec       q    Type
REMARK                         _______ _______ _______ _____ _____    ______ ____
ROOT
ATOM      1  C   UNL     1       2.457   7.236  19.573  0.00  0.00    +0.000 C 
ATOM      2  C   UNL     1       3.597   7.249  18.695  0.00  0.00    +0.000 C 
ATOM      3  C   UNL     1       4.417   5.743  18.319  0.00  0.00    +0.000 C 
ATOM      4  C   UNL     1       3.975   5.718  19.640  0.00  0.00    +0.000 C 
ATOM      5  C   UNL     1       2.222   5.331  18.772  0.00  0.00    +0.000 C 
ATOM      6  C   UNL     1       1.207   4.126  18.466  0.00  0.00    +0.000 C 
ATOM      7  C   UNL     1       1.659   6.174  17.465  0.00  0.00    +0.000 C 
ATOM      8  C   UNL     1       1.954   5.611  20.155  0.00  0.00    +0.000 C 
ATOM      9  C   UNL     1       2.952   3.988  20.253  0.00  0.00    +0.000 C 
ATOM     10  C   UNL     1       2.424   2.546  20.305  0.00  0.00    +0.000 C 
ATOM     11  O   UNL     1       1.745   2.149  21.249  0.00  0.00    +0.000 OA
ATOM     12  C   UNL     1       2.696   1.585  19.188  0.00  0.00    +0.000 C 
ATOM     13  C   UNL     1       3.408   1.799  18.072  0.00  0.00    +0.000 C 
ATOM     14  C   UNL     1       4.122   3.054  17.783  0.00  0.00    +0.000 C 
ATOM     15  O   UNL     1       4.769   3.149  16.743  0.00  0.00    +0.000 OA
ATOM     16  C   UNL     1       4.215   4.067  18.870  0.00  0.00    +0.000 C 
ENDROOT
BRANCH   1  17
ATOM     17  O   UNL     1       1.537   8.294  19.496  0.00  0.00    +0.000 OA
BRANCH  17  19
ATOM     18  C   UNL     1      -0.010   9.842  20.243  0.00  0.00    +0.000 C 
ATOM     19  C   UNL     1       1.083   8.884  20.631  0.00  0.00    +0.000 C 
ATOM     20  O   UNL     1       1.510   8.719  21.758  0.00  0.00    +0.000 OA
ENDBRANCH  17  19
ENDBRANCH   1  17
BRANCH   3  21
ATOM     21  O   UNL     1       5.741   6.012  17.983  0.00  0.00    +0.000 OA
BRANCH  21  22
ATOM     22  C   UNL     1       5.739   6.084  16.612  0.00  0.00    +0.000 C 
ATOM     23  C   UNL     1       6.986   5.544  16.000  0.00  0.00    +0.000 C 
ATOM     24  O   UNL     1       4.847   6.588  15.935  0.00  0.00    +0.000 OA
ENDBRANCH  21  22
ENDBRANCH   3  21
TORSDOF 4
ENDMDL
MODEL 5
REMARK VINA RESULT:      -6.2      2.216      4.024
REMARK  Name = 
REMARK  8 active torsions:
REMARK  status: ('A' for Active; 'I' for Inactive)
REMARK    1  A    between atoms: C_1  and  C_2
REMARK    2  A    between atoms: C_2  and  O_4
REMARK    3  A    between atoms: O_4  and  C_5
REMARK    4  A    between atoms: C_7  and  O_8
REMARK    5  A    between atoms: O_8  and  C_9
REMARK    6  A    between atoms: C_9  and  C_10
REMARK    7  A    between atoms: C_13  and  C_14
REMARK    8  A    between atoms: C_13  and  C_15
REMARK                            x       y       z     vdW  Elec       q    Type
REMARK                         _______ _______ _______ _____ _____    ______ ____
ROOT
ATOM      1  C   UNL     1       6.621   5.694  18.497  0.00  0.00    +0.000 C 
ATOM      2  C   UNL     1       6.481   5.187  17.157  0.00  0.00    +0.000 C 
ATOM      3  C   UNL     1       5.178   4.072  16.785  0.00  0.00    +0.000 C 
ATOM      4  C   UNL     1       5.654   3.823  18.071  0.00  0.00    +0.000 C 
ATOM      5  C   UNL     1       4.557   5.432  18.505  0.00  0.00    +0.000 C 
ATOM      6  C   UNL     1       3.158   5.862  19.163  0.00  0.00    +0.000 C 
ATOM      7  C   UNL     1       4.586   6.813  17.595  0.00  0.00    +0.000 C 
ATOM      8  C   UNL     1       5.363   5.148  19.660  0.00  0.00    +0.000 C 
ATOM      9  C   UNL     1       4.208   3.631  19.584  0.00  0.00    +0.000 C 
ATOM     10  C   UNL     1       2.867   3.417  20.302  0.00  0.00    +0.000 C 
ATOM     11  O   UNL     1       2.800   3.368  21.528  0.00  0.00    +0.000 OA
ATOM     12  C   UNL     1       1.590   3.293  19.529  0.00  0.00    +0.000 C 
ATOM     13  C   UNL     1       1.427   3.316  18.197  0.00  0.00    +0.000 C 
ATOM     14  C   UNL     1       2.539   3.408  17.237  0.00  0.00    +0.000 C 
ATOM     15  O   UNL     1       2.294   3.399  16.033  0.00  0.00    +0.000 OA
ATOM     16  C   UNL     1       3.926   3.280  17.764  0.00  0.00    +0.000 C 
ENDROOT
BRANCH   1  17
ATOM     17  O   UNL     1       7.310   6.901  18.691  0.00  0.00    +0.000 OA
BRANCH  17  19
ATOM     18  C   UNL     1       8.168   8.961  18.084  0.00  0.00    +0.000 C 
ATOM     19  C   UNL     1       7.816   7.573  17.625  0.00  0.00    +0.000 C 
ATOM     20  O   UNL     1       7.922   7.158  16.486  0.00  0.00    +0.000 OA
ENDBRANCH  17  19
ENDBRANCH   1  17
BRANCH   3  21
ATOM     21  O   UNL     1       5.542   3.286  15.694  0.00  0.00    +0.000 OA
BRANCH  21  22
ATOM     22  C   UNL     1       5.494   4.145  14.624  0.00  0.00    +0.000 C 
ATOM     23  C   UNL     1       6.250   3.642  13.442  0.00  0.00    +0.000 C 
ATOM     24  O   UNL     1       4.945   5.243  14.626  0.00  0.00    +0.000 OA
ENDBRANCH  21  22
ENDBRANCH   3  21
TORSDOF 4
ENDMDL
MODEL 6
REMARK VINA RESULT:      -6.1      1.122      1.217
REMARK  Name = 
REMARK  8 active torsions:
REMARK  status: ('A' for Active; 'I' for Inactive)
REMARK    1  A    between atoms: C_1  and  C_2
REMARK    2  A    between atoms: C_2  and  O_4
REMARK    3  A    between atoms: O_4  and  C_5
REMARK    4  A    between atoms: C_7  and  O_8
REMARK    5  A    between atoms: O_8  and  C_9
REMARK    6  A    between atoms: C_9  and  C_10
REMARK    7  A    between atoms: C_13  and  C_14
REMARK    8  A    between atoms: C_13  and  C_15
REMARK                            x       y       z     vdW  Elec       q    Type
REMARK                         _______ _______ _______ _____ _____    ______ ____
ROOT
ATOM      1  C   UNL     1       4.663   3.925  16.476  0.00  0.00    +0.000 C 
ATOM      2  C   UNL     1       4.204   5.282  16.619  0.00  0.00    +0.000 C 
ATOM      3  C   UNL     1       2.939   5.649  17.779  0.00  0.00    +0.000 C 
ATOM      4  C   UNL     1       2.700   4.401  17.206  0.00  0.00    +0.000 C 
ATOM      5  C   UNL     1       4.123   3.834  18.483  0.00  0.00    +0.000 C 
ATOM      6  C   UNL     1       4.328   3.089  19.890  0.00  0.00    +0.000 C 
ATOM      7  C   UNL     1       5.535   4.671  18.688  0.00  0.00    +0.000 C 
ATOM      8  C   UNL     1       3.900   2.734  17.586  0.00  0.00    +0.000 C 
ATOM      9  C   UNL     1       2.245   2.835  18.530  0.00  0.00    +0.000 C 
ATOM     10  C   UNL     1       1.818   2.066  19.790  0.00  0.00    +0.000 C 
ATOM     11  O   UNL     1       1.705   0.843  19.784  0.00  0.00    +0.000 OA
ATOM     12  C   UNL     1       1.556   2.784  21.079  0.00  0.00    +0.000 C 
ATOM     13  C   UNL     1       1.617   4.104  21.314  0.00  0.00    +0.000 C 
ATOM     14  C   UNL     1       1.903   5.109  20.278  0.00  0.00    +0.000 C 
ATOM     15  O   UNL     1       1.915   6.299  20.584  0.00  0.00    +0.000 OA
ATOM     16  C   UNL     1       1.941   4.655  18.860  0.00  0.00    +0.000 C 
ENDROOT
BRANCH   1  17
ATOM     17  O   UNL     1       5.944   3.702  15.945  0.00  0.00    +0.000 OA
BRANCH  17  19
ATOM     18  C   UNL     1       7.365   5.098  14.773  0.00  0.00    +0.000 C 
ATOM     19  C   UNL     1       6.236   4.108  14.684  0.00  0.00    +0.000 C 
ATOM     20  O   UNL     1       5.663   3.781  13.661  0.00  0.00    +0.000 OA
ENDBRANCH  17  19
ENDBRANCH   1  17
BRANCH   3  21
ATOM     21  O   UNL     1       2.261   6.795  17.372  0.00  0.00    +0.000 OA
BRANCH  21  22
ATOM     22  C   UNL     1       3.014   7.832  17.866  0.00  0.00    +0.000 C 
ATOM     23  C   UNL     1       2.230   9.087  18.043  0.00  0.00    +0.000 C 
ATOM     24  O   UNL     1       4.220   7.781  18.092  0.00  0.00    +0.000 OA
ENDBRANCH  21  22
ENDBRANCH   3  21
TORSDOF 4
ENDMDL
MODEL 7
REMARK VINA RESULT:      -6.1      1.646      4.700
REMARK  Name = 
REMARK  8 active torsions:
REMARK  status: ('A' for Active; 'I' for Inactive)
REMARK    1  A    between atoms: C_1  and  C_2
REMARK    2  A    between atoms: C_2  and  O_4
REMARK    3  A    between atoms: O_4  and  C_5
REMARK    4  A    between atoms: C_7  and  O_8
REMARK    5  A    between atoms: O_8  and  C_9
REMARK    6  A    between atoms: C_9  and  C_10
REMARK    7  A    between atoms: C_13  and  C_14
REMARK    8  A    between atoms: C_13  and  C_15
REMARK                            x       y       z     vdW  Elec       q    Type
REMARK                         _______ _______ _______ _____ _____    ______ ____
ROOT
ATOM      1  C   UNL     1       2.427   7.409  18.653  0.00  0.00    +0.000 C 
ATOM      2  C   UNL     1       3.462   7.094  17.703  0.00  0.00    +0.000 C 
ATOM      3  C   UNL     1       4.311   5.562  17.824  0.00  0.00    +0.000 C 
ATOM      4  C   UNL     1       4.020   6.038  19.101  0.00  0.00    +0.000 C 
ATOM      5  C   UNL     1       2.204   5.341  18.662  0.00  0.00    +0.000 C 
ATOM      6  C   UNL     1       1.225   4.104  18.959  0.00  0.00    +0.000 C 
ATOM      7  C   UNL     1       1.457   5.621  17.213  0.00  0.00    +0.000 C 
ATOM      8  C   UNL     1       2.076   6.124  19.860  0.00  0.00    +0.000 C 
ATOM      9  C   UNL     1       3.161   4.665  20.439  0.00  0.00    +0.000 C 
ATOM     10  C   UNL     1       2.717   3.348  21.094  0.00  0.00    +0.000 C 
ATOM     11  O   UNL     1       2.167   3.336  22.193  0.00  0.00    +0.000 OA
ATOM     12  C   UNL     1       2.913   2.037  20.397  0.00  0.00    +0.000 C 
ATOM     13  C   UNL     1       3.486   1.815  19.205  0.00  0.00    +0.000 C 
ATOM     14  C   UNL     1       4.098   2.869  18.380  0.00  0.00    +0.000 C 
ATOM     15  O   UNL     1       4.620   2.566  17.310  0.00  0.00    +0.000 OA
ATOM     16  C   UNL     1       4.258   4.221  18.986  0.00  0.00    +0.000 C 
ENDROOT
BRANCH   1  17
ATOM     17  O   UNL     1       1.451   8.352  18.295  0.00  0.00    +0.000 OA
BRANCH  17  19
ATOM     18  C   UNL     1       0.867   9.809  19.994  0.00  0.00    +0.000 C 
ATOM     19  C   UNL     1       1.584   9.647  18.681  0.00  0.00    +0.000 C 
ATOM     20  O   UNL     1       2.134  10.539  18.062  0.00  0.00    +0.000 OA
ENDBRANCH  17  19
ENDBRANCH   1  17
BRANCH   3  21
ATOM     21  O   UNL     1       5.575   5.691  17.254  0.00  0.00    +0.000 OA
BRANCH  21  22
ATOM     22  C   UNL     1       5.334   5.785  15.905  0.00  0.00    +0.000 C 
ATOM     23  C   UNL     1       5.352   4.462  15.219  0.00  0.00    +0.000 C 
ATOM     24  O   UNL     1       5.176   6.835  15.290  0.00  0.00    +0.000 OA
ENDBRANCH  21  22
ENDBRANCH   3  21
TORSDOF 4
ENDMDL
MODEL 8
REMARK VINA RESULT:      -6.1      1.146      1.298
REMARK  Name = 
REMARK  8 active torsions:
REMARK  status: ('A' for Active; 'I' for Inactive)
REMARK    1  A    between atoms: C_1  and  C_2
REMARK    2  A    between atoms: C_2  and  O_4
REMARK    3  A    between atoms: O_4  and  C_5
REMARK    4  A    between atoms: C_7  and  O_8
REMARK    5  A    between atoms: O_8  and  C_9
REMARK    6  A    between atoms: C_9  and  C_10
REMARK    7  A    between atoms: C_13  and  C_14
REMARK    8  A    between atoms: C_13  and  C_15
REMARK                            x       y       z     vdW  Elec       q    Type
REMARK                         _______ _______ _______ _____ _____    ______ ____
ROOT
ATOM      1  C   UNL     1       5.112   4.822  16.836  0.00  0.00    +0.000 C 
ATOM      2  C   UNL     1       5.015   6.044  17.590  0.00  0.00    +0.000 C 
ATOM      3  C   UNL     1       3.654   6.288  18.671  0.00  0.00    +0.000 C 
ATOM      4  C   UNL     1       3.233   5.591  17.540  0.00  0.00    +0.000 C 
ATOM      5  C   UNL     1       4.097   4.061  18.485  0.00  0.00    +0.000 C 
ATOM      6  C   UNL     1       3.745   2.757  19.353  0.00  0.00    +0.000 C 
ATOM      7  C   UNL     1       5.588   4.165  19.193  0.00  0.00    +0.000 C 
ATOM      8  C   UNL     1       3.810   3.621  17.147  0.00  0.00    +0.000 C 
ATOM      9  C   UNL     1       2.065   3.877  17.876  0.00  0.00    +0.000 C 
ATOM     10  C   UNL     1       1.154   2.842  18.554  0.00  0.00    +0.000 C 
ATOM     11  O   UNL     1       0.720   1.872  17.935  0.00  0.00    +0.000 OA
ATOM     12  C   UNL     1       0.791   2.965  20.002  0.00  0.00    +0.000 C 
ATOM     13  C   UNL     1       1.146   3.933  20.861  0.00  0.00    +0.000 C 
ATOM     14  C   UNL     1       1.935   5.116  20.482  0.00  0.00    +0.000 C 
ATOM     15  O   UNL     1       2.193   5.962  21.335  0.00  0.00    +0.000 OA
ATOM     16  C   UNL     1       2.193   5.346  19.034  0.00  0.00    +0.000 C 
ENDROOT
BRANCH   1  17
ATOM     17  O   UNL     1       6.374   4.416  16.373  0.00  0.00    +0.000 OA
BRANCH  17  19
ATOM     18  C   UNL     1       5.910   4.069  14.135  0.00  0.00    +0.000 C 
ATOM     19  C   UNL     1       6.789   4.773  15.131  0.00  0.00    +0.000 C 
ATOM     20  O   UNL     1       7.734   5.490  14.857  0.00  0.00    +0.000 OA
ENDBRANCH  17  19
ENDBRANCH   1  17
BRANCH   3  21
ATOM     21  O   UNL     1       3.429   7.654  18.827  0.00  0.00    +0.000 OA
BRANCH  21  22
ATOM     22  C   UNL     1       2.791   8.030  17.671  0.00  0.00    +0.000 C 
ATOM     23  C   UNL     1       1.421   8.565  17.912  0.00  0.00    +0.000 C 
ATOM     24  O   UNL     1       3.248   7.898  16.539  0.00  0.00    +0.000 OA
ENDBRANCH  21  22
ENDBRANCH   3  21
TORSDOF 4
ENDMDL
MODEL 9
REMARK VINA RESULT:      -6.0      1.214      1.576
REMARK  Name = 
REMARK  8 active torsions:
REMARK  status: ('A' for Active; 'I' for Inactive)
REMARK    1  A    between atoms: C_1  and  C_2
REMARK    2  A    between atoms: C_2  and  O_4
REMARK    3  A    between atoms: O_4  and  C_5
REMARK    4  A    between atoms: C_7  and  O_8
REMARK    5  A    between atoms: O_8  and  C_9
REMARK    6  A    between atoms: C_9  and  C_10
REMARK    7  A    between atoms: C_13  and  C_14
REMARK    8  A    between atoms: C_13  and  C_15
REMARK                            x       y       z     vdW  Elec       q    Type
REMARK                         _______ _______ _______ _____ _____    ______ ____
ROOT
ATOM      1  C   UNL     1       5.490   5.543  17.019  0.00  0.00    +0.000 C 
ATOM      2  C   UNL     1       4.504   6.546  17.326  0.00  0.00    +0.000 C 
ATOM      3  C   UNL     1       2.966   6.063  18.019  0.00  0.00    +0.000 C 
ATOM      4  C   UNL     1       3.390   5.100  17.106  0.00  0.00    +0.000 C 
ATOM      5  C   UNL     1       4.580   4.570  18.616  0.00  0.00    +0.000 C 
ATOM      6  C   UNL     1       4.732   3.465  19.770  0.00  0.00    +0.000 C 
ATOM      7  C   UNL     1       5.444   5.661  19.508  0.00  0.00    +0.000 C 
ATOM      8  C   UNL     1       5.034   3.859  17.453  0.00  0.00    +0.000 C 
ATOM      9  C   UNL     1       3.308   3.101  17.746  0.00  0.00    +0.000 C 
ATOM     10  C   UNL     1       2.945   1.836  18.540  0.00  0.00    +0.000 C 
ATOM     11  O   UNL     1       3.339   0.727  18.188  0.00  0.00    +0.000 OA
ATOM     12  C   UNL     1       2.123   1.920  19.790  0.00  0.00    +0.000 C 
ATOM     13  C   UNL     1       1.591   3.015  20.354  0.00  0.00    +0.000 C 
ATOM     14  C   UNL     1       1.682   4.364  19.772  0.00  0.00    +0.000 C 
ATOM     15  O   UNL     1       1.142   5.304  20.351  0.00  0.00    +0.000 OA
ATOM     16  C   UNL     1       2.230   4.491  18.393  0.00  0.00    +0.000 C 
ENDROOT
BRANCH   1  17
ATOM     17  O   UNL     1       6.837   5.929  16.936  0.00  0.00    +0.000 OA
BRANCH  17  19
ATOM     18  C   UNL     1       8.122   6.991  18.539  0.00  0.00    +0.000 C 
ATOM     19  C   UNL     1       7.217   7.165  17.350  0.00  0.00    +0.000 C 
ATOM     20  O   UNL     1       6.856   8.231  16.887  0.00  0.00    +0.000 OA
ENDBRANCH  17  19
ENDBRANCH   1  17
BRANCH   3  21
ATOM     21  O   UNL     1       1.999   7.014  17.701  0.00  0.00    +0.000 OA
BRANCH  21  22
ATOM     22  C   UNL     1       2.183   8.012  18.625  0.00  0.00    +0.000 C 
ATOM     23  C   UNL     1       2.151   9.375  18.023  0.00  0.00    +0.000 C 
ATOM     24  O   UNL     1       2.411   7.833  19.819  0.00  0.00    +0.000 OA
ENDBRANCH  21  22
ENDBRANCH   3  21
TORSDOF 4
ENDMDL
