MODEL 1
REMARK VINA RESULT:      -8.5      0.000      0.000
REMARK  Name = 
REMARK  6 active torsions:
REMARK  status: ('A' for Active; 'I' for Inactive)
REMARK    1  A    between atoms: C_1  and  C_2
REMARK    2  A    between atoms: C_3  and  O_4
REMARK    3  A    between atoms: C_6  and  S_7
REMARK    4  A    between atoms: S_7  and  C_8
REMARK    5  A    between atoms: C_15  and  C_16
REMARK    6  A    between atoms: C_16  and  C_17
REMARK                            x       y       z     vdW  Elec       q    Type
REMARK                         _______ _______ _______ _____ _____    ______ ____
ROOT
ATOM      1  C   UNL     1       6.905   7.224  17.399  0.00  0.00    +0.000 C 
ATOM      2  C   UNL     1       6.041   6.008  17.288  0.00  0.00    +0.000 A 
ATOM      3  C   UNL     1       6.560   4.726  17.317  0.00  0.00    +0.000 A 
ATOM      4  N   UNL     1       5.835   3.607  17.301  0.00  0.00    +0.000 NA
ATOM      5  C   UNL     1       4.515   3.776  17.222  0.00  0.00    +0.000 A 
ATOM      6  N   UNL     1       3.898   4.958  17.103  0.00  0.00    +0.000 NA
ATOM      7  C   UNL     1       4.661   6.069  17.124  0.00  0.00    +0.000 A 
ENDROOT
BRANCH   3   8
ATOM      8  O   UNL     1       7.906   4.492  17.357  0.00  0.00    +0.000 OA
ATOM      9  H   UNL     1       8.166   4.448  18.287  0.00  0.00    +0.000 HD
ENDBRANCH   3   8
BRANCH   5  10
ATOM     10  S   UNL     1       3.493   2.341  17.239  0.00  0.00    +0.000 S 
BRANCH  10  11
ATOM     11  C   UNL     1       2.656   2.545  18.849  0.00  0.00    +0.000 C 
ATOM     12  C   UNL     1       1.448   3.489  18.826  0.00  0.00    +0.000 C 
ATOM     13  C   UNL     1       0.659   3.332  20.131  0.00  0.00    +0.000 C 
ATOM     14  C   UNL     1       1.527   3.510  21.380  0.00  0.00    +0.000 C 
ATOM     15  C   UNL     1       2.845   2.734  21.326  0.00  0.00    +0.000 C 
ATOM     16  C   UNL     1       3.583   2.940  20.002  0.00  0.00    +0.000 C 
ENDBRANCH  10  11
ENDBRANCH   5  10
BRANCH   7  17
ATOM     17  C   UNL     1       3.888   7.361  16.965  0.00  0.00    +0.000 C 
BRANCH  17  18
ATOM     18  C   UNL     1       2.956   7.668  18.114  0.00  0.00    +0.000 A 
ATOM     19  C   UNL     1       2.890   6.820  19.226  0.00  0.00    +0.000 A 
ATOM     20  C   UNL     1       2.055   7.124  20.304  0.00  0.00    +0.000 A 
ATOM     21  C   UNL     1       1.277   8.291  20.298  0.00  0.00    +0.000 A 
ATOM     22  C   UNL     1       0.461   8.634  21.387  0.00  0.00    +0.000 A 
ATOM     23  C   UNL     1      -0.282   9.816  21.376  0.00  0.00    +0.000 A 
ATOM     24  C   UNL     1      -0.228  10.662  20.274  0.00  0.00    +0.000 A 
ATOM     25  C   UNL     1       0.563  10.325  19.174  0.00  0.00    +0.000 A 
ATOM     26  C   UNL     1       1.324   9.147  19.174  0.00  0.00    +0.000 A 
ATOM     27  C   UNL     1       2.146   8.811  18.087  0.00  0.00    +0.000 A 
ENDBRANCH  17  18
ENDBRANCH   7  17
TORSDOF 5
ENDMDL
MODEL 2
REMARK VINA RESULT:      -8.5      1.933      4.494
REMARK  Name = 
REMARK  6 active torsions:
REMARK  status: ('A' for Active; 'I' for Inactive)
REMARK    1  A    between atoms: C_1  and  C_2
REMARK    2  A    between atoms: C_3  and  O_4
REMARK    3  A    between atoms: C_6  and  S_7
REMARK    4  A    between atoms: S_7  and  C_8
REMARK    5  A    between atoms: C_15  and  C_16
REMARK    6  A    between atoms: C_16  and  C_17
REMARK                            x       y       z     vdW  Elec       q    Type
REMARK                         _______ _______ _______ _____ _____    ______ ____
ROOT
ATOM      1  C   UNL     1       0.550   3.515  20.095  0.00  0.00    +0.000 C 
ATOM      2  C   UNL     1       1.778   3.631  19.249  0.00  0.00    +0.000 A 
ATOM      3  C   UNL     1       2.088   2.712  18.263  0.00  0.00    +0.000 A 
ATOM      4  N   UNL     1       3.124   2.806  17.428  0.00  0.00    +0.000 NA
ATOM      5  C   UNL     1       3.915   3.864  17.608  0.00  0.00    +0.000 A 
ATOM      6  N   UNL     1       3.771   4.775  18.578  0.00  0.00    +0.000 NA
ATOM      7  C   UNL     1       2.712   4.651  19.403  0.00  0.00    +0.000 A 
ENDROOT
BRANCH   3   8
ATOM      8  O   UNL     1       1.336   1.589  18.059  0.00  0.00    +0.000 OA
ATOM      9  H   UNL     1       1.382   1.058  18.866  0.00  0.00    +0.000 HD
ENDBRANCH   3   8
BRANCH   5  10
ATOM     10  S   UNL     1       5.279   4.074  16.513  0.00  0.00    +0.000 S 
BRANCH  10  11
ATOM     11  C   UNL     1       6.214   5.376  17.388  0.00  0.00    +0.000 C 
ATOM     12  C   UNL     1       6.551   6.604  16.535  0.00  0.00    +0.000 C 
ATOM     13  C   UNL     1       7.045   7.733  17.447  0.00  0.00    +0.000 C 
ATOM     14  C   UNL     1       8.203   7.305  18.353  0.00  0.00    +0.000 C 
ATOM     15  C   UNL     1       7.970   5.965  19.055  0.00  0.00    +0.000 C 
ATOM     16  C   UNL     1       7.485   4.884  18.087  0.00  0.00    +0.000 C 
ENDBRANCH  10  11
ENDBRANCH   5  10
BRANCH   7  17
ATOM     17  C   UNL     1       2.634   5.709  20.483  0.00  0.00    +0.000 C 
BRANCH  17  18
ATOM     18  C   UNL     1       2.136   7.050  19.997  0.00  0.00    +0.000 A 
ATOM     19  C   UNL     1       2.405   7.482  18.693  0.00  0.00    +0.000 A 
ATOM     20  C   UNL     1       1.914   8.706  18.234  0.00  0.00    +0.000 A 
ATOM     21  C   UNL     1       1.131   9.520  19.067  0.00  0.00    +0.000 A 
ATOM     22  C   UNL     1       0.596  10.735  18.612  0.00  0.00    +0.000 A 
ATOM     23  C   UNL     1      -0.207  11.516  19.446  0.00  0.00    +0.000 A 
ATOM     24  C   UNL     1      -0.474  11.099  20.746  0.00  0.00    +0.000 A 
ATOM     25  C   UNL     1       0.067   9.903  21.220  0.00  0.00    +0.000 A 
ATOM     26  C   UNL     1       0.866   9.101  20.390  0.00  0.00    +0.000 A 
ATOM     27  C   UNL     1       1.393   7.882  20.846  0.00  0.00    +0.000 A 
ENDBRANCH  17  18
ENDBRANCH   7  17
TORSDOF 5
ENDMDL
MODEL 3
REMARK VINA RESULT:      -8.2      0.349      1.038
REMARK  Name = 
REMARK  6 active torsions:
REMARK  status: ('A' for Active; 'I' for Inactive)
REMARK    1  A    between atoms: C_1  and  C_2
REMARK    2  A    between atoms: C_3  and  O_4
REMARK    3  A    between atoms: C_6  and  S_7
REMARK    4  A    between atoms: S_7  and  C_8
REMARK    5  A    between atoms: C_15  and  C_16
REMARK    6  A    between atoms: C_16  and  C_17
REMARK                            x       y       z     vdW  Elec       q    Type
REMARK                         _______ _______ _______ _____ _____    ______ ____
ROOT
ATOM      1  C   UNL     1       7.059   7.274  17.103  0.00  0.00    +0.000 C 
ATOM      2  C   UNL     1       6.166   6.075  17.104  0.00  0.00    +0.000 A 
ATOM      3  C   UNL     1       6.661   4.783  17.118  0.00  0.00    +0.000 A 
ATOM      4  N   UNL     1       5.917   3.680  17.198  0.00  0.00    +0.000 NA
ATOM      5  C   UNL     1       4.598   3.875  17.238  0.00  0.00    +0.000 A 
ATOM      6  N   UNL     1       3.996   5.066  17.146  0.00  0.00    +0.000 NA
ATOM      7  C   UNL     1       4.778   6.161  17.068  0.00  0.00    +0.000 A 
ENDROOT
BRANCH   3   8
ATOM      8  O   UNL     1       8.000   4.521  17.039  0.00  0.00    +0.000 OA
ATOM      9  H   UNL     1       8.268   4.119  17.877  0.00  0.00    +0.000 HD
ENDBRANCH   3   8
BRANCH   5  10
ATOM     10  S   UNL     1       3.556   2.462  17.387  0.00  0.00    +0.000 S 
BRANCH  10  11
ATOM     11  C   UNL     1       2.668   2.863  18.931  0.00  0.00    +0.000 C 
ATOM     12  C   UNL     1       3.383   2.421  20.213  0.00  0.00    +0.000 C 
ATOM     13  C   UNL     1       2.708   3.080  21.422  0.00  0.00    +0.000 C 
ATOM     14  C   UNL     1       1.198   2.833  21.471  0.00  0.00    +0.000 C 
ATOM     15  C   UNL     1       0.494   3.068  20.132  0.00  0.00    +0.000 C 
ATOM     16  C   UNL     1       1.215   2.378  18.973  0.00  0.00    +0.000 C 
ENDBRANCH  10  11
ENDBRANCH   5  10
BRANCH   7  17
ATOM     17  C   UNL     1       4.018   7.465  16.948  0.00  0.00    +0.000 C 
BRANCH  17  18
ATOM     18  C   UNL     1       3.054   7.724  18.082  0.00  0.00    +0.000 A 
ATOM     19  C   UNL     1       2.959   6.831  19.157  0.00  0.00    +0.000 A 
ATOM     20  C   UNL     1       2.094   7.090  20.222  0.00  0.00    +0.000 A 
ATOM     21  C   UNL     1       1.315   8.256  20.242  0.00  0.00    +0.000 A 
ATOM     22  C   UNL     1       0.469   8.554  21.322  0.00  0.00    +0.000 A 
ATOM     23  C   UNL     1      -0.275   9.735  21.340  0.00  0.00    +0.000 A 
ATOM     24  C   UNL     1      -0.192  10.626  20.275  0.00  0.00    +0.000 A 
ATOM     25  C   UNL     1       0.629  10.335  19.184  0.00  0.00    +0.000 A 
ATOM     26  C   UNL     1       1.392   9.157  19.157  0.00  0.00    +0.000 A 
ATOM     27  C   UNL     1       2.243   8.867  18.079  0.00  0.00    +0.000 A 
ENDBRANCH  17  18
ENDBRANCH   7  17
TORSDOF 5
ENDMDL
MODEL 4
REMARK VINA RESULT:      -8.1      1.866      4.413
REMARK  Name = 
REMARK  6 active torsions:
REMARK  status: ('A' for Active; 'I' for Inactive)
REMARK    1  A    between atoms: C_1  and  C_2
REMARK    2  A    between atoms: C_3  and  O_4
REMARK    3  A    between atoms: C_6  and  S_7
REMARK    4  A    between atoms: S_7  and  C_8
REMARK    5  A    between atoms: C_15  and  C_16
REMARK    6  A    between atoms: C_16  and  C_17
REMARK                            x       y       z     vdW  Elec       q    Type
REMARK                         _______ _______ _______ _____ _____    ______ ____
ROOT
ATOM      1  C   UNL     1       1.067   3.366  20.454  0.00  0.00    +0.000 C 
ATOM      2  C   UNL     1       2.058   3.641  19.368  0.00  0.00    +0.000 A 
ATOM      3  C   UNL     1       2.309   2.740  18.349  0.00  0.00    +0.000 A 
ATOM      4  N   UNL     1       3.120   2.961  17.315  0.00  0.00    +0.000 NA
ATOM      5  C   UNL     1       3.741   4.141  17.311  0.00  0.00    +0.000 A 
ATOM      6  N   UNL     1       3.648   5.061  18.279  0.00  0.00    +0.000 NA
ATOM      7  C   UNL     1       2.818   4.805  19.310  0.00  0.00    +0.000 A 
ENDROOT
BRANCH   3   8
ATOM      8  O   UNL     1       1.732   1.501  18.322  0.00  0.00    +0.000 OA
ATOM      9  H   UNL     1       2.443   0.851  18.233  0.00  0.00    +0.000 HD
ENDBRANCH   3   8
BRANCH   5  10
ATOM     10  S   UNL     1       4.796   4.518  15.952  0.00  0.00    +0.000 S 
BRANCH  10  11
ATOM     11  C   UNL     1       6.194   5.309  16.821  0.00  0.00    +0.000 C 
ATOM     12  C   UNL     1       6.574   4.652  18.153  0.00  0.00    +0.000 C 
ATOM     13  C   UNL     1       7.929   5.197  18.618  0.00  0.00    +0.000 C 
ATOM     14  C   UNL     1       7.968   6.726  18.679  0.00  0.00    +0.000 C 
ATOM     15  C   UNL     1       7.393   7.406  17.434  0.00  0.00    +0.000 C 
ATOM     16  C   UNL     1       6.040   6.818  17.030  0.00  0.00    +0.000 C 
ENDBRANCH  10  11
ENDBRANCH   5  10
BRANCH   7  17
ATOM     17  C   UNL     1       2.786   5.886  20.369  0.00  0.00    +0.000 C 
BRANCH  17  18
ATOM     18  C   UNL     1       2.179   7.189  19.904  0.00  0.00    +0.000 A 
ATOM     19  C   UNL     1       2.402   7.656  18.603  0.00  0.00    +0.000 A 
ATOM     20  C   UNL     1       1.811   8.842  18.162  0.00  0.00    +0.000 A 
ATOM     21  C   UNL     1       0.973   9.581  19.010  0.00  0.00    +0.000 A 
ATOM     22  C   UNL     1       0.338  10.754  18.574  0.00  0.00    +0.000 A 
ATOM     23  C   UNL     1      -0.518  11.459  19.422  0.00  0.00    +0.000 A 
ATOM     24  C   UNL     1      -0.742  11.006  20.718  0.00  0.00    +0.000 A 
ATOM     25  C   UNL     1      -0.103   9.852  21.174  0.00  0.00    +0.000 A 
ATOM     26  C   UNL     1       0.752   9.126  20.330  0.00  0.00    +0.000 A 
ATOM     27  C   UNL     1       1.377   7.948  20.767  0.00  0.00    +0.000 A 
ENDBRANCH  17  18
ENDBRANCH   7  17
TORSDOF 5
ENDMDL
MODEL 5
REMARK VINA RESULT:      -7.9      2.029      4.488
REMARK  Name = 
REMARK  6 active torsions:
REMARK  status: ('A' for Active; 'I' for Inactive)
REMARK    1  A    between atoms: C_1  and  C_2
REMARK    2  A    between atoms: C_3  and  O_4
REMARK    3  A    between atoms: C_6  and  S_7
REMARK    4  A    between atoms: S_7  and  C_8
REMARK    5  A    between atoms: C_15  and  C_16
REMARK    6  A    between atoms: C_16  and  C_17
REMARK                            x       y       z     vdW  Elec       q    Type
REMARK                         _______ _______ _______ _____ _____    ______ ____
ROOT
ATOM      1  C   UNL     1       1.685   2.429  20.036  0.00  0.00    +0.000 C 
ATOM      2  C   UNL     1       2.947   3.208  19.843  0.00  0.00    +0.000 A 
ATOM      3  C   UNL     1       4.123   2.617  19.417  0.00  0.00    +0.000 A 
ATOM      4  N   UNL     1       5.255   3.271  19.153  0.00  0.00    +0.000 NA
ATOM      5  C   UNL     1       5.220   4.589  19.353  0.00  0.00    +0.000 A 
ATOM      6  N   UNL     1       4.173   5.264  19.841  0.00  0.00    +0.000 NA
ATOM      7  C   UNL     1       3.044   4.572  20.096  0.00  0.00    +0.000 A 
ENDROOT
BRANCH   3   8
ATOM      8  O   UNL     1       4.229   1.267  19.234  0.00  0.00    +0.000 OA
ATOM      9  H   UNL     1       3.827   0.837  20.001  0.00  0.00    +0.000 HD
ENDBRANCH   3   8
BRANCH   5  10
ATOM     10  S   UNL     1       6.668   5.521  18.983  0.00  0.00    +0.000 S 
BRANCH  10  11
ATOM     11  C   UNL     1       6.541   5.631  17.164  0.00  0.00    +0.000 C 
ATOM     12  C   UNL     1       5.133   5.933  16.638  0.00  0.00    +0.000 C 
ATOM     13  C   UNL     1       5.217   6.306  15.154  0.00  0.00    +0.000 C 
ATOM     14  C   UNL     1       5.950   5.256  14.314  0.00  0.00    +0.000 C 
ATOM     15  C   UNL     1       7.267   4.784  14.935  0.00  0.00    +0.000 C 
ATOM     16  C   UNL     1       7.110   4.423  16.414  0.00  0.00    +0.000 C 
ENDBRANCH  10  11
ENDBRANCH   5  10
BRANCH   7  17
ATOM     17  C   UNL     1       1.916   5.406  20.664  0.00  0.00    +0.000 C 
BRANCH  17  18
ATOM     18  C   UNL     1       1.810   6.790  20.067  0.00  0.00    +0.000 A 
ATOM     19  C   UNL     1       2.194   7.027  18.742  0.00  0.00    +0.000 A 
ATOM     20  C   UNL     1       2.063   8.299  18.179  0.00  0.00    +0.000 A 
ATOM     21  C   UNL     1       1.531   9.360  18.929  0.00  0.00    +0.000 A 
ATOM     22  C   UNL     1       1.355  10.635  18.370  0.00  0.00    +0.000 A 
ATOM     23  C   UNL     1       0.795  11.670  19.121  0.00  0.00    +0.000 A 
ATOM     24  C   UNL     1       0.416  11.447  20.441  0.00  0.00    +0.000 A 
ATOM     25  C   UNL     1       0.604  10.189  21.017  0.00  0.00    +0.000 A 
ATOM     26  C   UNL     1       1.154   9.136  20.272  0.00  0.00    +0.000 A 
ATOM     27  C   UNL     1       1.321   7.859  20.831  0.00  0.00    +0.000 A 
ENDBRANCH  17  18
ENDBRANCH   7  17
TORSDOF 5
ENDMDL
MODEL 6
REMARK VINA RESULT:      -7.6      0.642      1.516
REMARK  Name = 
REMARK  6 active torsions:
REMARK  status: ('A' for Active; 'I' for Inactive)
REMARK    1  A    between atoms: C_1  and  C_2
REMARK    2  A    between atoms: C_3  and  O_4
REMARK    3  A    between atoms: C_6  and  S_7
REMARK    4  A    between atoms: S_7  and  C_8
REMARK    5  A    between atoms: C_15  and  C_16
REMARK    6  A    between atoms: C_16  and  C_17
REMARK                            x       y       z     vdW  Elec       q    Type
REMARK                         _______ _______ _______ _____ _____    ______ ____
ROOT
ATOM      1  C   UNL     1       6.958   7.285  17.769  0.00  0.00    +0.000 C 
ATOM      2  C   UNL     1       6.105   6.066  17.614  0.00  0.00    +0.000 A 
ATOM      3  C   UNL     1       6.562   4.799  17.928  0.00  0.00    +0.000 A 
ATOM      4  N   UNL     1       5.825   3.688  17.885  0.00  0.00    +0.000 NA
ATOM      5  C   UNL     1       4.566   3.848  17.476  0.00  0.00    +0.000 A 
ATOM      6  N   UNL     1       4.032   5.004  17.066  0.00  0.00    +0.000 NA
ATOM      7  C   UNL     1       4.804   6.107  17.124  0.00  0.00    +0.000 A 
ENDROOT
BRANCH   3   8
ATOM      8  O   UNL     1       7.853   4.570  18.313  0.00  0.00    +0.000 OA
ATOM      9  H   UNL     1       8.378   4.441  17.511  0.00  0.00    +0.000 HD
ENDBRANCH   3   8
BRANCH   5  10
ATOM     10  S   UNL     1       3.522   2.429  17.435  0.00  0.00    +0.000 S 
BRANCH  10  11
ATOM     11  C   UNL     1       2.643   2.613  19.025  0.00  0.00    +0.000 C 
ATOM     12  C   UNL     1       1.638   3.770  19.070  0.00  0.00    +0.000 C 
ATOM     13  C   UNL     1       0.756   3.627  20.316  0.00  0.00    +0.000 C 
ATOM     14  C   UNL     1       1.566   3.496  21.609  0.00  0.00    +0.000 C 
ATOM     15  C   UNL     1       2.716   2.489  21.513  0.00  0.00    +0.000 C 
ATOM     16  C   UNL     1       3.557   2.693  20.251  0.00  0.00    +0.000 C 
ENDBRANCH  10  11
ENDBRANCH   5  10
BRANCH   7  17
ATOM     17  C   UNL     1       4.132   7.368  16.623  0.00  0.00    +0.000 C 
BRANCH  17  18
ATOM     18  C   UNL     1       3.158   7.979  17.603  0.00  0.00    +0.000 A 
ATOM     19  C   UNL     1       2.543   9.206  17.328  0.00  0.00    +0.000 A 
ATOM     20  C   UNL     1       1.615   9.752  18.218  0.00  0.00    +0.000 A 
ATOM     21  C   UNL     1       1.273   9.075  19.398  0.00  0.00    +0.000 A 
ATOM     22  C   UNL     1       0.315   9.588  20.286  0.00  0.00    +0.000 A 
ATOM     23  C   UNL     1      -0.036   8.885  21.440  0.00  0.00    +0.000 A 
ATOM     24  C   UNL     1       0.574   7.668  21.726  0.00  0.00    +0.000 A 
ATOM     25  C   UNL     1       1.543   7.154  20.863  0.00  0.00    +0.000 A 
ATOM     26  C   UNL     1       1.899   7.843  19.694  0.00  0.00    +0.000 A 
ATOM     27  C   UNL     1       2.851   7.322  18.803  0.00  0.00    +0.000 A 
ENDBRANCH  17  18
ENDBRANCH   7  17
TORSDOF 5
ENDMDL
MODEL 7
REMARK VINA RESULT:      -7.4      6.615     10.017
REMARK  Name = 
REMARK  6 active torsions:
REMARK  status: ('A' for Active; 'I' for Inactive)
REMARK    1  A    between atoms: C_1  and  C_2
REMARK    2  A    between atoms: C_3  and  O_4
REMARK    3  A    between atoms: C_6  and  S_7
REMARK    4  A    between atoms: S_7  and  C_8
REMARK    5  A    between atoms: C_15  and  C_16
REMARK    6  A    between atoms: C_16  and  C_17
REMARK                            x       y       z     vdW  Elec       q    Type
REMARK                         _______ _______ _______ _____ _____    ______ ____
ROOT
ATOM      1  C   UNL     1      -3.983  13.111  23.646  0.00  0.00    +0.000 C 
ATOM      2  C   UNL     1      -4.385  12.848  22.229  0.00  0.00    +0.000 A 
ATOM      3  C   UNL     1      -5.674  12.493  21.879  0.00  0.00    +0.000 A 
ATOM      4  N   UNL     1      -6.109  12.323  20.630  0.00  0.00    +0.000 NA
ATOM      5  C   UNL     1      -5.194  12.490  19.674  0.00  0.00    +0.000 A 
ATOM      6  N   UNL     1      -3.899  12.750  19.887  0.00  0.00    +0.000 NA
ATOM      7  C   UNL     1      -3.494  12.917  21.162  0.00  0.00    +0.000 A 
ENDROOT
BRANCH   3   8
ATOM      8  O   UNL     1      -6.643  12.270  22.817  0.00  0.00    +0.000 OA
ATOM      9  H   UNL     1      -7.166  11.511  22.521  0.00  0.00    +0.000 HD
ENDBRANCH   3   8
BRANCH   5  10
ATOM     10  S   UNL     1      -5.708  12.322  17.997  0.00  0.00    +0.000 S 
BRANCH  10  11
ATOM     11  C   UNL     1      -4.262  11.464  17.287  0.00  0.00    +0.000 C 
ATOM     12  C   UNL     1      -4.334  11.233  15.773  0.00  0.00    +0.000 C 
ATOM     13  C   UNL     1      -2.956  10.801  15.260  0.00  0.00    +0.000 C 
ATOM     14  C   UNL     1      -2.388   9.597  16.016  0.00  0.00    +0.000 C 
ATOM     15  C   UNL     1      -2.501   9.719  17.538  0.00  0.00    +0.000 C 
ATOM     16  C   UNL     1      -3.901  10.146  17.980  0.00  0.00    +0.000 C 
ENDBRANCH  10  11
ENDBRANCH   5  10
BRANCH   7  17
ATOM     17  C   UNL     1      -2.013  13.189  21.317  0.00  0.00    +0.000 C 
BRANCH  17  18
ATOM     18  C   UNL     1      -1.161  11.943  21.386  0.00  0.00    +0.000 A 
ATOM     19  C   UNL     1      -1.055  11.215  22.578  0.00  0.00    +0.000 A 
ATOM     20  C   UNL     1      -0.296  10.044  22.631  0.00  0.00    +0.000 A 
ATOM     21  C   UNL     1       0.363   9.568  21.488  0.00  0.00    +0.000 A 
ATOM     22  C   UNL     1       1.098   8.372  21.511  0.00  0.00    +0.000 A 
ATOM     23  C   UNL     1       1.721   7.897  20.356  0.00  0.00    +0.000 A 
ATOM     24  C   UNL     1       1.627   8.615  19.168  0.00  0.00    +0.000 A 
ATOM     25  C   UNL     1       0.916   9.816  19.134  0.00  0.00    +0.000 A 
ATOM     26  C   UNL     1       0.275  10.301  20.284  0.00  0.00    +0.000 A 
ATOM     27  C   UNL     1      -0.467  11.492  20.255  0.00  0.00    +0.000 A 
ENDBRANCH  17  18
ENDBRANCH   7  17
TORSDOF 5
ENDMDL
MODEL 8
REMARK VINA RESULT:      -7.4      3.826      5.825
REMARK  Name = 
REMARK  6 active torsions:
REMARK  status: ('A' for Active; 'I' for Inactive)
REMARK    1  A    between atoms: C_1  and  C_2
REMARK    2  A    between atoms: C_3  and  O_4
REMARK    3  A    between atoms: C_6  and  S_7
REMARK    4  A    between atoms: S_7  and  C_8
REMARK    5  A    between atoms: C_15  and  C_16
REMARK    6  A    between atoms: C_16  and  C_17
REMARK                            x       y       z     vdW  Elec       q    Type
REMARK                         _______ _______ _______ _____ _____    ______ ____
ROOT
ATOM      1  C   UNL     1      -0.007  10.973  21.579  0.00  0.00    +0.000 C 
ATOM      2  C   UNL     1       0.707   9.952  20.750  0.00  0.00    +0.000 A 
ATOM      3  C   UNL     1       1.379   8.882  21.311  0.00  0.00    +0.000 A 
ATOM      4  N   UNL     1       1.965   7.901  20.623  0.00  0.00    +0.000 NA
ATOM      5  C   UNL     1       1.900   8.010  19.296  0.00  0.00    +0.000 A 
ATOM      6  N   UNL     1       1.354   9.037  18.635  0.00  0.00    +0.000 NA
ATOM      7  C   UNL     1       0.770  10.011  19.361  0.00  0.00    +0.000 A 
ENDROOT
BRANCH   3   8
ATOM      8  O   UNL     1       1.511   8.740  22.664  0.00  0.00    +0.000 OA
ATOM      9  H   UNL     1       1.847   9.577  23.013  0.00  0.00    +0.000 HD
ENDBRANCH   3   8
BRANCH   5  10
ATOM     10  S   UNL     1       2.616   6.726  18.324  0.00  0.00    +0.000 S 
BRANCH  10  11
ATOM     11  C   UNL     1       2.000   5.252  19.209  0.00  0.00    +0.000 C 
ATOM     12  C   UNL     1       2.925   4.740  20.319  0.00  0.00    +0.000 C 
ATOM     13  C   UNL     1       2.168   3.718  21.176  0.00  0.00    +0.000 C 
ATOM     14  C   UNL     1       1.550   2.587  20.350  0.00  0.00    +0.000 C 
ATOM     15  C   UNL     1       0.795   3.074  19.111  0.00  0.00    +0.000 C 
ATOM     16  C   UNL     1       1.609   4.084  18.300  0.00  0.00    +0.000 C 
ENDBRANCH  10  11
ENDBRANCH   5  10
BRANCH   7  17
ATOM     17  C   UNL     1       0.195  11.144  18.539  0.00  0.00    +0.000 C 
BRANCH  17  18
ATOM     18  C   UNL     1      -1.294  11.041  18.303  0.00  0.00    +0.000 A 
ATOM     19  C   UNL     1      -1.810  10.111  17.393  0.00  0.00    +0.000 A 
ATOM     20  C   UNL     1      -3.188   9.992  17.201  0.00  0.00    +0.000 A 
ATOM     21  C   UNL     1      -4.082  10.794  17.927  0.00  0.00    +0.000 A 
ATOM     22  C   UNL     1      -5.471  10.662  17.778  0.00  0.00    +0.000 A 
ATOM     23  C   UNL     1      -6.346  11.447  18.532  0.00  0.00    +0.000 A 
ATOM     24  C   UNL     1      -5.844  12.379  19.434  0.00  0.00    +0.000 A 
ATOM     25  C   UNL     1      -4.464  12.536  19.579  0.00  0.00    +0.000 A 
ATOM     26  C   UNL     1      -3.572  11.747  18.837  0.00  0.00    +0.000 A 
ATOM     27  C   UNL     1      -2.183  11.874  18.996  0.00  0.00    +0.000 A 
ENDBRANCH  17  18
ENDBRANCH   7  17
TORSDOF 5
ENDMDL
MODEL 9
REMARK VINA RESULT:      -7.3      1.067      1.462
REMARK  Name = 
REMARK  6 active torsions:
REMARK  status: ('A' for Active; 'I' for Inactive)
REMARK    1  A    between atoms: C_1  and  C_2
REMARK    2  A    between atoms: C_3  and  O_4
REMARK    3  A    between atoms: C_6  and  S_7
REMARK    4  A    between atoms: S_7  and  C_8
REMARK    5  A    between atoms: C_15  and  C_16
REMARK    6  A    between atoms: C_16  and  C_17
REMARK                            x       y       z     vdW  Elec       q    Type
REMARK                         _______ _______ _______ _____ _____    ______ ____
ROOT
ATOM      1  C   UNL     1       6.735   7.944  17.359  0.00  0.00    +0.000 C 
ATOM      2  C   UNL     1       6.272   6.598  17.818  0.00  0.00    +0.000 A 
ATOM      3  C   UNL     1       7.141   5.653  18.333  0.00  0.00    +0.000 A 
ATOM      4  N   UNL     1       6.778   4.470  18.829  0.00  0.00    +0.000 NA
ATOM      5  C   UNL     1       5.472   4.201  18.782  0.00  0.00    +0.000 A 
ATOM      6  N   UNL     1       4.545   4.994  18.233  0.00  0.00    +0.000 NA
ATOM      7  C   UNL     1       4.946   6.183  17.742  0.00  0.00    +0.000 A 
ENDROOT
BRANCH   3   8
ATOM      8  O   UNL     1       8.492   5.856  18.371  0.00  0.00    +0.000 OA
ATOM      9  H   UNL     1       8.882   5.353  17.642  0.00  0.00    +0.000 HD
ENDBRANCH   3   8
BRANCH   5  10
ATOM     10  S   UNL     1       4.916   2.673  19.459  0.00  0.00    +0.000 S 
BRANCH  10  11
ATOM     11  C   UNL     1       3.124   2.998  19.593  0.00  0.00    +0.000 C 
ATOM     12  C   UNL     1       2.576   2.985  21.025  0.00  0.00    +0.000 C 
ATOM     13  C   UNL     1       1.160   3.571  21.030  0.00  0.00    +0.000 C 
ATOM     14  C   UNL     1       0.225   2.883  20.032  0.00  0.00    +0.000 C 
ATOM     15  C   UNL     1       0.840   2.697  18.643  0.00  0.00    +0.000 C 
ATOM     16  C   UNL     1       2.248   2.103  18.710  0.00  0.00    +0.000 C 
ENDBRANCH  10  11
ENDBRANCH   5  10
BRANCH   7  17
ATOM     17  C   UNL     1       3.840   7.010  17.122  0.00  0.00    +0.000 C 
BRANCH  17  18
ATOM     18  C   UNL     1       2.877   7.602  18.124  0.00  0.00    +0.000 A 
ATOM     19  C   UNL     1       2.674   6.991  19.367  0.00  0.00    +0.000 A 
ATOM     20  C   UNL     1       1.810   7.558  20.307  0.00  0.00    +0.000 A 
ATOM     21  C   UNL     1       1.139   8.758  20.026  0.00  0.00    +0.000 A 
ATOM     22  C   UNL     1       0.298   9.365  20.972  0.00  0.00    +0.000 A 
ATOM     23  C   UNL     1      -0.336  10.576  20.687  0.00  0.00    +0.000 A 
ATOM     24  C   UNL     1      -0.147  11.188  19.453  0.00  0.00    +0.000 A 
ATOM     25  C   UNL     1       0.672  10.587  18.495  0.00  0.00    +0.000 A 
ATOM     26  C   UNL     1       1.325   9.376  18.770  0.00  0.00    +0.000 A 
ATOM     27  C   UNL     1       2.173   8.777  17.825  0.00  0.00    +0.000 A 
ENDBRANCH  17  18
ENDBRANCH   7  17
TORSDOF 5
ENDMDL
