MODEL 1
REMARK VINA RESULT:      -7.6      0.000      0.000
REMARK  Name = 
REMARK  6 active torsions:
REMARK  status: ('A' for Active; 'I' for Inactive)
REMARK    1  A    between atoms: C_2  and  C_3
REMARK    2  A    between atoms: C_2  and  C_13
REMARK    3  A    between atoms: C_4  and  C_5
REMARK    4  A    between atoms: C_5  and  C_6
REMARK    5  A    between atoms: C_13  and  C_14
REMARK    6  A    between atoms: C_14  and  C_15
REMARK                            x       y       z     vdW  Elec       q    Type
REMARK                         _______ _______ _______ _____ _____    ______ ____
ROOT
ATOM      1  O   UNL     1       7.623   6.591  16.234  0.00  0.00    +0.000 OA
ATOM      2  C   UNL     1       7.280   6.748  17.389  0.00  0.00    +0.000 C 
ENDROOT
BRANCH   2   3
ATOM      3  C   UNL     1       8.080   7.651  18.274  0.00  0.00    +0.000 C 
ATOM      4  C   UNL     1       8.250   8.955  18.022  0.00  0.00    +0.000 C 
BRANCH   4   5
ATOM      5  C   UNL     1       9.078   9.809  18.938  0.00  0.00    +0.000 C 
BRANCH   5   6
ATOM      6  C   UNL     1       9.222  11.266  18.456  0.00  0.00    +0.000 C 
ATOM      7  C   UNL     1      10.561  11.518  17.755  0.00  0.00    +0.000 C 
ATOM      8  C   UNL     1      11.664  11.521  18.765  0.00  0.00    +0.000 C 
ATOM      9  C   UNL     1      11.416  11.847  20.040  0.00  0.00    +0.000 C 
ATOM     10  C   UNL     1      10.077  12.285  20.482  0.00  0.00    +0.000 C 
ATOM     11  O   UNL     1       9.907  12.755  21.599  0.00  0.00    +0.000 OA
ATOM     12  O   UNL     1       9.070  12.166  19.580  0.00  0.00    +0.000 OA
ENDBRANCH   5   6
ENDBRANCH   4   5
ENDBRANCH   2   3
BRANCH   2  13
ATOM     13  C   UNL     1       6.043   6.085  17.973  0.00  0.00    +0.000 C 
BRANCH  13  14
ATOM     14  C   UNL     1       6.159   4.572  18.111  0.00  0.00    +0.000 C 
BRANCH  14  15
ATOM     15  C   UNL     1       4.793   3.939  18.214  0.00  0.00    +0.000 A 
ATOM     16  C   UNL     1       4.444   3.187  19.344  0.00  0.00    +0.000 A 
ATOM     17  C   UNL     1       3.207   2.549  19.409  0.00  0.00    +0.000 A 
ATOM     18  C   UNL     1       2.311   2.660  18.347  0.00  0.00    +0.000 A 
ATOM     19  C   UNL     1       2.644   3.415  17.224  0.00  0.00    +0.000 A 
ATOM     20  C   UNL     1       3.882   4.052  17.155  0.00  0.00    +0.000 A 
ENDBRANCH  14  15
ENDBRANCH  13  14
ENDBRANCH   2  13
TORSDOF 6
ENDMDL
MODEL 2
REMARK VINA RESULT:      -7.5      4.918      8.348
REMARK  Name = 
REMARK  6 active torsions:
REMARK  status: ('A' for Active; 'I' for Inactive)
REMARK    1  A    between atoms: C_2  and  C_3
REMARK    2  A    between atoms: C_2  and  C_13
REMARK    3  A    between atoms: C_4  and  C_5
REMARK    4  A    between atoms: C_5  and  C_6
REMARK    5  A    between atoms: C_13  and  C_14
REMARK    6  A    between atoms: C_14  and  C_15
REMARK                            x       y       z     vdW  Elec       q    Type
REMARK                         _______ _______ _______ _____ _____    ______ ____
ROOT
ATOM      1  O   UNL     1       6.104   7.204  17.373  0.00  0.00    +0.000 OA
ATOM      2  C   UNL     1       5.696   6.060  17.344  0.00  0.00    +0.000 C 
ENDROOT
BRANCH   2   3
ATOM      3  C   UNL     1       4.330   5.755  17.874  0.00  0.00    +0.000 C 
ATOM      4  C   UNL     1       4.048   5.715  19.182  0.00  0.00    +0.000 C 
BRANCH   4   5
ATOM      5  C   UNL     1       2.662   5.386  19.656  0.00  0.00    +0.000 C 
BRANCH   5   6
ATOM      6  C   UNL     1       2.143   4.028  19.142  0.00  0.00    +0.000 C 
ATOM      7  C   UNL     1       0.956   3.512  19.960  0.00  0.00    +0.000 C 
ATOM      8  C   UNL     1       1.430   3.060  21.304  0.00  0.00    +0.000 C 
ATOM      9  C   UNL     1       2.691   2.643  21.474  0.00  0.00    +0.000 C 
ATOM     10  C   UNL     1       3.633   2.540  20.342  0.00  0.00    +0.000 C 
ATOM     11  O   UNL     1       4.716   1.985  20.474  0.00  0.00    +0.000 OA
ATOM     12  O   UNL     1       3.220   3.060  19.158  0.00  0.00    +0.000 OA
ENDBRANCH   5   6
ENDBRANCH   4   5
ENDBRANCH   2   3
BRANCH   2  13
ATOM     13  C   UNL     1       6.508   4.916  16.759  0.00  0.00    +0.000 C 
BRANCH  13  14
ATOM     14  C   UNL     1       5.729   4.038  15.787  0.00  0.00    +0.000 C 
BRANCH  14  15
ATOM     15  C   UNL     1       6.249   4.207  14.381  0.00  0.00    +0.000 A 
ATOM     16  C   UNL     1       5.693   3.468  13.327  0.00  0.00    +0.000 A 
ATOM     17  C   UNL     1       6.216   3.576  12.040  0.00  0.00    +0.000 A 
ATOM     18  C   UNL     1       7.295   4.424  11.797  0.00  0.00    +0.000 A 
ATOM     19  C   UNL     1       7.847   5.172  12.836  0.00  0.00    +0.000 A 
ATOM     20  C   UNL     1       7.328   5.063  14.125  0.00  0.00    +0.000 A 
ENDBRANCH  14  15
ENDBRANCH  13  14
ENDBRANCH   2  13
TORSDOF 6
ENDMDL
MODEL 3
REMARK VINA RESULT:      -7.5      1.185      1.475
REMARK  Name = 
REMARK  6 active torsions:
REMARK  status: ('A' for Active; 'I' for Inactive)
REMARK    1  A    between atoms: C_2  and  C_3
REMARK    2  A    between atoms: C_2  and  C_13
REMARK    3  A    between atoms: C_4  and  C_5
REMARK    4  A    between atoms: C_5  and  C_6
REMARK    5  A    between atoms: C_13  and  C_14
REMARK    6  A    between atoms: C_14  and  C_15
REMARK                            x       y       z     vdW  Elec       q    Type
REMARK                         _______ _______ _______ _____ _____    ______ ____
ROOT
ATOM      1  O   UNL     1       6.836   7.457  16.660  0.00  0.00    +0.000 OA
ATOM      2  C   UNL     1       7.452   7.024  17.613  0.00  0.00    +0.000 C 
ENDROOT
BRANCH   2   3
ATOM      3  C   UNL     1       8.296   7.955  18.425  0.00  0.00    +0.000 C 
ATOM      4  C   UNL     1       8.376   9.268  18.179  0.00  0.00    +0.000 C 
BRANCH   4   5
ATOM      5  C   UNL     1       9.254  10.151  19.017  0.00  0.00    +0.000 C 
BRANCH   5   6
ATOM      6  C   UNL     1       9.786  11.385  18.261  0.00  0.00    +0.000 C 
ATOM      7  C   UNL     1      11.307  11.523  18.370  0.00  0.00    +0.000 C 
ATOM      8  C   UNL     1      11.675  11.951  19.755  0.00  0.00    +0.000 C 
ATOM      9  C   UNL     1      10.807  12.642  20.505  0.00  0.00    +0.000 C 
ATOM     10  C   UNL     1       9.497  13.072  19.978  0.00  0.00    +0.000 C 
ATOM     11  O   UNL     1       8.795  13.856  20.602  0.00  0.00    +0.000 OA
ATOM     12  O   UNL     1       9.138  12.578  18.766  0.00  0.00    +0.000 OA
ENDBRANCH   5   6
ENDBRANCH   4   5
ENDBRANCH   2   3
BRANCH   2  13
ATOM     13  C   UNL     1       7.378   5.567  18.042  0.00  0.00    +0.000 C 
BRANCH  13  14
ATOM     14  C   UNL     1       6.440   5.314  19.215  0.00  0.00    +0.000 C 
BRANCH  14  15
ATOM     15  C   UNL     1       5.059   4.952  18.726  0.00  0.00    +0.000 A 
ATOM     16  C   UNL     1       4.898   4.083  17.638  0.00  0.00    +0.000 A 
ATOM     17  C   UNL     1       3.626   3.800  17.145  0.00  0.00    +0.000 A 
ATOM     18  C   UNL     1       2.506   4.383  17.738  0.00  0.00    +0.000 A 
ATOM     19  C   UNL     1       2.655   5.239  18.828  0.00  0.00    +0.000 A 
ATOM     20  C   UNL     1       3.927   5.525  19.320  0.00  0.00    +0.000 A 
ENDBRANCH  14  15
ENDBRANCH  13  14
ENDBRANCH   2  13
TORSDOF 6
ENDMDL
MODEL 4
REMARK VINA RESULT:      -7.4      0.917      1.297
REMARK  Name = 
REMARK  6 active torsions:
REMARK  status: ('A' for Active; 'I' for Inactive)
REMARK    1  A    between atoms: C_2  and  C_3
REMARK    2  A    between atoms: C_2  and  C_13
REMARK    3  A    between atoms: C_4  and  C_5
REMARK    4  A    between atoms: C_5  and  C_6
REMARK    5  A    between atoms: C_13  and  C_14
REMARK    6  A    between atoms: C_14  and  C_15
REMARK                            x       y       z     vdW  Elec       q    Type
REMARK                         _______ _______ _______ _____ _____    ______ ____
ROOT
ATOM      1  O   UNL     1       7.676   6.810  16.412  0.00  0.00    +0.000 OA
ATOM      2  C   UNL     1       7.479   6.878  17.609  0.00  0.00    +0.000 C 
ENDROOT
BRANCH   2   3
ATOM      3  C   UNL     1       8.291   7.827  18.432  0.00  0.00    +0.000 C 
ATOM      4  C   UNL     1       8.347   9.142  18.186  0.00  0.00    +0.000 C 
BRANCH   4   5
ATOM      5  C   UNL     1       9.193  10.044  19.037  0.00  0.00    +0.000 C 
BRANCH   5   6
ATOM      6  C   UNL     1       9.393  11.448  18.432  0.00  0.00    +0.000 C 
ATOM      7  C   UNL     1      10.762  11.603  17.762  0.00  0.00    +0.000 C 
ATOM      8  C   UNL     1      11.829  11.670  18.807  0.00  0.00    +0.000 C 
ATOM      9  C   UNL     1      11.546  12.115  20.038  0.00  0.00    +0.000 C 
ATOM     10  C   UNL     1      10.206  12.624  20.390  0.00  0.00    +0.000 C 
ATOM     11  O   UNL     1      10.010  13.197  21.453  0.00  0.00    +0.000 OA
ATOM     12  O   UNL     1       9.227  12.449  19.466  0.00  0.00    +0.000 OA
ENDBRANCH   5   6
ENDBRANCH   4   5
ENDBRANCH   2   3
BRANCH   2  13
ATOM     13  C   UNL     1       6.412   6.054  18.311  0.00  0.00    +0.000 C 
BRANCH  13  14
ATOM     14  C   UNL     1       5.702   5.058  17.402  0.00  0.00    +0.000 C 
BRANCH  14  15
ATOM     15  C   UNL     1       4.320   4.751  17.923  0.00  0.00    +0.000 A 
ATOM     16  C   UNL     1       3.386   4.092  17.110  0.00  0.00    +0.000 A 
ATOM     17  C   UNL     1       2.090   3.867  17.568  0.00  0.00    +0.000 A 
ATOM     18  C   UNL     1       1.718   4.297  18.841  0.00  0.00    +0.000 A 
ATOM     19  C   UNL     1       2.642   4.943  19.661  0.00  0.00    +0.000 A 
ATOM     20  C   UNL     1       3.939   5.172  19.204  0.00  0.00    +0.000 A 
ENDBRANCH  14  15
ENDBRANCH  13  14
ENDBRANCH   2  13
TORSDOF 6
ENDMDL
MODEL 5
REMARK VINA RESULT:      -7.4      2.650      9.081
REMARK  Name = 
REMARK  6 active torsions:
REMARK  status: ('A' for Active; 'I' for Inactive)
REMARK    1  A    between atoms: C_2  and  C_3
REMARK    2  A    between atoms: C_2  and  C_13
REMARK    3  A    between atoms: C_4  and  C_5
REMARK    4  A    between atoms: C_5  and  C_6
REMARK    5  A    between atoms: C_13  and  C_14
REMARK    6  A    between atoms: C_14  and  C_15
REMARK                            x       y       z     vdW  Elec       q    Type
REMARK                         _______ _______ _______ _____ _____    ______ ____
ROOT
ATOM      1  O   UNL     1       7.627   6.551  16.210  0.00  0.00    +0.000 OA
ATOM      2  C   UNL     1       7.385   7.041  17.294  0.00  0.00    +0.000 C 
ENDROOT
BRANCH   2   3
ATOM      3  C   UNL     1       6.761   6.194  18.359  0.00  0.00    +0.000 C 
ATOM      4  C   UNL     1       5.521   5.699  18.263  0.00  0.00    +0.000 C 
BRANCH   4   5
ATOM      5  C   UNL     1       4.942   4.869  19.371  0.00  0.00    +0.000 C 
BRANCH   5   6
ATOM      6  C   UNL     1       4.193   3.616  18.874  0.00  0.00    +0.000 C 
ATOM      7  C   UNL     1       3.016   3.966  17.959  0.00  0.00    +0.000 C 
ATOM      8  C   UNL     1       1.910   4.563  18.770  0.00  0.00    +0.000 C 
ATOM      9  C   UNL     1       1.783   4.263  20.069  0.00  0.00    +0.000 C 
ATOM     10  C   UNL     1       2.670   3.286  20.730  0.00  0.00    +0.000 C 
ATOM     11  O   UNL     1       2.429   2.882  21.860  0.00  0.00    +0.000 OA
ATOM     12  O   UNL     1       3.732   2.844  20.009  0.00  0.00    +0.000 OA
ENDBRANCH   5   6
ENDBRANCH   4   5
ENDBRANCH   2   3
BRANCH   2  13
ATOM     13  C   UNL     1       7.719   8.485  17.634  0.00  0.00    +0.000 C 
BRANCH  13  14
ATOM     14  C   UNL     1       8.720   8.637  18.772  0.00  0.00    +0.000 C 
BRANCH  14  15
ATOM     15  C   UNL     1       9.110  10.083  18.951  0.00  0.00    +0.000 A 
ATOM     16  C   UNL     1       9.218  10.931  17.840  0.00  0.00    +0.000 A 
ATOM     17  C   UNL     1       9.640  12.249  17.999  0.00  0.00    +0.000 A 
ATOM     18  C   UNL     1       9.955  12.729  19.269  0.00  0.00    +0.000 A 
ATOM     19  C   UNL     1       9.840  11.897  20.382  0.00  0.00    +0.000 A 
ATOM     20  C   UNL     1       9.420  10.578  20.225  0.00  0.00    +0.000 A 
ENDBRANCH  14  15
ENDBRANCH  13  14
ENDBRANCH   2  13
TORSDOF 6
ENDMDL
MODEL 6
REMARK VINA RESULT:      -7.4      5.710      8.817
REMARK  Name = 
REMARK  6 active torsions:
REMARK  status: ('A' for Active; 'I' for Inactive)
REMARK    1  A    between atoms: C_2  and  C_3
REMARK    2  A    between atoms: C_2  and  C_13
REMARK    3  A    between atoms: C_4  and  C_5
REMARK    4  A    between atoms: C_5  and  C_6
REMARK    5  A    between atoms: C_13  and  C_14
REMARK    6  A    between atoms: C_14  and  C_15
REMARK                            x       y       z     vdW  Elec       q    Type
REMARK                         _______ _______ _______ _____ _____    ______ ____
ROOT
ATOM      1  O   UNL     1       7.528   5.079  16.159  0.00  0.00    +0.000 OA
ATOM      2  C   UNL     1       6.376   4.726  16.002  0.00  0.00    +0.000 C 
ENDROOT
BRANCH   2   3
ATOM      3  C   UNL     1       5.544   4.384  17.198  0.00  0.00    +0.000 C 
ATOM      4  C   UNL     1       4.288   4.816  17.360  0.00  0.00    +0.000 C 
BRANCH   4   5
ATOM      5  C   UNL     1       3.507   4.454  18.589  0.00  0.00    +0.000 C 
BRANCH   5   6
ATOM      6  C   UNL     1       3.382   2.933  18.813  0.00  0.00    +0.000 C 
ATOM      7  C   UNL     1       2.163   2.339  18.101  0.00  0.00    +0.000 C 
ATOM      8  C   UNL     1       0.914   2.758  18.808  0.00  0.00    +0.000 C 
ATOM      9  C   UNL     1       0.941   3.063  20.112  0.00  0.00    +0.000 C 
ATOM     10  C   UNL     1       2.173   2.927  20.914  0.00  0.00    +0.000 C 
ATOM     11  O   UNL     1       2.144   3.027  22.133  0.00  0.00    +0.000 OA
ATOM     12  O   UNL     1       3.315   2.656  20.233  0.00  0.00    +0.000 OA
ENDBRANCH   5   6
ENDBRANCH   4   5
ENDBRANCH   2   3
BRANCH   2  13
ATOM     13  C   UNL     1       5.724   4.647  14.630  0.00  0.00    +0.000 C 
BRANCH  13  14
ATOM     14  C   UNL     1       6.712   4.702  13.472  0.00  0.00    +0.000 C 
BRANCH  14  15
ATOM     15  C   UNL     1       6.445   3.591  12.488  0.00  0.00    +0.000 A 
ATOM     16  C   UNL     1       5.128   3.217  12.181  0.00  0.00    +0.000 A 
ATOM     17  C   UNL     1       4.883   2.148  11.323  0.00  0.00    +0.000 A 
ATOM     18  C   UNL     1       5.950   1.447  10.763  0.00  0.00    +0.000 A 
ATOM     19  C   UNL     1       7.262   1.818  11.052  0.00  0.00    +0.000 A 
ATOM     20  C   UNL     1       7.510   2.885  11.914  0.00  0.00    +0.000 A 
ENDBRANCH  14  15
ENDBRANCH  13  14
ENDBRANCH   2  13
TORSDOF 6
ENDMDL
MODEL 7
REMARK VINA RESULT:      -7.4      5.353      6.868
REMARK  Name = 
REMARK  6 active torsions:
REMARK  status: ('A' for Active; 'I' for Inactive)
REMARK    1  A    between atoms: C_2  and  C_3
REMARK    2  A    between atoms: C_2  and  C_13
REMARK    3  A    between atoms: C_4  and  C_5
REMARK    4  A    between atoms: C_5  and  C_6
REMARK    5  A    between atoms: C_13  and  C_14
REMARK    6  A    between atoms: C_14  and  C_15
REMARK                            x       y       z     vdW  Elec       q    Type
REMARK                         _______ _______ _______ _____ _____    ______ ____
ROOT
ATOM      1  O   UNL     1       1.597   7.816  20.081  0.00  0.00    +0.000 OA
ATOM      2  C   UNL     1       2.163   6.740  20.081  0.00  0.00    +0.000 C 
ENDROOT
BRANCH   2   3
ATOM      3  C   UNL     1       3.340   6.531  19.182  0.00  0.00    +0.000 C 
ATOM      4  C   UNL     1       3.221   6.232  17.883  0.00  0.00    +0.000 C 
BRANCH   4   5
ATOM      5  C   UNL     1       4.440   6.016  17.034  0.00  0.00    +0.000 C 
BRANCH   5   6
ATOM      6  C   UNL     1       4.990   4.577  17.102  0.00  0.00    +0.000 C 
ATOM      7  C   UNL     1       6.431   4.529  17.619  0.00  0.00    +0.000 C 
ATOM      8  C   UNL     1       7.358   5.059  16.572  0.00  0.00    +0.000 C 
ATOM      9  C   UNL     1       7.027   4.992  15.276  0.00  0.00    +0.000 C 
ATOM     10  C   UNL     1       5.785   4.334  14.825  0.00  0.00    +0.000 C 
ATOM     11  O   UNL     1       5.585   4.116  13.638  0.00  0.00    +0.000 OA
ATOM     12  O   UNL     1       4.908   3.964  15.792  0.00  0.00    +0.000 OA
ENDBRANCH   5   6
ENDBRANCH   4   5
ENDBRANCH   2   3
BRANCH   2  13
ATOM     13  C   UNL     1       1.741   5.594  20.988  0.00  0.00    +0.000 C 
BRANCH  13  14
ATOM     14  C   UNL     1       0.943   4.507  20.279  0.00  0.00    +0.000 C 
BRANCH  14  15
ATOM     15  C   UNL     1       1.864   3.519  19.607  0.00  0.00    +0.000 A 
ATOM     16  C   UNL     1       1.575   3.042  18.321  0.00  0.00    +0.000 A 
ATOM     17  C   UNL     1       2.391   2.081  17.728  0.00  0.00    +0.000 A 
ATOM     18  C   UNL     1       3.502   1.593  18.414  0.00  0.00    +0.000 A 
ATOM     19  C   UNL     1       3.805   2.071  19.689  0.00  0.00    +0.000 A 
ATOM     20  C   UNL     1       2.988   3.030  20.285  0.00  0.00    +0.000 A 
ENDBRANCH  14  15
ENDBRANCH  13  14
ENDBRANCH   2  13
TORSDOF 6
ENDMDL
MODEL 8
REMARK VINA RESULT:      -7.4      4.861      8.576
REMARK  Name = 
REMARK  6 active torsions:
REMARK  status: ('A' for Active; 'I' for Inactive)
REMARK    1  A    between atoms: C_2  and  C_3
REMARK    2  A    between atoms: C_2  and  C_13
REMARK    3  A    between atoms: C_4  and  C_5
REMARK    4  A    between atoms: C_5  and  C_6
REMARK    5  A    between atoms: C_13  and  C_14
REMARK    6  A    between atoms: C_14  and  C_15
REMARK                            x       y       z     vdW  Elec       q    Type
REMARK                         _______ _______ _______ _____ _____    ______ ____
ROOT
ATOM      1  O   UNL     1       4.953   7.160  15.443  0.00  0.00    +0.000 OA
ATOM      2  C   UNL     1       5.428   6.587  16.404  0.00  0.00    +0.000 C 
ENDROOT
BRANCH   2   3
ATOM      3  C   UNL     1       4.523   6.120  17.500  0.00  0.00    +0.000 C 
ATOM      4  C   UNL     1       4.163   4.840  17.653  0.00  0.00    +0.000 C 
BRANCH   4   5
ATOM      5  C   UNL     1       3.238   4.433  18.762  0.00  0.00    +0.000 C 
BRANCH   5   6
ATOM      6  C   UNL     1       3.183   2.908  18.988  0.00  0.00    +0.000 C 
ATOM      7  C   UNL     1       1.964   2.265  18.321  0.00  0.00    +0.000 C 
ATOM      8  C   UNL     1       0.726   2.634  19.074  0.00  0.00    +0.000 C 
ATOM      9  C   UNL     1       0.789   2.940  20.377  0.00  0.00    +0.000 C 
ATOM     10  C   UNL     1       2.055   2.854  21.132  0.00  0.00    +0.000 C 
ATOM     11  O   UNL     1       2.066   2.953  22.352  0.00  0.00    +0.000 OA
ATOM     12  O   UNL     1       3.181   2.629  20.409  0.00  0.00    +0.000 OA
ENDBRANCH   5   6
ENDBRANCH   4   5
ENDBRANCH   2   3
BRANCH   2  13
ATOM     13  C   UNL     1       6.915   6.294  16.530  0.00  0.00    +0.000 C 
BRANCH  13  14
ATOM     14  C   UNL     1       7.291   4.855  16.199  0.00  0.00    +0.000 C 
BRANCH  14  15
ATOM     15  C   UNL     1       7.090   4.575  14.730  0.00  0.00    +0.000 A 
ATOM     16  C   UNL     1       7.867   5.239  13.770  0.00  0.00    +0.000 A 
ATOM     17  C   UNL     1       7.637   5.029  12.412  0.00  0.00    +0.000 A 
ATOM     18  C   UNL     1       6.632   4.152  12.005  0.00  0.00    +0.000 A 
ATOM     19  C   UNL     1       5.863   3.478  12.952  0.00  0.00    +0.000 A 
ATOM     20  C   UNL     1       6.089   3.689  14.311  0.00  0.00    +0.000 A 
ENDBRANCH  14  15
ENDBRANCH  13  14
ENDBRANCH   2  13
TORSDOF 6
ENDMDL
MODEL 9
REMARK VINA RESULT:      -7.4      4.622      8.420
REMARK  Name = 
REMARK  6 active torsions:
REMARK  status: ('A' for Active; 'I' for Inactive)
REMARK    1  A    between atoms: C_2  and  C_3
REMARK    2  A    between atoms: C_2  and  C_13
REMARK    3  A    between atoms: C_4  and  C_5
REMARK    4  A    between atoms: C_5  and  C_6
REMARK    5  A    between atoms: C_13  and  C_14
REMARK    6  A    between atoms: C_14  and  C_15
REMARK                            x       y       z     vdW  Elec       q    Type
REMARK                         _______ _______ _______ _____ _____    ______ ____
ROOT
ATOM      1  O   UNL     1       7.873   6.333  18.627  0.00  0.00    +0.000 OA
ATOM      2  C   UNL     1       7.038   5.505  18.322  0.00  0.00    +0.000 C 
ENDROOT
BRANCH   2   3
ATOM      3  C   UNL     1       5.941   5.181  19.286  0.00  0.00    +0.000 C 
ATOM      4  C   UNL     1       4.645   5.211  18.954  0.00  0.00    +0.000 C 
BRANCH   4   5
ATOM      5  C   UNL     1       3.587   4.892  19.969  0.00  0.00    +0.000 C 
BRANCH   5   6
ATOM      6  C   UNL     1       2.151   5.019  19.421  0.00  0.00    +0.000 C 
ATOM      7  C   UNL     1       1.098   4.572  20.439  0.00  0.00    +0.000 C 
ATOM      8  C   UNL     1       1.138   3.084  20.583  0.00  0.00    +0.000 C 
ATOM      9  C   UNL     1       1.576   2.316  19.578  0.00  0.00    +0.000 C 
ATOM     10  C   UNL     1       1.963   2.892  18.274  0.00  0.00    +0.000 C 
ATOM     11  O   UNL     1       2.182   2.172  17.310  0.00  0.00    +0.000 OA
ATOM     12  O   UNL     1       2.028   4.245  18.203  0.00  0.00    +0.000 OA
ENDBRANCH   5   6
ENDBRANCH   4   5
ENDBRANCH   2   3
BRANCH   2  13
ATOM     13  C   UNL     1       7.039   4.798  16.976  0.00  0.00    +0.000 C 
BRANCH  13  14
ATOM     14  C   UNL     1       6.877   5.736  15.785  0.00  0.00    +0.000 C 
BRANCH  14  15
ATOM     15  C   UNL     1       6.725   4.952  14.505  0.00  0.00    +0.000 A 
ATOM     16  C   UNL     1       7.646   5.114  13.461  0.00  0.00    +0.000 A 
ATOM     17  C   UNL     1       7.469   4.440  12.255  0.00  0.00    +0.000 A 
ATOM     18  C   UNL     1       6.372   3.596  12.086  0.00  0.00    +0.000 A 
ATOM     19  C   UNL     1       5.456   3.419  13.122  0.00  0.00    +0.000 A 
ATOM     20  C   UNL     1       5.630   4.095  14.328  0.00  0.00    +0.000 A 
ENDBRANCH  14  15
ENDBRANCH  13  14
ENDBRANCH   2  13
TORSDOF 6
ENDMDL
