MODEL 1
REMARK VINA RESULT:      -9.3      0.000      0.000
REMARK  Name = 
REMARK  5 active torsions:
REMARK  status: ('A' for Active; 'I' for Inactive)
REMARK    1  A    between atoms: C_1  and  C_2
REMARK    2  A    between atoms: C_6  and  C_7
REMARK    3  A    between atoms: C_11  and  N_12
REMARK    4  A    between atoms: C_13  and  C_15
REMARK    5  A    between atoms: C_20  and  C_22
REMARK                            x       y       z     vdW  Elec       q    Type
REMARK                         _______ _______ _______ _____ _____    ______ ____
ROOT
ATOM      1  N   UNL     1       1.738   7.119  21.091  0.00  0.00    +0.000 N 
ATOM      2  C   UNL     1       1.578   8.382  20.561  0.00  0.00    +0.000 C 
ATOM      3  O   UNL     1       1.489   8.655  19.364  0.00  0.00    +0.000 OA
ATOM      4  H   UNL     1       1.524   7.019  22.072  0.00  0.00    +0.000 HD
ENDROOT
BRANCH   2   5
ATOM      5  C   UNL     1       1.554   9.516  21.588  0.00  0.00    +0.000 C 
ATOM      6  C   UNL     1       0.651   9.190  22.790  0.00  0.00    +0.000 C 
ATOM      7  C   UNL     1      -0.830   9.516  22.568  0.00  0.00    +0.000 C 
ATOM      8  C   UNL     1      -1.008  10.907  21.964  0.00  0.00    +0.000 C 
ATOM      9  N   UNL     1      -0.215  11.014  20.731  0.00  0.00    +0.000 N 
ATOM     10  C   UNL     1      -0.640  11.502  19.491  0.00  0.00    +0.000 C 
ATOM     11  O   UNL     1       0.149  11.857  18.618  0.00  0.00    +0.000 OA
ATOM     12  C   UNL     1       1.228  10.864  20.949  0.00  0.00    +0.000 C 
BRANCH  10  13
ATOM     13  C   UNL     1      -2.077  11.563  19.147  0.00  0.00    +0.000 A 
ATOM     14  C   UNL     1      -2.603  10.696  18.191  0.00  0.00    +0.000 A 
ATOM     15  C   UNL     1      -3.959  10.761  17.872  0.00  0.00    +0.000 A 
ATOM     16  C   UNL     1      -4.747  11.688  18.534  0.00  0.00    +0.000 A 
ATOM     17  N   UNL     1      -4.288  12.494  19.514  0.00  0.00    +0.000 NA
ATOM     18  C   UNL     1      -2.974  12.387  19.819  0.00  0.00    +0.000 A 
ENDBRANCH  10  13
ENDBRANCH   2   5
BRANCH   1  23
ATOM     19  C   UNL     1       3.543   4.771  18.826  0.00  0.00    +0.000 A 
ATOM     20  C   UNL     1       2.719   3.639  18.944  0.00  0.00    +0.000 A 
ATOM     21  C   UNL     1       1.573   3.650  19.740  0.00  0.00    +0.000 A 
ATOM     22  C   UNL     1       1.234   4.791  20.460  0.00  0.00    +0.000 A 
ATOM     23  C   UNL     1       2.027   5.932  20.384  0.00  0.00    +0.000 A 
ATOM     24  C   UNL     1       3.156   5.922  19.545  0.00  0.00    +0.000 A 
BRANCH  19  30
ATOM     25  C   UNL     1       5.812   4.048  14.392  0.00  0.00    +0.000 C 
ATOM     26  C   UNL     1       5.918   4.381  15.852  0.00  0.00    +0.000 A 
ATOM     27  C   UNL     1       7.159   4.536  16.471  0.00  0.00    +0.000 A 
ATOM     28  C   UNL     1       7.228   4.798  17.835  0.00  0.00    +0.000 A 
ATOM     29  C   UNL     1       6.056   4.885  18.597  0.00  0.00    +0.000 A 
ATOM     30  C   UNL     1       4.786   4.735  18.012  0.00  0.00    +0.000 A 
ATOM     31  C   UNL     1       4.750   4.499  16.622  0.00  0.00    +0.000 A 
ENDBRANCH  19  30
ENDBRANCH   1  23
TORSDOF 4
ENDMDL
MODEL 2
REMARK VINA RESULT:      -9.1      0.819      1.533
REMARK  Name = 
REMARK  5 active torsions:
REMARK  status: ('A' for Active; 'I' for Inactive)
REMARK    1  A    between atoms: C_1  and  C_2
REMARK    2  A    between atoms: C_6  and  C_7
REMARK    3  A    between atoms: C_11  and  N_12
REMARK    4  A    between atoms: C_13  and  C_15
REMARK    5  A    between atoms: C_20  and  C_22
REMARK                            x       y       z     vdW  Elec       q    Type
REMARK                         _______ _______ _______ _____ _____    ______ ____
ROOT
ATOM      1  N   UNL     1       1.629   7.286  21.147  0.00  0.00    +0.000 N 
ATOM      2  C   UNL     1       1.394   8.562  20.679  0.00  0.00    +0.000 C 
ATOM      3  O   UNL     1       1.171   8.869  19.507  0.00  0.00    +0.000 OA
ATOM      4  H   UNL     1       1.526   7.153  22.142  0.00  0.00    +0.000 HD
ENDROOT
BRANCH   2   5
ATOM      5  C   UNL     1       1.467   9.664  21.737  0.00  0.00    +0.000 C 
ATOM      6  C   UNL     1       0.619   9.332  22.977  0.00  0.00    +0.000 C 
ATOM      7  C   UNL     1      -0.860   9.716  22.846  0.00  0.00    +0.000 C 
ATOM      8  C   UNL     1      -1.019  11.130  22.294  0.00  0.00    +0.000 C 
ATOM      9  N   UNL     1      -0.290  11.248  21.023  0.00  0.00    +0.000 N 
ATOM     10  C   UNL     1      -0.764  11.789  19.823  0.00  0.00    +0.000 C 
ATOM     11  O   UNL     1      -0.010  12.143  18.919  0.00  0.00    +0.000 OA
ATOM     12  C   UNL     1       1.155  11.041  21.157  0.00  0.00    +0.000 C 
BRANCH  10  13
ATOM     13  C   UNL     1      -2.214  11.909  19.561  0.00  0.00    +0.000 A 
ATOM     14  C   UNL     1      -3.000  12.741  20.358  0.00  0.00    +0.000 A 
ATOM     15  C   UNL     1      -4.367  12.848  20.105  0.00  0.00    +0.000 A 
ATOM     16  C   UNL     1      -4.900  12.124  19.051  0.00  0.00    +0.000 A 
ATOM     17  N   UNL     1      -4.160  11.364  18.217  0.00  0.00    +0.000 NA
ATOM     18  C   UNL     1      -2.832  11.304  18.472  0.00  0.00    +0.000 A 
ENDBRANCH  10  13
ENDBRANCH   2   5
BRANCH   1  23
ATOM     19  C   UNL     1       3.256   5.013  18.680  0.00  0.00    +0.000 A 
ATOM     20  C   UNL     1       2.423   3.887  18.802  0.00  0.00    +0.000 A 
ATOM     21  C   UNL     1       1.327   3.880  19.666  0.00  0.00    +0.000 A 
ATOM     22  C   UNL     1       1.051   4.995  20.452  0.00  0.00    +0.000 A 
ATOM     23  C   UNL     1       1.856   6.127  20.375  0.00  0.00    +0.000 A 
ATOM     24  C   UNL     1       2.931   6.137  19.469  0.00  0.00    +0.000 A 
BRANCH  19  30
ATOM     25  C   UNL     1       7.620   7.052  17.223  0.00  0.00    +0.000 C 
ATOM     26  C   UNL     1       6.584   5.978  17.059  0.00  0.00    +0.000 A 
ATOM     27  C   UNL     1       6.663   5.049  16.021  0.00  0.00    +0.000 A 
ATOM     28  C   UNL     1       5.663   4.094  15.865  0.00  0.00    +0.000 A 
ATOM     29  C   UNL     1       4.565   4.076  16.733  0.00  0.00    +0.000 A 
ATOM     30  C   UNL     1       4.447   4.994  17.791  0.00  0.00    +0.000 A 
ATOM     31  C   UNL     1       5.492   5.931  17.939  0.00  0.00    +0.000 A 
ENDBRANCH  19  30
ENDBRANCH   1  23
TORSDOF 4
ENDMDL
MODEL 3
REMARK VINA RESULT:      -8.5      2.386      4.020
REMARK  Name = 
REMARK  5 active torsions:
REMARK  status: ('A' for Active; 'I' for Inactive)
REMARK    1  A    between atoms: C_1  and  C_2
REMARK    2  A    between atoms: C_6  and  C_7
REMARK    3  A    between atoms: C_11  and  N_12
REMARK    4  A    between atoms: C_13  and  C_15
REMARK    5  A    between atoms: C_20  and  C_22
REMARK                            x       y       z     vdW  Elec       q    Type
REMARK                         _______ _______ _______ _____ _____    ______ ____
ROOT
ATOM      1  N   UNL     1       1.095  11.100  18.731  0.00  0.00    +0.000 N 
ATOM      2  C   UNL     1       1.511  12.304  19.259  0.00  0.00    +0.000 C 
ATOM      3  O   UNL     1       2.299  12.447  20.194  0.00  0.00    +0.000 OA
ATOM      4  H   UNL     1       0.675  11.138  17.814  0.00  0.00    +0.000 HD
ENDROOT
BRANCH   2   5
ATOM      5  C   UNL     1       0.880  13.542  18.620  0.00  0.00    +0.000 C 
ATOM      6  C   UNL     1       1.221  14.829  19.391  0.00  0.00    +0.000 C 
ATOM      7  C   UNL     1       0.294  15.113  20.579  0.00  0.00    +0.000 C 
ATOM      8  C   UNL     1      -1.172  14.942  20.191  0.00  0.00    +0.000 C 
ATOM      9  N   UNL     1      -1.379  13.604  19.620  0.00  0.00    +0.000 N 
ATOM     10  C   UNL     1      -2.385  12.689  19.950  0.00  0.00    +0.000 C 
ATOM     11  O   UNL     1      -2.682  11.747  19.219  0.00  0.00    +0.000 OA
ATOM     12  C   UNL     1      -0.619  13.370  18.388  0.00  0.00    +0.000 C 
BRANCH  10  13
ATOM     13  C   UNL     1      -3.108  12.782  21.237  0.00  0.00    +0.000 A 
ATOM     14  C   UNL     1      -2.509  12.324  22.409  0.00  0.00    +0.000 A 
ATOM     15  C   UNL     1      -3.198  12.414  23.618  0.00  0.00    +0.000 A 
ATOM     16  C   UNL     1      -4.466  12.975  23.611  0.00  0.00    +0.000 A 
ATOM     17  N   UNL     1      -5.048  13.492  22.510  0.00  0.00    +0.000 NA
ATOM     18  C   UNL     1      -4.341  13.413  21.359  0.00  0.00    +0.000 A 
ENDBRANCH  10  13
ENDBRANCH   2   5
BRANCH   1  23
ATOM     19  C   UNL     1       2.291   7.573  18.923  0.00  0.00    +0.000 A 
ATOM     20  C   UNL     1       1.850   7.238  20.214  0.00  0.00    +0.000 A 
ATOM     21  C   UNL     1       1.150   8.149  21.006  0.00  0.00    +0.000 A 
ATOM     22  C   UNL     1       0.893   9.432  20.534  0.00  0.00    +0.000 A 
ATOM     23  C   UNL     1       1.323   9.814  19.266  0.00  0.00    +0.000 A 
ATOM     24  C   UNL     1       1.990   8.873  18.462  0.00  0.00    +0.000 A 
BRANCH  19  30
ATOM     25  C   UNL     1       3.170   2.849  17.428  0.00  0.00    +0.000 C 
ATOM     26  C   UNL     1       3.526   4.306  17.363  0.00  0.00    +0.000 A 
ATOM     27  C   UNL     1       4.642   4.746  16.651  0.00  0.00    +0.000 A 
ATOM     28  C   UNL     1       4.975   6.097  16.647  0.00  0.00    +0.000 A 
ATOM     29  C   UNL     1       4.208   7.015  17.375  0.00  0.00    +0.000 A 
ATOM     30  C   UNL     1       3.076   6.612  18.105  0.00  0.00    +0.000 A 
ATOM     31  C   UNL     1       2.748   5.240  18.065  0.00  0.00    +0.000 A 
ENDBRANCH  19  30
ENDBRANCH   1  23
TORSDOF 4
ENDMDL
MODEL 4
REMARK VINA RESULT:      -8.4      2.372      4.121
REMARK  Name = 
REMARK  5 active torsions:
REMARK  status: ('A' for Active; 'I' for Inactive)
REMARK    1  A    between atoms: C_1  and  C_2
REMARK    2  A    between atoms: C_6  and  C_7
REMARK    3  A    between atoms: C_11  and  N_12
REMARK    4  A    between atoms: C_13  and  C_15
REMARK    5  A    between atoms: C_20  and  C_22
REMARK                            x       y       z     vdW  Elec       q    Type
REMARK                         _______ _______ _______ _____ _____    ______ ____
ROOT
ATOM      1  N   UNL     1       0.751  11.141  18.656  0.00  0.00    +0.000 N 
ATOM      2  C   UNL     1       1.567  12.245  18.527  0.00  0.00    +0.000 C 
ATOM      3  O   UNL     1       2.777  12.276  18.753  0.00  0.00    +0.000 OA
ATOM      4  H   UNL     1      -0.140  11.191  18.185  0.00  0.00    +0.000 HD
ENDROOT
BRANCH   2   5
ATOM      5  C   UNL     1       0.854  13.530  18.103  0.00  0.00    +0.000 C 
ATOM      6  C   UNL     1       1.323  14.748  18.918  0.00  0.00    +0.000 C 
ATOM      7  C   UNL     1       0.597  14.924  20.257  0.00  0.00    +0.000 C 
ATOM      8  C   UNL     1      -0.914  14.780  20.092  0.00  0.00    +0.000 C 
ATOM      9  N   UNL     1      -1.219  13.494  19.449  0.00  0.00    +0.000 N 
ATOM     10  C   UNL     1      -2.168  12.549  19.854  0.00  0.00    +0.000 C 
ATOM     11  O   UNL     1      -2.585  11.672  19.101  0.00  0.00    +0.000 OA
ATOM     12  C   UNL     1      -0.664  13.371  18.097  0.00  0.00    +0.000 C 
BRANCH  10  13
ATOM     13  C   UNL     1      -2.679  12.529  21.241  0.00  0.00    +0.000 A 
ATOM     14  C   UNL     1      -3.977  12.959  21.513  0.00  0.00    +0.000 A 
ATOM     15  C   UNL     1      -4.451  12.938  22.824  0.00  0.00    +0.000 A 
ATOM     16  C   UNL     1      -3.608  12.474  23.820  0.00  0.00    +0.000 A 
ATOM     17  N   UNL     1      -2.373  11.985  23.586  0.00  0.00    +0.000 NA
ATOM     18  C   UNL     1      -1.953  11.994  22.299  0.00  0.00    +0.000 A 
ENDBRANCH  10  13
ENDBRANCH   2   5
BRANCH   1  23
ATOM     19  C   UNL     1       2.161   7.704  18.974  0.00  0.00    +0.000 A 
ATOM     20  C   UNL     1       1.812   7.421  20.306  0.00  0.00    +0.000 A 
ATOM     21  C   UNL     1       1.105   8.338  21.085  0.00  0.00    +0.000 A 
ATOM     22  C   UNL     1       0.748   9.574  20.558  0.00  0.00    +0.000 A 
ATOM     23  C   UNL     1       1.083   9.903  19.248  0.00  0.00    +0.000 A 
ATOM     24  C   UNL     1       1.758   8.955  18.459  0.00  0.00    +0.000 A 
BRANCH  19  30
ATOM     25  C   UNL     1       3.020   2.983  17.456  0.00  0.00    +0.000 C 
ATOM     26  C   UNL     1       3.395   4.436  17.414  0.00  0.00    +0.000 A 
ATOM     27  C   UNL     1       4.533   4.869  16.733  0.00  0.00    +0.000 A 
ATOM     28  C   UNL     1       4.882   6.216  16.751  0.00  0.00    +0.000 A 
ATOM     29  C   UNL     1       4.108   7.136  17.468  0.00  0.00    +0.000 A 
ATOM     30  C   UNL     1       2.954   6.740  18.167  0.00  0.00    +0.000 A 
ATOM     31  C   UNL     1       2.611   5.373  18.105  0.00  0.00    +0.000 A 
ENDBRANCH  19  30
ENDBRANCH   1  23
TORSDOF 4
ENDMDL
MODEL 5
REMARK VINA RESULT:      -8.4      3.188      5.079
REMARK  Name = 
REMARK  5 active torsions:
REMARK  status: ('A' for Active; 'I' for Inactive)
REMARK    1  A    between atoms: C_1  and  C_2
REMARK    2  A    between atoms: C_6  and  C_7
REMARK    3  A    between atoms: C_11  and  N_12
REMARK    4  A    between atoms: C_13  and  C_15
REMARK    5  A    between atoms: C_20  and  C_22
REMARK                            x       y       z     vdW  Elec       q    Type
REMARK                         _______ _______ _______ _____ _____    ______ ____
ROOT
ATOM      1  N   UNL     1       0.779   9.860  19.429  0.00  0.00    +0.000 N 
ATOM      2  C   UNL     1       0.696  10.333  20.722  0.00  0.00    +0.000 C 
ATOM      3  O   UNL     1       1.481  10.074  21.635  0.00  0.00    +0.000 OA
ATOM      4  H   UNL     1       0.240  10.360  18.739  0.00  0.00    +0.000 HD
ENDROOT
BRANCH   2   5
ATOM      5  C   UNL     1      -0.516  11.220  21.010  0.00  0.00    +0.000 C 
ATOM      6  C   UNL     1      -1.430  11.367  19.782  0.00  0.00    +0.000 C 
ATOM      7  C   UNL     1      -1.000  12.470  18.808  0.00  0.00    +0.000 C 
ATOM      8  C   UNL     1      -0.670  13.764  19.546  0.00  0.00    +0.000 C 
ATOM      9  N   UNL     1       0.340  13.498  20.580  0.00  0.00    +0.000 N 
ATOM     10  C   UNL     1       1.513  14.221  20.824  0.00  0.00    +0.000 C 
ATOM     11  O   UNL     1       2.127  14.139  21.885  0.00  0.00    +0.000 OA
ATOM     12  C   UNL     1      -0.115  12.564  21.614  0.00  0.00    +0.000 C 
BRANCH  10  13
ATOM     13  C   UNL     1       2.105  15.087  19.781  0.00  0.00    +0.000 A 
ATOM     14  C   UNL     1       2.851  14.523  18.747  0.00  0.00    +0.000 A 
ATOM     15  C   UNL     1       3.407  15.346  17.768  0.00  0.00    +0.000 A 
ATOM     16  C   UNL     1       3.186  16.711  17.855  0.00  0.00    +0.000 A 
ATOM     17  N   UNL     1       2.413  17.285  18.800  0.00  0.00    +0.000 NA
ATOM     18  C   UNL     1       1.866  16.455  19.718  0.00  0.00    +0.000 A 
ENDBRANCH  10  13
ENDBRANCH   2   5
BRANCH   1  23
ATOM     19  C   UNL     1       2.459   6.539  19.197  0.00  0.00    +0.000 A 
ATOM     20  C   UNL     1       3.287   6.764  18.084  0.00  0.00    +0.000 A 
ATOM     21  C   UNL     1       3.311   7.996  17.429  0.00  0.00    +0.000 A 
ATOM     22  C   UNL     1       2.486   9.031  17.858  0.00  0.00    +0.000 A 
ATOM     23  C   UNL     1       1.640   8.851  18.947  0.00  0.00    +0.000 A 
ATOM     24  C   UNL     1       1.657   7.618  19.625  0.00  0.00    +0.000 A 
BRANCH  19  30
ATOM     25  C   UNL     1       4.560   2.059  20.114  0.00  0.00    +0.000 C 
ATOM     26  C   UNL     1       3.415   3.009  20.318  0.00  0.00    +0.000 A 
ATOM     27  C   UNL     1       2.268   2.621  21.011  0.00  0.00    +0.000 A 
ATOM     28  C   UNL     1       1.204   3.507  21.144  0.00  0.00    +0.000 A 
ATOM     29  C   UNL     1       1.270   4.781  20.566  0.00  0.00    +0.000 A 
ATOM     30  C   UNL     1       2.407   5.210  19.859  0.00  0.00    +0.000 A 
ATOM     31  C   UNL     1       3.480   4.299  19.768  0.00  0.00    +0.000 A 
ENDBRANCH  19  30
ENDBRANCH   1  23
TORSDOF 4
ENDMDL
MODEL 6
REMARK VINA RESULT:      -8.4      1.063      1.414
REMARK  Name = 
REMARK  5 active torsions:
REMARK  status: ('A' for Active; 'I' for Inactive)
REMARK    1  A    between atoms: C_1  and  C_2
REMARK    2  A    between atoms: C_6  and  C_7
REMARK    3  A    between atoms: C_11  and  N_12
REMARK    4  A    between atoms: C_13  and  C_15
REMARK    5  A    between atoms: C_20  and  C_22
REMARK                            x       y       z     vdW  Elec       q    Type
REMARK                         _______ _______ _______ _____ _____    ______ ____
ROOT
ATOM      1  N   UNL     1       1.591   7.439  21.231  0.00  0.00    +0.000 N 
ATOM      2  C   UNL     1       1.277   8.699  20.768  0.00  0.00    +0.000 C 
ATOM      3  O   UNL     1       0.999   8.990  19.604  0.00  0.00    +0.000 OA
ATOM      4  H   UNL     1       1.528   7.305  22.229  0.00  0.00    +0.000 HD
ENDROOT
BRANCH   2   5
ATOM      5  C   UNL     1       1.332   9.808  21.820  0.00  0.00    +0.000 C 
ATOM      6  C   UNL     1       0.484   9.472  23.059  0.00  0.00    +0.000 C 
ATOM      7  C   UNL     1      -0.999   9.835  22.922  0.00  0.00    +0.000 C 
ATOM      8  C   UNL     1      -1.175  11.244  22.360  0.00  0.00    +0.000 C 
ATOM      9  N   UNL     1      -0.444  11.364  21.091  0.00  0.00    +0.000 N 
ATOM     10  C   UNL     1      -0.921  11.891  19.886  0.00  0.00    +0.000 C 
ATOM     11  O   UNL     1      -0.170  12.250  18.982  0.00  0.00    +0.000 OA
ATOM     12  C   UNL     1       1.004  11.178  21.231  0.00  0.00    +0.000 C 
BRANCH  10  13
ATOM     13  C   UNL     1      -2.372  11.991  19.619  0.00  0.00    +0.000 A 
ATOM     14  C   UNL     1      -3.168  12.835  20.393  0.00  0.00    +0.000 A 
ATOM     15  C   UNL     1      -4.536  12.922  20.136  0.00  0.00    +0.000 A 
ATOM     16  C   UNL     1      -5.059  12.166  19.100  0.00  0.00    +0.000 A 
ATOM     17  N   UNL     1      -4.310  11.393  18.286  0.00  0.00    +0.000 NA
ATOM     18  C   UNL     1      -2.982  11.352  18.545  0.00  0.00    +0.000 A 
ENDBRANCH  10  13
ENDBRANCH   2   5
BRANCH   1  23
ATOM     19  C   UNL     1       3.001   5.329  18.500  0.00  0.00    +0.000 A 
ATOM     20  C   UNL     1       2.448   4.084  18.846  0.00  0.00    +0.000 A 
ATOM     21  C   UNL     1       1.605   3.940  19.949  0.00  0.00    +0.000 A 
ATOM     22  C   UNL     1       1.312   5.038  20.751  0.00  0.00    +0.000 A 
ATOM     23  C   UNL     1       1.848   6.288  20.456  0.00  0.00    +0.000 A 
ATOM     24  C   UNL     1       2.661   6.428  19.317  0.00  0.00    +0.000 A 
BRANCH  19  30
ATOM     25  C   UNL     1       5.923   3.187  15.007  0.00  0.00    +0.000 C 
ATOM     26  C   UNL     1       5.373   4.434  15.635  0.00  0.00    +0.000 A 
ATOM     27  C   UNL     1       5.813   5.698  15.239  0.00  0.00    +0.000 A 
ATOM     28  C   UNL     1       5.321   6.835  15.872  0.00  0.00    +0.000 A 
ATOM     29  C   UNL     1       4.402   6.716  16.921  0.00  0.00    +0.000 A 
ATOM     30  C   UNL     1       3.934   5.462  17.351  0.00  0.00    +0.000 A 
ATOM     31  C   UNL     1       4.430   4.330  16.670  0.00  0.00    +0.000 A 
ENDBRANCH  19  30
ENDBRANCH   1  23
TORSDOF 4
ENDMDL
MODEL 7
REMARK VINA RESULT:      -8.3      2.302      3.984
REMARK  Name = 
REMARK  5 active torsions:
REMARK  status: ('A' for Active; 'I' for Inactive)
REMARK    1  A    between atoms: C_1  and  C_2
REMARK    2  A    between atoms: C_6  and  C_7
REMARK    3  A    between atoms: C_11  and  N_12
REMARK    4  A    between atoms: C_13  and  C_15
REMARK    5  A    between atoms: C_20  and  C_22
REMARK                            x       y       z     vdW  Elec       q    Type
REMARK                         _______ _______ _______ _____ _____    ______ ____
ROOT
ATOM      1  N   UNL     1       1.004  10.931  18.767  0.00  0.00    +0.000 N 
ATOM      2  C   UNL     1       1.490  12.157  19.168  0.00  0.00    +0.000 C 
ATOM      3  O   UNL     1       2.351  12.344  20.029  0.00  0.00    +0.000 OA
ATOM      4  H   UNL     1       0.516  10.914  17.884  0.00  0.00    +0.000 HD
ENDROOT
BRANCH   2   5
ATOM      5  C   UNL     1       0.847  13.364  18.482  0.00  0.00    +0.000 C 
ATOM      6  C   UNL     1       1.188  14.684  19.195  0.00  0.00    +0.000 C 
ATOM      7  C   UNL     1       0.271  15.013  20.378  0.00  0.00    +0.000 C 
ATOM      8  C   UNL     1      -1.198  14.819  20.012  0.00  0.00    +0.000 C 
ATOM      9  N   UNL     1      -1.403  13.456  19.501  0.00  0.00    +0.000 N 
ATOM     10  C   UNL     1      -2.400  12.551  19.879  0.00  0.00    +0.000 C 
ATOM     11  O   UNL     1      -2.700  11.577  19.191  0.00  0.00    +0.000 OA
ATOM     12  C   UNL     1      -0.653  13.175  18.272  0.00  0.00    +0.000 C 
BRANCH  10  13
ATOM     13  C   UNL     1      -3.113  12.696  21.167  0.00  0.00    +0.000 A 
ATOM     14  C   UNL     1      -2.485  12.329  22.356  0.00  0.00    +0.000 A 
ATOM     15  C   UNL     1      -3.164  12.467  23.566  0.00  0.00    +0.000 A 
ATOM     16  C   UNL     1      -4.450  12.982  23.543  0.00  0.00    +0.000 A 
ATOM     17  N   UNL     1      -5.063  13.412  22.421  0.00  0.00    +0.000 NA
ATOM     18  C   UNL     1      -4.366  13.290  21.267  0.00  0.00    +0.000 A 
ENDBRANCH  10  13
ENDBRANCH   2   5
BRANCH   1  23
ATOM     19  C   UNL     1       2.142   7.401  19.154  0.00  0.00    +0.000 A 
ATOM     20  C   UNL     1       1.765   7.170  20.488  0.00  0.00    +0.000 A 
ATOM     21  C   UNL     1       1.126   8.152  21.247  0.00  0.00    +0.000 A 
ATOM     22  C   UNL     1       0.869   9.403  20.696  0.00  0.00    +0.000 A 
ATOM     23  C   UNL     1       1.235   9.682  19.383  0.00  0.00    +0.000 A 
ATOM     24  C   UNL     1       1.840   8.671  18.615  0.00  0.00    +0.000 A 
BRANCH  19  30
ATOM     25  C   UNL     1       5.833   6.153  15.968  0.00  0.00    +0.000 C 
ATOM     26  C   UNL     1       4.661   5.733  16.807  0.00  0.00    +0.000 A 
ATOM     27  C   UNL     1       4.174   4.426  16.766  0.00  0.00    +0.000 A 
ATOM     28  C   UNL     1       3.057   4.077  17.519  0.00  0.00    +0.000 A 
ATOM     29  C   UNL     1       2.405   5.038  18.301  0.00  0.00    +0.000 A 
ATOM     30  C   UNL     1       2.863   6.366  18.369  0.00  0.00    +0.000 A 
ATOM     31  C   UNL     1       4.015   6.680  17.617  0.00  0.00    +0.000 A 
ENDBRANCH  19  30
ENDBRANCH   1  23
TORSDOF 4
ENDMDL
MODEL 8
REMARK VINA RESULT:      -8.3      3.235      5.224
REMARK  Name = 
REMARK  5 active torsions:
REMARK  status: ('A' for Active; 'I' for Inactive)
REMARK    1  A    between atoms: C_1  and  C_2
REMARK    2  A    between atoms: C_6  and  C_7
REMARK    3  A    between atoms: C_11  and  N_12
REMARK    4  A    between atoms: C_13  and  C_15
REMARK    5  A    between atoms: C_20  and  C_22
REMARK                            x       y       z     vdW  Elec       q    Type
REMARK                         _______ _______ _______ _____ _____    ______ ____
ROOT
ATOM      1  N   UNL     1       0.740   9.956  19.439  0.00  0.00    +0.000 N 
ATOM      2  C   UNL     1       0.661  10.445  20.726  0.00  0.00    +0.000 C 
ATOM      3  O   UNL     1       1.431  10.173  21.648  0.00  0.00    +0.000 OA
ATOM      4  H   UNL     1       0.221  10.465  18.739  0.00  0.00    +0.000 HD
ENDROOT
BRANCH   2   5
ATOM      5  C   UNL     1      -0.527  11.370  20.995  0.00  0.00    +0.000 C 
ATOM      6  C   UNL     1      -1.419  11.544  19.754  0.00  0.00    +0.000 C 
ATOM      7  C   UNL     1      -0.940  12.631  18.785  0.00  0.00    +0.000 C 
ATOM      8  C   UNL     1      -0.580  13.916  19.527  0.00  0.00    +0.000 C 
ATOM      9  N   UNL     1       0.406  13.620  20.575  0.00  0.00    +0.000 N 
ATOM     10  C   UNL     1       1.597  14.306  20.835  0.00  0.00    +0.000 C 
ATOM     11  O   UNL     1       2.193  14.207  21.905  0.00  0.00    +0.000 OA
ATOM     12  C   UNL     1      -0.093  12.701  21.604  0.00  0.00    +0.000 C 
BRANCH  10  13
ATOM     13  C   UNL     1       2.231  15.151  19.800  0.00  0.00    +0.000 A 
ATOM     14  C   UNL     1       2.914  14.559  18.738  0.00  0.00    +0.000 A 
ATOM     15  C   UNL     1       3.510  15.363  17.767  0.00  0.00    +0.000 A 
ATOM     16  C   UNL     1       3.391  16.738  17.889  0.00  0.00    +0.000 A 
ATOM     17  N   UNL     1       2.680  17.344  18.863  0.00  0.00    +0.000 NA
ATOM     18  C   UNL     1       2.091  16.534  19.773  0.00  0.00    +0.000 A 
ENDBRANCH  10  13
ENDBRANCH   2   5
BRANCH   1  23
ATOM     19  C   UNL     1       2.237   6.552  19.174  0.00  0.00    +0.000 A 
ATOM     20  C   UNL     1       3.158   6.773  18.135  0.00  0.00    +0.000 A 
ATOM     21  C   UNL     1       3.302   8.027  17.542  0.00  0.00    +0.000 A 
ATOM     22  C   UNL     1       2.509   9.092  17.958  0.00  0.00    +0.000 A 
ATOM     23  C   UNL     1       1.575   8.918  18.974  0.00  0.00    +0.000 A 
ATOM     24  C   UNL     1       1.468   7.659  19.593  0.00  0.00    +0.000 A 
BRANCH  19  30
ATOM     25  C   UNL     1       0.635   1.800  18.752  0.00  0.00    +0.000 C 
ATOM     26  C   UNL     1       1.277   2.871  19.584  0.00  0.00    +0.000 A 
ATOM     27  C   UNL     1       1.593   2.653  20.926  0.00  0.00    +0.000 A 
ATOM     28  C   UNL     1       2.145   3.680  21.685  0.00  0.00    +0.000 A 
ATOM     29  C   UNL     1       2.363   4.941  21.115  0.00  0.00    +0.000 A 
ATOM     30  C   UNL     1       2.058   5.201  19.768  0.00  0.00    +0.000 A 
ATOM     31  C   UNL     1       1.528   4.131  19.017  0.00  0.00    +0.000 A 
ENDBRANCH  19  30
ENDBRANCH   1  23
TORSDOF 4
ENDMDL
MODEL 9
REMARK VINA RESULT:      -8.3      3.100      5.086
REMARK  Name = 
REMARK  5 active torsions:
REMARK  status: ('A' for Active; 'I' for Inactive)
REMARK    1  A    between atoms: C_1  and  C_2
REMARK    2  A    between atoms: C_6  and  C_7
REMARK    3  A    between atoms: C_11  and  N_12
REMARK    4  A    between atoms: C_13  and  C_15
REMARK    5  A    between atoms: C_20  and  C_22
REMARK                            x       y       z     vdW  Elec       q    Type
REMARK                         _______ _______ _______ _____ _____    ______ ____
ROOT
ATOM      1  N   UNL     1       0.892   9.522  18.957  0.00  0.00    +0.000 N 
ATOM      2  C   UNL     1       0.679   9.927  20.258  0.00  0.00    +0.000 C 
ATOM      3  O   UNL     1       1.381   9.635  21.227  0.00  0.00    +0.000 OA
ATOM      4  H   UNL     1       0.409  10.049  18.244  0.00  0.00    +0.000 HD
ENDROOT
BRANCH   2   5
ATOM      5  C   UNL     1      -0.573  10.779  20.474  0.00  0.00    +0.000 C 
ATOM      6  C   UNL     1      -1.394  10.940  19.183  0.00  0.00    +0.000 C 
ATOM      7  C   UNL     1      -0.917  12.079  18.274  0.00  0.00    +0.000 C 
ATOM      8  C   UNL     1      -0.676  13.359  19.070  0.00  0.00    +0.000 C 
ATOM      9  N   UNL     1       0.257  13.087  20.171  0.00  0.00    +0.000 N 
ATOM     10  C   UNL     1       1.390  13.828  20.524  0.00  0.00    +0.000 C 
ATOM     11  O   UNL     1       1.923  13.731  21.627  0.00  0.00    +0.000 OA
ATOM     12  C   UNL     1      -0.253  12.114  21.142  0.00  0.00    +0.000 C 
BRANCH  10  13
ATOM     13  C   UNL     1       2.040  14.736  19.554  0.00  0.00    +0.000 A 
ATOM     14  C   UNL     1       2.901  14.221  18.586  0.00  0.00    +0.000 A 
ATOM     15  C   UNL     1       3.510  15.084  17.675  0.00  0.00    +0.000 A 
ATOM     16  C   UNL     1       3.225  16.437  17.760  0.00  0.00    +0.000 A 
ATOM     17  N   UNL     1       2.345  16.962  18.637  0.00  0.00    +0.000 NA
ATOM     18  C   UNL     1       1.750  16.094  19.488  0.00  0.00    +0.000 A 
ENDBRANCH  10  13
ENDBRANCH   2   5
BRANCH   1  23
ATOM     19  C   UNL     1       2.442   6.171  18.443  0.00  0.00    +0.000 A 
ATOM     20  C   UNL     1       3.558   6.536  17.670  0.00  0.00    +0.000 A 
ATOM     21  C   UNL     1       3.812   7.867  17.339  0.00  0.00    +0.000 A 
ATOM     22  C   UNL     1       2.940   8.869  17.753  0.00  0.00    +0.000 A 
ATOM     23  C   UNL     1       1.815   8.554  18.508  0.00  0.00    +0.000 A 
ATOM     24  C   UNL     1       1.593   7.213  18.872  0.00  0.00    +0.000 A 
BRANCH  19  30
ATOM     25  C   UNL     1       1.547   2.556  21.828  0.00  0.00    +0.000 C 
ATOM     26  C   UNL     1       1.719   2.960  20.393  0.00  0.00    +0.000 A 
ATOM     27  C   UNL     1       1.733   2.009  19.371  0.00  0.00    +0.000 A 
ATOM     28  C   UNL     1       1.941   2.408  18.055  0.00  0.00    +0.000 A 
ATOM     29  C   UNL     1       2.161   3.757  17.752  0.00  0.00    +0.000 A 
ATOM     30  C   UNL     1       2.155   4.745  18.752  0.00  0.00    +0.000 A 
ATOM     31  C   UNL     1       1.912   4.313  20.073  0.00  0.00    +0.000 A 
ENDBRANCH  19  30
ENDBRANCH   1  23
TORSDOF 4
ENDMDL
