MODEL 1
REMARK VINA RESULT:      -6.9      0.000      0.000
REMARK  Name = 
REMARK  5 active torsions:
REMARK  status: ('A' for Active; 'I' for Inactive)
REMARK    1  A    between atoms: C_1  and  C_2
REMARK    2  A    between atoms: C_9  and  C_10
REMARK    3  A    between atoms: C_14  and  C_15
REMARK    4  A    between atoms: N_19  and  C_20
REMARK    5  A    between atoms: C_30  and  O_31
REMARK                            x       y       z     vdW  Elec       q    Type
REMARK                         _______ _______ _______ _____ _____    ______ ____
ROOT
ATOM      1  C   UNL     1      -3.245  14.804  24.330  0.00  0.00    +0.000 C 
ATOM      2  C   UNL     1      -2.337  15.455  23.314  0.00  0.00    +0.000 C 
ATOM      3  O   UNL     1      -1.472  16.252  23.678  0.00  0.00    +0.000 OA
ATOM      4  N   UNL     1      -2.504  15.086  21.991  0.00  0.00    +0.000 N 
ATOM      5  C   UNL     1      -3.547  14.164  21.502  0.00  0.00    +0.000 C 
ATOM      6  C   UNL     1      -2.924  12.826  21.071  0.00  0.00    +0.000 C 
ATOM      7  C   UNL     1      -1.748  13.133  20.215  0.00  0.00    +0.000 A 
ATOM      8  C   UNL     1      -1.092  14.348  20.165  0.00  0.00    +0.000 A 
ATOM      9  C   UNL     1      -0.039  14.157  19.220  0.00  0.00    +0.000 A 
ATOM     10  N   UNL     1      -0.067  12.897  18.740  0.00  0.00    +0.000 NA
ATOM     11  N   UNL     1      -1.088  12.287  19.381  0.00  0.00    +0.000 N 
ATOM     12  C   UNL     1      -1.510  15.529  20.990  0.00  0.00    +0.000 C 
ENDROOT
BRANCH  11  13
ATOM     13  C   UNL     1      -1.357  10.868  19.185  0.00  0.00    +0.000 C 
ATOM     14  C   UNL     1      -0.532  10.026  20.119  0.00  0.00    +0.000 A 
ATOM     15  C   UNL     1      -0.549  10.052  21.508  0.00  0.00    +0.000 A 
ATOM     16  C   UNL     1       0.424   9.329  22.189  0.00  0.00    +0.000 A 
ATOM     17  F   UNL     1       0.462   9.384  23.526  0.00  0.00    +0.000 F 
ATOM     18  C   UNL     1       1.384   8.579  21.508  0.00  0.00    +0.000 A 
ATOM     19  C   UNL     1       1.364   8.529  20.114  0.00  0.00    +0.000 A 
ATOM     20 CL   UNL     1       2.572   7.634  19.281  0.00  0.00    +0.000 Cl
ATOM     21  C   UNL     1       0.394   9.245  19.423  0.00  0.00    +0.000 A 
ATOM     22  C   UNL     1       0.239   9.395  17.939  0.00  0.00    +0.000 C 
ATOM     23  C   UNL     1      -0.949  10.370  17.779  0.00  0.00    +0.000 C 
BRANCH  23  24
ATOM     24  O   UNL     1      -2.062   9.712  17.144  0.00  0.00    +0.000 OA
ATOM     25  H   UNL     1      -1.725   8.969  16.613  0.00  0.00    +0.000 HD
ENDBRANCH  23  24
ENDBRANCH  11  13
BRANCH   9  26
ATOM     26  C   UNL     1       0.992  15.098  18.758  0.00  0.00    +0.000 A 
ATOM     27  C   UNL     1       0.703  16.450  18.527  0.00  0.00    +0.000 A 
ATOM     28  C   UNL     1       1.702  17.337  18.111  0.00  0.00    +0.000 A 
ATOM     29  C   UNL     1       3.004  16.881  17.912  0.00  0.00    +0.000 A 
ATOM     30  C   UNL     1       3.306  15.538  18.112  0.00  0.00    +0.000 A 
ATOM     31  C   UNL     1       2.306  14.648  18.533  0.00  0.00    +0.000 A 
BRANCH  30  32
ATOM     32  C   UNL     1       4.648  15.062  17.895  0.00  0.00    +0.000 C 
ATOM     33  N   UNL     1       5.734  14.680  17.704  0.00  0.00    +0.000 NA
ENDBRANCH  30  32
ENDBRANCH   9  26
TORSDOF 4
ENDMDL
MODEL 2
REMARK VINA RESULT:      -6.9      3.397      5.257
REMARK  Name = 
REMARK  5 active torsions:
REMARK  status: ('A' for Active; 'I' for Inactive)
REMARK    1  A    between atoms: C_1  and  C_2
REMARK    2  A    between atoms: C_9  and  C_10
REMARK    3  A    between atoms: C_14  and  C_15
REMARK    4  A    between atoms: N_19  and  C_20
REMARK    5  A    between atoms: C_30  and  O_31
REMARK                            x       y       z     vdW  Elec       q    Type
REMARK                         _______ _______ _______ _____ _____    ______ ____
ROOT
ATOM      1  C   UNL     1      -2.256  17.316  23.839  0.00  0.00    +0.000 C 
ATOM      2  C   UNL     1      -3.133  16.591  22.846  0.00  0.00    +0.000 C 
ATOM      3  O   UNL     1      -3.735  17.221  21.977  0.00  0.00    +0.000 OA
ATOM      4  N   UNL     1      -3.190  15.212  22.944  0.00  0.00    +0.000 N 
ATOM      5  C   UNL     1      -2.516  14.416  23.989  0.00  0.00    +0.000 C 
ATOM      6  C   UNL     1      -1.339  13.629  23.391  0.00  0.00    +0.000 C 
ATOM      7  C   UNL     1      -1.825  12.964  22.153  0.00  0.00    +0.000 A 
ATOM      8  C   UNL     1      -2.961  13.318  21.451  0.00  0.00    +0.000 A 
ATOM      9  C   UNL     1      -3.006  12.411  20.348  0.00  0.00    +0.000 A 
ATOM     10  N   UNL     1      -1.954  11.570  20.394  0.00  0.00    +0.000 NA
ATOM     11  N   UNL     1      -1.236  11.945  21.475  0.00  0.00    +0.000 N 
ATOM     12  C   UNL     1      -3.859  14.442  21.874  0.00  0.00    +0.000 C 
ENDROOT
BRANCH  11  13
ATOM     13  C   UNL     1       0.042  11.314  21.784  0.00  0.00    +0.000 C 
ATOM     14  C   UNL     1       0.885  11.165  20.549  0.00  0.00    +0.000 A 
ATOM     15  C   UNL     1       1.349  12.180  19.721  0.00  0.00    +0.000 A 
ATOM     16  C   UNL     1       1.958  11.823  18.523  0.00  0.00    +0.000 A 
ATOM     17  F   UNL     1       2.362  12.785  17.685  0.00  0.00    +0.000 F 
ATOM     18  C   UNL     1       2.120  10.485  18.159  0.00  0.00    +0.000 A 
ATOM     19  C   UNL     1       1.687   9.475  19.019  0.00  0.00    +0.000 A 
ATOM     20 CL   UNL     1       1.857   7.831  18.548  0.00  0.00    +0.000 Cl
ATOM     21  C   UNL     1       1.081   9.820  20.221  0.00  0.00    +0.000 A 
ATOM     22  C   UNL     1       0.475   8.908  21.245  0.00  0.00    +0.000 C 
ATOM     23  C   UNL     1      -0.117   9.865  22.303  0.00  0.00    +0.000 C 
BRANCH  23  24
ATOM     24  O   UNL     1       0.566   9.712  23.562  0.00  0.00    +0.000 OA
ATOM     25  H   UNL     1       0.778  10.595  23.912  0.00  0.00    +0.000 HD
ENDBRANCH  23  24
ENDBRANCH  11  13
BRANCH   9  26
ATOM     26  C   UNL     1      -3.986  12.307  19.256  0.00  0.00    +0.000 A 
ATOM     27  C   UNL     1      -5.276  12.841  19.373  0.00  0.00    +0.000 A 
ATOM     28  C   UNL     1      -6.187  12.755  18.314  0.00  0.00    +0.000 A 
ATOM     29  C   UNL     1      -5.822  12.123  17.126  0.00  0.00    +0.000 A 
ATOM     30  C   UNL     1      -4.554  11.565  17.000  0.00  0.00    +0.000 A 
ATOM     31  C   UNL     1      -3.638  11.655  18.059  0.00  0.00    +0.000 A 
BRANCH  30  32
ATOM     32  C   UNL     1      -4.178  10.902  15.778  0.00  0.00    +0.000 C 
ATOM     33  N   UNL     1      -3.880  10.352  14.792  0.00  0.00    +0.000 NA
ENDBRANCH  30  32
ENDBRANCH   9  26
TORSDOF 4
ENDMDL
MODEL 3
REMARK VINA RESULT:      -6.8      3.780      6.124
REMARK  Name = 
REMARK  5 active torsions:
REMARK  status: ('A' for Active; 'I' for Inactive)
REMARK    1  A    between atoms: C_1  and  C_2
REMARK    2  A    between atoms: C_9  and  C_10
REMARK    3  A    between atoms: C_14  and  C_15
REMARK    4  A    between atoms: N_19  and  C_20
REMARK    5  A    between atoms: C_30  and  O_31
REMARK                            x       y       z     vdW  Elec       q    Type
REMARK                         _______ _______ _______ _____ _____    ______ ____
ROOT
ATOM      1  C   UNL     1       1.582   8.641  17.890  0.00  0.00    +0.000 C 
ATOM      2  C   UNL     1       1.872  10.091  18.192  0.00  0.00    +0.000 C 
ATOM      3  O   UNL     1       2.572  10.754  17.426  0.00  0.00    +0.000 OA
ATOM      4  N   UNL     1       1.292  10.627  19.328  0.00  0.00    +0.000 N 
ATOM      5  C   UNL     1       0.477   9.864  20.293  0.00  0.00    +0.000 C 
ATOM      6  C   UNL     1      -1.002  10.273  20.191  0.00  0.00    +0.000 C 
ATOM      7  C   UNL     1      -1.059  11.758  20.186  0.00  0.00    +0.000 A 
ATOM      8  C   UNL     1       0.001  12.596  19.899  0.00  0.00    +0.000 A 
ATOM      9  C   UNL     1      -0.535  13.915  20.011  0.00  0.00    +0.000 A 
ATOM     10  N   UNL     1      -1.841  13.860  20.342  0.00  0.00    +0.000 NA
ATOM     11  N   UNL     1      -2.143  12.545  20.410  0.00  0.00    +0.000 N 
ATOM     12  C   UNL     1       1.369  12.086  19.555  0.00  0.00    +0.000 C 
ENDROOT
BRANCH  11  13
ATOM     13  C   UNL     1      -3.510  12.100  20.650  0.00  0.00    +0.000 C 
ATOM     14  C   UNL     1      -4.306  12.081  19.374  0.00  0.00    +0.000 A 
ATOM     15  C   UNL     1      -4.041  11.337  18.231  0.00  0.00    +0.000 A 
ATOM     16  C   UNL     1      -4.790  11.601  17.089  0.00  0.00    +0.000 A 
ATOM     17  F   UNL     1      -4.515  10.934  15.961  0.00  0.00    +0.000 F 
ATOM     18  C   UNL     1      -5.793  12.571  17.083  0.00  0.00    +0.000 A 
ATOM     19  C   UNL     1      -6.076  13.282  18.250  0.00  0.00    +0.000 A 
ATOM     20 CL   UNL     1      -7.287  14.501  18.225  0.00  0.00    +0.000 Cl
ATOM     21  C   UNL     1      -5.337  13.024  19.398  0.00  0.00    +0.000 A 
ATOM     22  C   UNL     1      -5.417  13.720  20.724  0.00  0.00    +0.000 C 
ATOM     23  C   UNL     1      -4.301  13.064  21.566  0.00  0.00    +0.000 C 
BRANCH  23  24
ATOM     24  O   UNL     1      -4.864  12.341  22.677  0.00  0.00    +0.000 OA
ATOM     25  H   UNL     1      -4.293  12.467  23.454  0.00  0.00    +0.000 HD
ENDBRANCH  23  24
ENDBRANCH  11  13
BRANCH   9  26
ATOM     26  C   UNL     1       0.121  15.216  19.813  0.00  0.00    +0.000 A 
ATOM     27  C   UNL     1       1.051  15.718  20.734  0.00  0.00    +0.000 A 
ATOM     28  C   UNL     1       1.684  16.948  20.517  0.00  0.00    +0.000 A 
ATOM     29  C   UNL     1       1.387  17.697  19.379  0.00  0.00    +0.000 A 
ATOM     30  C   UNL     1       0.448  17.228  18.466  0.00  0.00    +0.000 A 
ATOM     31  C   UNL     1      -0.184  15.993  18.680  0.00  0.00    +0.000 A 
BRANCH  30  32
ATOM     32  C   UNL     1       0.131  18.005  17.296  0.00  0.00    +0.000 C 
ATOM     33  N   UNL     1      -0.140  18.630  16.349  0.00  0.00    +0.000 NA
ENDBRANCH  30  32
ENDBRANCH   9  26
TORSDOF 4
ENDMDL
MODEL 4
REMARK VINA RESULT:      -6.7      3.592      5.940
REMARK  Name = 
REMARK  5 active torsions:
REMARK  status: ('A' for Active; 'I' for Inactive)
REMARK    1  A    between atoms: C_1  and  C_2
REMARK    2  A    between atoms: C_9  and  C_10
REMARK    3  A    between atoms: C_14  and  C_15
REMARK    4  A    between atoms: N_19  and  C_20
REMARK    5  A    between atoms: C_30  and  O_31
REMARK                            x       y       z     vdW  Elec       q    Type
REMARK                         _______ _______ _______ _____ _____    ______ ____
ROOT
ATOM      1  C   UNL     1       1.655   8.669  18.169  0.00  0.00    +0.000 C 
ATOM      2  C   UNL     1       1.894  10.159  18.233  0.00  0.00    +0.000 C 
ATOM      3  O   UNL     1       2.504  10.727  17.327  0.00  0.00    +0.000 OA
ATOM      4  N   UNL     1       1.369  10.836  19.320  0.00  0.00    +0.000 N 
ATOM      5  C   UNL     1       0.662  10.196  20.446  0.00  0.00    +0.000 C 
ATOM      6  C   UNL     1      -0.838  10.527  20.399  0.00  0.00    +0.000 C 
ATOM      7  C   UNL     1      -0.968  11.992  20.181  0.00  0.00    +0.000 A 
ATOM      8  C   UNL     1       0.027  12.818  19.694  0.00  0.00    +0.000 A 
ATOM      9  C   UNL     1      -0.565  14.117  19.653  0.00  0.00    +0.000 A 
ATOM     10  N   UNL     1      -1.840  14.063  20.087  0.00  0.00    +0.000 NA
ATOM     11  N   UNL     1      -2.072  12.762  20.370  0.00  0.00    +0.000 N 
ATOM     12  C   UNL     1       1.391  12.315  19.325  0.00  0.00    +0.000 C 
ENDROOT
BRANCH  11  13
ATOM     13  C   UNL     1      -3.395  12.306  20.777  0.00  0.00    +0.000 C 
ATOM     14  C   UNL     1      -4.347  12.300  19.613  0.00  0.00    +0.000 A 
ATOM     15  C   UNL     1      -4.229  11.572  18.435  0.00  0.00    +0.000 A 
ATOM     16  C   UNL     1      -5.118  11.847  17.402  0.00  0.00    +0.000 A 
ATOM     17  F   UNL     1      -4.988  11.198  16.239  0.00  0.00    +0.000 F 
ATOM     18  C   UNL     1      -6.118  12.811  17.540  0.00  0.00    +0.000 A 
ATOM     19  C   UNL     1      -6.251  13.505  18.743  0.00  0.00    +0.000 A 
ATOM     20 CL   UNL     1      -7.461  14.717  18.891  0.00  0.00    +0.000 Cl
ATOM     21  C   UNL     1      -5.371  13.236  19.783  0.00  0.00    +0.000 A 
ATOM     22  C   UNL     1      -5.283  13.913  21.118  0.00  0.00    +0.000 C 
ATOM     23  C   UNL     1      -4.066  13.252  21.800  0.00  0.00    +0.000 C 
BRANCH  23  24
ATOM     24  O   UNL     1      -4.478  12.511  22.964  0.00  0.00    +0.000 OA
ATOM     25  H   UNL     1      -5.408  12.246  22.853  0.00  0.00    +0.000 HD
ENDBRANCH  23  24
ENDBRANCH  11  13
BRANCH   9  26
ATOM     26  C   UNL     1       0.011  15.398  19.217  0.00  0.00    +0.000 A 
ATOM     27  C   UNL     1      -0.799  16.474  18.829  0.00  0.00    +0.000 A 
ATOM     28  C   UNL     1      -0.235  17.694  18.441  0.00  0.00    +0.000 A 
ATOM     29  C   UNL     1       1.151  17.851  18.425  0.00  0.00    +0.000 A 
ATOM     30  C   UNL     1       1.973  16.788  18.782  0.00  0.00    +0.000 A 
ATOM     31  C   UNL     1       1.407  15.565  19.177  0.00  0.00    +0.000 A 
BRANCH  30  32
ATOM     32  C   UNL     1       3.404  16.944  18.756  0.00  0.00    +0.000 C 
ATOM     33  N   UNL     1       4.563  17.081  18.744  0.00  0.00    +0.000 NA
ENDBRANCH  30  32
ENDBRANCH   9  26
TORSDOF 4
ENDMDL
MODEL 5
REMARK VINA RESULT:      -6.6      3.196      6.323
REMARK  Name = 
REMARK  5 active torsions:
REMARK  status: ('A' for Active; 'I' for Inactive)
REMARK    1  A    between atoms: C_1  and  C_2
REMARK    2  A    between atoms: C_9  and  C_10
REMARK    3  A    between atoms: C_14  and  C_15
REMARK    4  A    between atoms: N_19  and  C_20
REMARK    5  A    between atoms: C_30  and  O_31
REMARK                            x       y       z     vdW  Elec       q    Type
REMARK                         _______ _______ _______ _____ _____    ______ ____
ROOT
ATOM      1  C   UNL     1       3.173  16.815  19.294  0.00  0.00    +0.000 C 
ATOM      2  C   UNL     1       3.149  15.306  19.275  0.00  0.00    +0.000 C 
ATOM      3  O   UNL     1       4.117  14.666  19.686  0.00  0.00    +0.000 OA
ATOM      4  N   UNL     1       1.993  14.700  18.816  0.00  0.00    +0.000 N 
ATOM      5  C   UNL     1       0.822  15.422  18.282  0.00  0.00    +0.000 C 
ATOM      6  C   UNL     1      -0.357  15.340  19.266  0.00  0.00    +0.000 C 
ATOM      7  C   UNL     1      -0.493  13.922  19.689  0.00  0.00    +0.000 A 
ATOM      8  C   UNL     1       0.487  12.956  19.567  0.00  0.00    +0.000 A 
ATOM      9  C   UNL     1      -0.098  11.771  20.110  0.00  0.00    +0.000 A 
ATOM     10  N   UNL     1      -1.353  12.024  20.533  0.00  0.00    +0.000 NA
ATOM     11  N   UNL     1      -1.558  13.338  20.298  0.00  0.00    +0.000 N 
ATOM     12  C   UNL     1       1.836  13.237  18.974  0.00  0.00    +0.000 C 
ENDROOT
BRANCH  11  13
ATOM     13  C   UNL     1      -2.787  13.995  20.725  0.00  0.00    +0.000 C 
ATOM     14  C   UNL     1      -2.824  14.157  22.219  0.00  0.00    +0.000 A 
ATOM     15  C   UNL     1      -1.924  14.863  23.010  0.00  0.00    +0.000 A 
ATOM     16  C   UNL     1      -2.026  14.737  24.391  0.00  0.00    +0.000 A 
ATOM     17  F   UNL     1      -1.136  15.363  25.170  0.00  0.00    +0.000 F 
ATOM     18  C   UNL     1      -3.010  13.941  24.979  0.00  0.00    +0.000 A 
ATOM     19  C   UNL     1      -3.932  13.271  24.175  0.00  0.00    +0.000 A 
ATOM     20 CL   UNL     1      -5.118  12.264  24.905  0.00  0.00    +0.000 Cl
ATOM     21  C   UNL     1      -3.843  13.393  22.794  0.00  0.00    +0.000 A 
ATOM     22  C   UNL     1      -4.670  12.703  21.750  0.00  0.00    +0.000 C 
ATOM     23  C   UNL     1      -4.051  13.161  20.411  0.00  0.00    +0.000 C 
BRANCH  23  24
ATOM     24  O   UNL     1      -4.993  13.952  19.662  0.00  0.00    +0.000 OA
ATOM     25  H   UNL     1      -5.603  13.354  19.196  0.00  0.00    +0.000 HD
ENDBRANCH  23  24
ENDBRANCH  11  13
BRANCH   9  26
ATOM     26  C   UNL     1       0.472  10.423  20.256  0.00  0.00    +0.000 A 
ATOM     27  C   UNL     1       0.281   9.667  21.420  0.00  0.00    +0.000 A 
ATOM     28  C   UNL     1       0.809   8.375  21.531  0.00  0.00    +0.000 A 
ATOM     29  C   UNL     1       1.546   7.827  20.482  0.00  0.00    +0.000 A 
ATOM     30  C   UNL     1       1.768   8.572  19.328  0.00  0.00    +0.000 A 
ATOM     31  C   UNL     1       1.234   9.865  19.214  0.00  0.00    +0.000 A 
BRANCH  30  32
ATOM     32  C   UNL     1       2.538   8.013  18.248  0.00  0.00    +0.000 C 
ATOM     33  N   UNL     1       3.156   7.570  17.363  0.00  0.00    +0.000 NA
ENDBRANCH  30  32
ENDBRANCH   9  26
TORSDOF 4
ENDMDL
MODEL 6
REMARK VINA RESULT:      -6.6      3.806      6.451
REMARK  Name = 
REMARK  5 active torsions:
REMARK  status: ('A' for Active; 'I' for Inactive)
REMARK    1  A    between atoms: C_1  and  C_2
REMARK    2  A    between atoms: C_9  and  C_10
REMARK    3  A    between atoms: C_14  and  C_15
REMARK    4  A    between atoms: N_19  and  C_20
REMARK    5  A    between atoms: C_30  and  O_31
REMARK                            x       y       z     vdW  Elec       q    Type
REMARK                         _______ _______ _______ _____ _____    ______ ____
ROOT
ATOM      1  C   UNL     1       0.681  17.913  22.525  0.00  0.00    +0.000 C 
ATOM      2  C   UNL     1       1.029  16.450  22.395  0.00  0.00    +0.000 C 
ATOM      3  O   UNL     1       1.765  15.913  23.223  0.00  0.00    +0.000 OA
ATOM      4  N   UNL     1       0.459  15.757  21.342  0.00  0.00    +0.000 N 
ATOM      5  C   UNL     1      -0.400  16.363  20.306  0.00  0.00    +0.000 C 
ATOM      6  C   UNL     1      -1.858  15.909  20.482  0.00  0.00    +0.000 C 
ATOM      7  C   UNL     1      -1.851  14.435  20.666  0.00  0.00    +0.000 A 
ATOM      8  C   UNL     1      -0.753  13.682  21.034  0.00  0.00    +0.000 A 
ATOM      9  C   UNL     1      -1.233  12.338  21.091  0.00  0.00    +0.000 A 
ATOM     10  N   UNL     1      -2.544  12.299  20.778  0.00  0.00    +0.000 NA
ATOM     11  N   UNL     1      -2.904  13.582  20.557  0.00  0.00    +0.000 N 
ATOM     12  C   UNL     1       0.596  14.285  21.290  0.00  0.00    +0.000 C 
ENDROOT
BRANCH  11  13
ATOM     13  C   UNL     1      -4.291  13.938  20.289  0.00  0.00    +0.000 C 
ATOM     14  C   UNL     1      -5.052  14.156  21.567  0.00  0.00    +0.000 A 
ATOM     15  C   UNL     1      -4.782  15.096  22.555  0.00  0.00    +0.000 A 
ATOM     16  C   UNL     1      -5.490  15.013  23.749  0.00  0.00    +0.000 A 
ATOM     17  F   UNL     1      -5.208  15.874  24.735  0.00  0.00    +0.000 F 
ATOM     18  C   UNL     1      -6.459  14.030  23.955  0.00  0.00    +0.000 A 
ATOM     19  C   UNL     1      -6.748  13.118  22.940  0.00  0.00    +0.000 A 
ATOM     20 CL   UNL     1      -7.916  11.888  23.214  0.00  0.00    +0.000 Cl
ATOM     21  C   UNL     1      -6.050  13.193  21.741  0.00  0.00    +0.000 A 
ATOM     22  C   UNL     1      -6.143  12.275  20.559  0.00  0.00    +0.000 C 
ATOM     23  C   UNL     1      -5.073  12.807  19.580  0.00  0.00    +0.000 C 
BRANCH  23  24
ATOM     24  O   UNL     1      -5.690  13.309  18.379  0.00  0.00    +0.000 OA
ATOM     25  H   UNL     1      -6.557  13.686  18.607  0.00  0.00    +0.000 HD
ENDBRANCH  23  24
ENDBRANCH  11  13
BRANCH   9  26
ATOM     26  C   UNL     1      -0.520  11.098  21.433  0.00  0.00    +0.000 A 
ATOM     27  C   UNL     1      -0.537  10.575  22.733  0.00  0.00    +0.000 A 
ATOM     28  C   UNL     1       0.127   9.381  23.035  0.00  0.00    +0.000 A 
ATOM     29  C   UNL     1       0.827   8.698  22.040  0.00  0.00    +0.000 A 
ATOM     30  C   UNL     1       0.876   9.214  20.749  0.00  0.00    +0.000 A 
ATOM     31  C   UNL     1       0.207  10.409  20.445  0.00  0.00    +0.000 A 
BRANCH  30  32
ATOM     32  C   UNL     1       1.608   8.517  19.724  0.00  0.00    +0.000 C 
ATOM     33  N   UNL     1       2.188   7.948  18.886  0.00  0.00    +0.000 NA
ENDBRANCH  30  32
ENDBRANCH   9  26
TORSDOF 4
ENDMDL
MODEL 7
REMARK VINA RESULT:      -6.5      3.411      6.951
REMARK  Name = 
REMARK  5 active torsions:
REMARK  status: ('A' for Active; 'I' for Inactive)
REMARK    1  A    between atoms: C_1  and  C_2
REMARK    2  A    between atoms: C_9  and  C_10
REMARK    3  A    between atoms: C_14  and  C_15
REMARK    4  A    between atoms: N_19  and  C_20
REMARK    5  A    between atoms: C_30  and  O_31
REMARK                            x       y       z     vdW  Elec       q    Type
REMARK                         _______ _______ _______ _____ _____    ______ ____
ROOT
ATOM      1  C   UNL     1      -4.168  11.646  15.763  0.00  0.00    +0.000 C 
ATOM      2  C   UNL     1      -3.135  10.594  16.087  0.00  0.00    +0.000 C 
ATOM      3  O   UNL     1      -2.591   9.962  15.182  0.00  0.00    +0.000 OA
ATOM      4  N   UNL     1      -2.817  10.414  17.421  0.00  0.00    +0.000 N 
ATOM      5  C   UNL     1      -3.466  11.121  18.542  0.00  0.00    +0.000 C 
ATOM      6  C   UNL     1      -2.499  12.138  19.169  0.00  0.00    +0.000 C 
ATOM      7  C   UNL     1      -1.199  11.450  19.383  0.00  0.00    +0.000 A 
ATOM      8  C   UNL     1      -0.803  10.281  18.762  0.00  0.00    +0.000 A 
ATOM      9  C   UNL     1       0.505  10.020  19.273  0.00  0.00    +0.000 A 
ATOM     10  N   UNL     1       0.865  10.983  20.145  0.00  0.00    +0.000 NA
ATOM     11  N   UNL     1      -0.168  11.854  20.171  0.00  0.00    +0.000 N 
ATOM     12  C   UNL     1      -1.668   9.553  17.777  0.00  0.00    +0.000 C 
ENDROOT
BRANCH  11  13
ATOM     13  C   UNL     1      -0.089  13.090  20.940  0.00  0.00    +0.000 C 
ATOM     14  C   UNL     1      -1.316  13.278  21.789  0.00  0.00    +0.000 A 
ATOM     15  C   UNL     1      -1.779  12.437  22.793  0.00  0.00    +0.000 A 
ATOM     16  C   UNL     1      -3.034  12.691  23.335  0.00  0.00    +0.000 A 
ATOM     17  F   UNL     1      -3.523  11.861  24.264  0.00  0.00    +0.000 F 
ATOM     18  C   UNL     1      -3.809  13.768  22.903  0.00  0.00    +0.000 A 
ATOM     19  C   UNL     1      -3.314  14.629  21.923  0.00  0.00    +0.000 A 
ATOM     20 CL   UNL     1      -4.290  15.932  21.370  0.00  0.00    +0.000 Cl
ATOM     21  C   UNL     1      -2.060  14.388  21.377  0.00  0.00    +0.000 A 
ATOM     22  C   UNL     1      -1.376  15.130  20.268  0.00  0.00    +0.000 C 
ATOM     23  C   UNL     1      -0.061  14.351  20.044  0.00  0.00    +0.000 C 
BRANCH  23  24
ATOM     24  O   UNL     1       1.076  15.170  20.377  0.00  0.00    +0.000 OA
ATOM     25  H   UNL     1       1.888  14.669  20.189  0.00  0.00    +0.000 HD
ENDBRANCH  23  24
ENDBRANCH  11  13
BRANCH   9  26
ATOM     26  C   UNL     1       1.429   8.916  18.971  0.00  0.00    +0.000 A 
ATOM     27  C   UNL     1       2.292   8.961  17.869  0.00  0.00    +0.000 A 
ATOM     28  C   UNL     1       3.183   7.912  17.611  0.00  0.00    +0.000 A 
ATOM     29  C   UNL     1       3.213   6.798  18.449  0.00  0.00    +0.000 A 
ATOM     30  C   UNL     1       2.346   6.723  19.535  0.00  0.00    +0.000 A 
ATOM     31  C   UNL     1       1.457   7.777  19.796  0.00  0.00    +0.000 A 
BRANCH  30  32
ATOM     32  C   UNL     1       2.368   5.569  20.395  0.00  0.00    +0.000 C 
ATOM     33  N   UNL     1       2.384   4.624  21.080  0.00  0.00    +0.000 NA
ENDBRANCH  30  32
ENDBRANCH   9  26
TORSDOF 4
ENDMDL
MODEL 8
REMARK VINA RESULT:      -6.5      1.212      1.249
REMARK  Name = 
REMARK  5 active torsions:
REMARK  status: ('A' for Active; 'I' for Inactive)
REMARK    1  A    between atoms: C_1  and  C_2
REMARK    2  A    between atoms: C_9  and  C_10
REMARK    3  A    between atoms: C_14  and  C_15
REMARK    4  A    between atoms: N_19  and  C_20
REMARK    5  A    between atoms: C_30  and  O_31
REMARK                            x       y       z     vdW  Elec       q    Type
REMARK                         _______ _______ _______ _____ _____    ______ ____
ROOT
ATOM      1  C   UNL     1      -2.573  15.463  24.682  0.00  0.00    +0.000 C 
ATOM      2  C   UNL     1      -1.501  15.963  23.743  0.00  0.00    +0.000 C 
ATOM      3  O   UNL     1      -0.538  16.591  24.183  0.00  0.00    +0.000 OA
ATOM      4  N   UNL     1      -1.641  15.651  22.403  0.00  0.00    +0.000 N 
ATOM      5  C   UNL     1      -2.793  14.933  21.824  0.00  0.00    +0.000 C 
ATOM      6  C   UNL     1      -2.382  13.515  21.395  0.00  0.00    +0.000 C 
ATOM      7  C   UNL     1      -1.118  13.627  20.623  0.00  0.00    +0.000 A 
ATOM      8  C   UNL     1      -0.260  14.710  20.648  0.00  0.00    +0.000 A 
ATOM      9  C   UNL     1       0.805  14.354  19.765  0.00  0.00    +0.000 A 
ATOM     10  N   UNL     1       0.592  13.127  19.249  0.00  0.00    +0.000 NA
ATOM     11  N   UNL     1      -0.560  12.693  19.807  0.00  0.00    +0.000 N 
ATOM     12  C   UNL     1      -0.521  15.932  21.478  0.00  0.00    +0.000 C 
ENDROOT
BRANCH  11  13
ATOM     13  C   UNL     1      -1.056  11.346  19.556  0.00  0.00    +0.000 C 
ATOM     14  C   UNL     1      -0.416  10.351  20.483  0.00  0.00    +0.000 A 
ATOM     15  C   UNL     1      -0.476  10.339  21.872  0.00  0.00    +0.000 A 
ATOM     16  C   UNL     1       0.338   9.442  22.555  0.00  0.00    +0.000 A 
ATOM     17  F   UNL     1       0.339   9.451  23.894  0.00  0.00    +0.000 F 
ATOM     18  C   UNL     1       1.182   8.562  21.877  0.00  0.00    +0.000 A 
ATOM     19  C   UNL     1       1.201   8.556  20.482  0.00  0.00    +0.000 A 
ATOM     20 CL   UNL     1       2.270   7.495  19.654  0.00  0.00    +0.000 Cl
ATOM     21  C   UNL     1       0.389   9.445  19.788  0.00  0.00    +0.000 A 
ATOM     22  C   UNL     1       0.312   9.662  18.307  0.00  0.00    +0.000 C 
ATOM     23  C   UNL     1      -0.689  10.827  18.145  0.00  0.00    +0.000 C 
BRANCH  23  24
ATOM     24  O   UNL     1      -1.874  10.385  17.456  0.00  0.00    +0.000 OA
ATOM     25  H   UNL     1      -2.547  10.141  18.115  0.00  0.00    +0.000 HD
ENDBRANCH  23  24
ENDBRANCH  11  13
BRANCH   9  26
ATOM     26  C   UNL     1       2.011  15.110  19.395  0.00  0.00    +0.000 A 
ATOM     27  C   UNL     1       1.988  16.083  18.387  0.00  0.00    +0.000 A 
ATOM     28  C   UNL     1       3.140  16.810  18.065  0.00  0.00    +0.000 A 
ATOM     29  C   UNL     1       4.334  16.566  18.742  0.00  0.00    +0.000 A 
ATOM     30  C   UNL     1       4.383  15.587  19.728  0.00  0.00    +0.000 A 
ATOM     31  C   UNL     1       3.228  14.860  20.055  0.00  0.00    +0.000 A 
BRANCH  30  32
ATOM     32  C   UNL     1       5.618  15.324  20.421  0.00  0.00    +0.000 C 
ATOM     33  N   UNL     1       6.613  15.115  20.995  0.00  0.00    +0.000 NA
ENDBRANCH  30  32
ENDBRANCH   9  26
TORSDOF 4
ENDMDL
MODEL 9
REMARK VINA RESULT:      -6.4      5.907      9.367
REMARK  Name = 
REMARK  5 active torsions:
REMARK  status: ('A' for Active; 'I' for Inactive)
REMARK    1  A    between atoms: C_1  and  C_2
REMARK    2  A    between atoms: C_9  and  C_10
REMARK    3  A    between atoms: C_14  and  C_15
REMARK    4  A    between atoms: N_19  and  C_20
REMARK    5  A    between atoms: C_30  and  O_31
REMARK                            x       y       z     vdW  Elec       q    Type
REMARK                         _______ _______ _______ _____ _____    ______ ____
ROOT
ATOM      1  C   UNL     1       2.564   1.372  21.597  0.00  0.00    +0.000 C 
ATOM      2  C   UNL     1       1.859   2.703  21.496  0.00  0.00    +0.000 C 
ATOM      3  O   UNL     1       1.418   3.248  22.508  0.00  0.00    +0.000 OA
ATOM      4  N   UNL     1       1.773   3.277  20.240  0.00  0.00    +0.000 N 
ATOM      5  C   UNL     1       2.254   2.648  18.995  0.00  0.00    +0.000 C 
ATOM      6  C   UNL     1       3.507   3.372  18.475  0.00  0.00    +0.000 C 
ATOM      7  C   UNL     1       3.229   4.831  18.506  0.00  0.00    +0.000 A 
ATOM      8  C   UNL     1       2.230   5.438  19.244  0.00  0.00    +0.000 A 
ATOM      9  C   UNL     1       2.361   6.832  18.960  0.00  0.00    +0.000 A 
ATOM     10  N   UNL     1       3.383   7.039  18.105  0.00  0.00    +0.000 NA
ATOM     11  N   UNL     1       3.913   5.819  17.871  0.00  0.00    +0.000 N 
ATOM     12  C   UNL     1       1.285   4.668  20.117  0.00  0.00    +0.000 C 
ENDROOT
BRANCH  11  13
ATOM     13  C   UNL     1       5.114   5.665  17.059  0.00  0.00    +0.000 C 
ATOM     14  C   UNL     1       6.351   5.954  17.862  0.00  0.00    +0.000 A 
ATOM     15  C   UNL     1       6.785   5.292  19.004  0.00  0.00    +0.000 A 
ATOM     16  C   UNL     1       7.856   5.832  19.708  0.00  0.00    +0.000 A 
ATOM     17  F   UNL     1       8.256   5.242  20.841  0.00  0.00    +0.000 F 
ATOM     18  C   UNL     1       8.498   6.995  19.279  0.00  0.00    +0.000 A 
ATOM     19  C   UNL     1       8.078   7.627  18.108  0.00  0.00    +0.000 A 
ATOM     20 CL   UNL     1       8.848   9.079  17.607  0.00  0.00    +0.000 Cl
ATOM     21  C   UNL     1       7.011   7.095  17.394  0.00  0.00    +0.000 A 
ATOM     22  C   UNL     1       6.352   7.650  16.168  0.00  0.00    +0.000 C 
ATOM     23  C   UNL     1       5.182   6.679  15.893  0.00  0.00    +0.000 C 
BRANCH  23  24
ATOM     24  O   UNL     1       5.381   5.987  14.645  0.00  0.00    +0.000 OA
ATOM     25  H   UNL     1       6.326   6.015  14.419  0.00  0.00    +0.000 HD
ENDBRANCH  23  24
ENDBRANCH  11  13
BRANCH   9  26
ATOM     26  C   UNL     1       1.578   7.971  19.462  0.00  0.00    +0.000 A 
ATOM     27  C   UNL     1       0.991   8.900  18.592  0.00  0.00    +0.000 A 
ATOM     28  C   UNL     1       0.228   9.964  19.086  0.00  0.00    +0.000 A 
ATOM     29  C   UNL     1       0.050  10.119  20.460  0.00  0.00    +0.000 A 
ATOM     30  C   UNL     1       0.645   9.222  21.341  0.00  0.00    +0.000 A 
ATOM     31  C   UNL     1       1.406   8.152  20.847  0.00  0.00    +0.000 A 
BRANCH  30  32
ATOM     32  C   UNL     1       0.473   9.386  22.761  0.00  0.00    +0.000 C 
ATOM     33  N   UNL     1       0.347   9.515  23.915  0.00  0.00    +0.000 NA
ENDBRANCH  30  32
ENDBRANCH   9  26
TORSDOF 4
ENDMDL
