MODEL 1
REMARK VINA RESULT:      -8.2      0.000      0.000
REMARK  Name = 
REMARK  6 active torsions:
REMARK  status: ('A' for Active; 'I' for Inactive)
REMARK    1  A    between atoms: C_1  and  C_2
REMARK    2  A    between atoms: C_3  and  C_4
REMARK    3  A    between atoms: C_6  and  C_7
REMARK    4  A    between atoms: C_13  and  C_14
REMARK    5  A    between atoms: C_16  and  N_17
REMARK    6  A    between atoms: N_25  and  C_26
REMARK                            x       y       z     vdW  Elec       q    Type
REMARK                         _______ _______ _______ _____ _____    ______ ____
ROOT
ATOM      1  C   UNL     1       2.111   7.230  19.660  0.00  0.00    +0.000 A 
ATOM      2  C   UNL     1       2.903   6.932  18.555  0.00  0.00    +0.000 A 
ATOM      3  C   UNL     1       3.469   5.652  18.393  0.00  0.00    +0.000 A 
ATOM      4  C   UNL     1       3.129   4.706  19.390  0.00  0.00    +0.000 A 
ATOM      5  C   UNL     1       2.340   5.096  20.485  0.00  0.00    +0.000 A 
ATOM      6  N   UNL     1       1.853   6.330  20.625  0.00  0.00    +0.000 NA
ENDROOT
BRANCH   1   9
ATOM      7  C   UNL     1       2.039   9.596  17.494  0.00  0.00    +0.000 C 
ATOM      8  C   UNL     1       1.499   9.554  18.890  0.00  0.00    +0.000 A 
ATOM      9  C   UNL     1       1.532   8.552  19.858  0.00  0.00    +0.000 A 
ATOM     10  C   UNL     1       0.846   9.048  21.012  0.00  0.00    +0.000 A 
ATOM     11  C   UNL     1       0.537   8.495  22.275  0.00  0.00    +0.000 A 
ATOM     12  C   UNL     1      -0.182   9.236  23.210  0.00  0.00    +0.000 A 
ATOM     13  C   UNL     1      -0.616  10.514  22.896  0.00  0.00    +0.000 A 
ATOM     14  C   UNL     1      -0.340  11.085  21.649  0.00  0.00    +0.000 A 
ATOM     15  C   UNL     1       0.398  10.336  20.717  0.00  0.00    +0.000 A 
ATOM     16  N   UNL     1       0.803  10.619  19.429  0.00  0.00    +0.000 N 
ATOM     17  C   UNL     1       0.511  11.844  18.713  0.00  0.00    +0.000 C 
ENDBRANCH   1   9
BRANCH   3  18
ATOM     18  C   UNL     1       4.282   5.431  17.107  0.00  0.00    +0.000 C 
ATOM     19  C   UNL     1       5.322   4.309  17.119  0.00  0.00    +0.000 C 
ATOM     20  C   UNL     1       6.615   4.704  17.828  0.00  0.00    +0.000 C 
ATOM     21  N   UNL     1       7.188   5.967  17.368  0.00  0.00    +0.000 NA
ATOM     22  C   UNL     1       6.245   7.075  17.240  0.00  0.00    +0.000 C 
ATOM     23  C   UNL     1       4.954   6.697  16.522  0.00  0.00    +0.000 C 
ATOM     24  H   UNL     1       7.652   5.811  16.475  0.00  0.00    +0.000 HD
ENDBRANCH   3  18
BRANCH   5  25
ATOM     25  N   UNL     1       1.910   4.192  21.453  0.00  0.00    +0.000 N 
ATOM     26  H   UNL     1       1.029   3.731  21.245  0.00  0.00    +0.000 HD
ATOM     27  H   UNL     1       2.664   3.541  21.654  0.00  0.00    +0.000 HD
ENDBRANCH   5  25
BRANCH   4  28
ATOM     28  C   UNL     1       3.533   3.327  19.449  0.00  0.00    +0.000 C 
ATOM     29  N   UNL     1       3.784   2.216  19.608  0.00  0.00    +0.000 NA
ENDBRANCH   4  28
TORSDOF 4
ENDMDL
MODEL 2
REMARK VINA RESULT:      -8.0      0.828      1.384
REMARK  Name = 
REMARK  6 active torsions:
REMARK  status: ('A' for Active; 'I' for Inactive)
REMARK    1  A    between atoms: C_1  and  C_2
REMARK    2  A    between atoms: C_3  and  C_4
REMARK    3  A    between atoms: C_6  and  C_7
REMARK    4  A    between atoms: C_13  and  C_14
REMARK    5  A    between atoms: C_16  and  N_17
REMARK    6  A    between atoms: N_25  and  C_26
REMARK                            x       y       z     vdW  Elec       q    Type
REMARK                         _______ _______ _______ _____ _____    ______ ____
ROOT
ATOM      1  C   UNL     1       2.076   7.091  19.919  0.00  0.00    +0.000 A 
ATOM      2  C   UNL     1       3.328   6.885  19.346  0.00  0.00    +0.000 A 
ATOM      3  C   UNL     1       3.898   5.597  19.292  0.00  0.00    +0.000 A 
ATOM      4  C   UNL     1       3.089   4.554  19.803  0.00  0.00    +0.000 A 
ATOM      5  C   UNL     1       1.845   4.852  20.384  0.00  0.00    +0.000 A 
ATOM      6  N   UNL     1       1.355   6.091  20.453  0.00  0.00    +0.000 NA
ENDROOT
BRANCH   1   9
ATOM      7  C   UNL     1       1.901   9.233  17.536  0.00  0.00    +0.000 C 
ATOM      8  C   UNL     1       1.399   9.319  18.943  0.00  0.00    +0.000 A 
ATOM      9  C   UNL     1       1.478   8.417  20.003  0.00  0.00    +0.000 A 
ATOM     10  C   UNL     1       0.813   9.012  21.122  0.00  0.00    +0.000 A 
ATOM     11  C   UNL     1       0.549   8.580  22.441  0.00  0.00    +0.000 A 
ATOM     12  C   UNL     1      -0.159   9.397  23.320  0.00  0.00    +0.000 A 
ATOM     13  C   UNL     1      -0.625  10.631  22.895  0.00  0.00    +0.000 A 
ATOM     14  C   UNL     1      -0.394  11.081  21.591  0.00  0.00    +0.000 A 
ATOM     15  C   UNL     1       0.333  10.257  20.716  0.00  0.00    +0.000 A 
ATOM     16  N   UNL     1       0.699  10.420  19.395  0.00  0.00    +0.000 N 
ATOM     17  C   UNL     1       0.364  11.564  18.572  0.00  0.00    +0.000 C 
ENDBRANCH   1   9
BRANCH   3  18
ATOM     18  C   UNL     1       5.260   5.490  18.590  0.00  0.00    +0.000 C 
ATOM     19  C   UNL     1       5.676   6.652  17.686  0.00  0.00    +0.000 C 
ATOM     20  C   UNL     1       5.005   6.608  16.315  0.00  0.00    +0.000 C 
ATOM     21  N   UNL     1       5.123   5.322  15.631  0.00  0.00    +0.000 NA
ATOM     22  C   UNL     1       4.830   4.148  16.449  0.00  0.00    +0.000 C 
ATOM     23  C   UNL     1       5.505   4.172  17.815  0.00  0.00    +0.000 C 
ATOM     24  H   UNL     1       6.061   5.241  15.244  0.00  0.00    +0.000 HD
ENDBRANCH   3  18
BRANCH   5  25
ATOM     25  N   UNL     1       0.975   3.861  20.832  0.00  0.00    +0.000 N 
ATOM     26  H   UNL     1       1.043   3.650  21.823  0.00  0.00    +0.000 HD
ATOM     27  H   UNL     1       0.031   4.092  20.537  0.00  0.00    +0.000 HD
ENDBRANCH   5  25
BRANCH   4  28
ATOM     28  C   UNL     1       3.405   3.150  19.837  0.00  0.00    +0.000 C 
ATOM     29  N   UNL     1       3.590   2.019  19.748  0.00  0.00    +0.000 NA
ENDBRANCH   4  28
TORSDOF 4
ENDMDL
MODEL 3
REMARK VINA RESULT:      -7.9      1.614      4.354
REMARK  Name = 
REMARK  6 active torsions:
REMARK  status: ('A' for Active; 'I' for Inactive)
REMARK    1  A    between atoms: C_1  and  C_2
REMARK    2  A    between atoms: C_3  and  C_4
REMARK    3  A    between atoms: C_6  and  C_7
REMARK    4  A    between atoms: C_13  and  C_14
REMARK    5  A    between atoms: C_16  and  N_17
REMARK    6  A    between atoms: N_25  and  C_26
REMARK                            x       y       z     vdW  Elec       q    Type
REMARK                         _______ _______ _______ _____ _____    ______ ____
ROOT
ATOM      1  C   UNL     1       3.063   6.579  18.300  0.00  0.00    +0.000 A 
ATOM      2  C   UNL     1       2.944   5.199  18.447  0.00  0.00    +0.000 A 
ATOM      3  C   UNL     1       3.730   4.317  17.680  0.00  0.00    +0.000 A 
ATOM      4  C   UNL     1       4.663   4.934  16.812  0.00  0.00    +0.000 A 
ATOM      5  C   UNL     1       4.704   6.334  16.708  0.00  0.00    +0.000 A 
ATOM      6  N   UNL     1       3.915   7.137  17.423  0.00  0.00    +0.000 NA
ENDROOT
BRANCH   1   9
ATOM      7  C   UNL     1       1.552   5.924  21.053  0.00  0.00    +0.000 C 
ATOM      8  C   UNL     1       1.617   7.199  20.273  0.00  0.00    +0.000 A 
ATOM      9  C   UNL     1       2.246   7.508  19.068  0.00  0.00    +0.000 A 
ATOM     10  C   UNL     1       1.992   8.889  18.793  0.00  0.00    +0.000 A 
ATOM     11  C   UNL     1       2.380   9.764  17.754  0.00  0.00    +0.000 A 
ATOM     12  C   UNL     1       1.981  11.099  17.772  0.00  0.00    +0.000 A 
ATOM     13  C   UNL     1       1.217  11.579  18.824  0.00  0.00    +0.000 A 
ATOM     14  C   UNL     1       0.830  10.743  19.877  0.00  0.00    +0.000 A 
ATOM     15  C   UNL     1       1.224   9.395  19.842  0.00  0.00    +0.000 A 
ATOM     16  N   UNL     1       1.012   8.356  20.725  0.00  0.00    +0.000 N 
ATOM     17  C   UNL     1       0.290   8.459  21.978  0.00  0.00    +0.000 C 
ENDBRANCH   1   9
BRANCH   3  18
ATOM     18  C   UNL     1       3.543   2.820  17.971  0.00  0.00    +0.000 C 
ATOM     19  C   UNL     1       2.139   2.240  17.788  0.00  0.00    +0.000 C 
ATOM     20  C   UNL     1       1.211   2.548  18.961  0.00  0.00    +0.000 C 
ATOM     21  N   UNL     1       1.768   2.213  20.270  0.00  0.00    +0.000 NA
ATOM     22  C   UNL     1       3.143   2.652  20.498  0.00  0.00    +0.000 C 
ATOM     23  C   UNL     1       4.083   2.338  19.340  0.00  0.00    +0.000 C 
ATOM     24  H   UNL     1       1.707   1.206  20.404  0.00  0.00    +0.000 HD
ENDBRANCH   3  18
BRANCH   5  25
ATOM     25  N   UNL     1       5.651   6.996  15.930  0.00  0.00    +0.000 N 
ATOM     26  H   UNL     1       5.270   7.516  15.145  0.00  0.00    +0.000 HD
ATOM     27  H   UNL     1       6.238   7.562  16.537  0.00  0.00    +0.000 HD
ENDBRANCH   5  25
BRANCH   4  28
ATOM     28  C   UNL     1       5.609   4.276  15.950  0.00  0.00    +0.000 C 
ATOM     29  N   UNL     1       6.346   3.853  15.176  0.00  0.00    +0.000 NA
ENDBRANCH   4  28
TORSDOF 4
ENDMDL
MODEL 4
REMARK VINA RESULT:      -7.7      1.850      7.360
REMARK  Name = 
REMARK  6 active torsions:
REMARK  status: ('A' for Active; 'I' for Inactive)
REMARK    1  A    between atoms: C_1  and  C_2
REMARK    2  A    between atoms: C_3  and  C_4
REMARK    3  A    between atoms: C_6  and  C_7
REMARK    4  A    between atoms: C_13  and  C_14
REMARK    5  A    between atoms: C_16  and  N_17
REMARK    6  A    between atoms: N_25  and  C_26
REMARK                            x       y       z     vdW  Elec       q    Type
REMARK                         _______ _______ _______ _____ _____    ______ ____
ROOT
ATOM      1  C   UNL     1       1.864   7.570  19.552  0.00  0.00    +0.000 A 
ATOM      2  C   UNL     1       1.232   8.488  18.717  0.00  0.00    +0.000 A 
ATOM      3  C   UNL     1       0.644   9.657  19.237  0.00  0.00    +0.000 A 
ATOM      4  C   UNL     1       0.793   9.843  20.633  0.00  0.00    +0.000 A 
ATOM      5  C   UNL     1       1.427   8.856  21.407  0.00  0.00    +0.000 A 
ATOM      6  N   UNL     1       1.938   7.742  20.883  0.00  0.00    +0.000 NA
ENDROOT
BRANCH   1   9
ATOM      7  C   UNL     1       1.105   4.584  20.447  0.00  0.00    +0.000 C 
ATOM      8  C   UNL     1       2.096   5.060  19.432  0.00  0.00    +0.000 A 
ATOM      9  C   UNL     1       2.462   6.346  19.037  0.00  0.00    +0.000 A 
ATOM     10  C   UNL     1       3.453   6.215  18.013  0.00  0.00    +0.000 A 
ATOM     11  C   UNL     1       4.168   7.143  17.225  0.00  0.00    +0.000 A 
ATOM     12  C   UNL     1       5.078   6.698  16.268  0.00  0.00    +0.000 A 
ATOM     13  C   UNL     1       5.270   5.340  16.071  0.00  0.00    +0.000 A 
ATOM     14  C   UNL     1       4.565   4.395  16.824  0.00  0.00    +0.000 A 
ATOM     15  C   UNL     1       3.660   4.852  17.797  0.00  0.00    +0.000 A 
ATOM     16  N   UNL     1       2.828   4.174  18.666  0.00  0.00    +0.000 N 
ATOM     17  C   UNL     1       2.700   2.733  18.744  0.00  0.00    +0.000 C 
ENDBRANCH   1   9
BRANCH   3  18
ATOM     18  C   UNL     1       0.022  10.615  18.209  0.00  0.00    +0.000 C 
ATOM     19  C   UNL     1      -0.560  11.928  18.737  0.00  0.00    +0.000 C 
ATOM     20  C   UNL     1      -1.942  11.757  19.363  0.00  0.00    +0.000 C 
ATOM     21  N   UNL     1      -2.898  11.043  18.518  0.00  0.00    +0.000 NA
ATOM     22  C   UNL     1      -2.395   9.820  17.898  0.00  0.00    +0.000 C 
ATOM     23  C   UNL     1      -1.021   9.981  17.257  0.00  0.00    +0.000 C 
ATOM     24  H   UNL     1      -3.234  11.677  17.796  0.00  0.00    +0.000 HD
ENDBRANCH   3  18
BRANCH   5  25
ATOM     25  N   UNL     1       1.670   9.020  22.769  0.00  0.00    +0.000 N 
ATOM     26  H   UNL     1       0.842   9.001  23.355  0.00  0.00    +0.000 HD
ATOM     27  H   UNL     1       2.380   8.354  23.059  0.00  0.00    +0.000 HD
ENDBRANCH   5  25
BRANCH   4  28
ATOM     28  C   UNL     1       0.327  10.958  21.413  0.00  0.00    +0.000 C 
ATOM     29  N   UNL     1       0.007  11.787  22.142  0.00  0.00    +0.000 NA
ENDBRANCH   4  28
TORSDOF 4
ENDMDL
MODEL 5
REMARK VINA RESULT:      -7.6      1.998      7.027
REMARK  Name = 
REMARK  6 active torsions:
REMARK  status: ('A' for Active; 'I' for Inactive)
REMARK    1  A    between atoms: C_1  and  C_2
REMARK    2  A    between atoms: C_3  and  C_4
REMARK    3  A    between atoms: C_6  and  C_7
REMARK    4  A    between atoms: C_13  and  C_14
REMARK    5  A    between atoms: C_16  and  N_17
REMARK    6  A    between atoms: N_25  and  C_26
REMARK                            x       y       z     vdW  Elec       q    Type
REMARK                         _______ _______ _______ _____ _____    ______ ____
ROOT
ATOM      1  C   UNL     1       1.755   7.642  19.573  0.00  0.00    +0.000 A 
ATOM      2  C   UNL     1       1.123   8.561  18.740  0.00  0.00    +0.000 A 
ATOM      3  C   UNL     1       0.564   9.745  19.259  0.00  0.00    +0.000 A 
ATOM      4  C   UNL     1       0.742   9.942  20.650  0.00  0.00    +0.000 A 
ATOM      5  C   UNL     1       1.374   8.953  21.422  0.00  0.00    +0.000 A 
ATOM      6  N   UNL     1       1.857   7.825  20.900  0.00  0.00    +0.000 NA
ENDROOT
BRANCH   1   9
ATOM      7  C   UNL     1       4.040   7.403  17.333  0.00  0.00    +0.000 C 
ATOM      8  C   UNL     1       3.329   6.331  18.098  0.00  0.00    +0.000 A 
ATOM      9  C   UNL     1       2.322   6.402  19.059  0.00  0.00    +0.000 A 
ATOM     10  C   UNL     1       2.025   5.064  19.470  0.00  0.00    +0.000 A 
ATOM     11  C   UNL     1       1.133   4.509  20.414  0.00  0.00    +0.000 A 
ATOM     12  C   UNL     1       1.084   3.130  20.609  0.00  0.00    +0.000 A 
ATOM     13  C   UNL     1       1.928   2.298  19.892  0.00  0.00    +0.000 A 
ATOM     14  C   UNL     1       2.835   2.817  18.961  0.00  0.00    +0.000 A 
ATOM     15  C   UNL     1       2.867   4.207  18.760  0.00  0.00    +0.000 A 
ATOM     16  N   UNL     1       3.647   4.996  17.938  0.00  0.00    +0.000 N 
ATOM     17  C   UNL     1       4.687   4.508  17.055  0.00  0.00    +0.000 C 
ENDBRANCH   1   9
BRANCH   3  18
ATOM     18  C   UNL     1      -0.061  10.704  18.234  0.00  0.00    +0.000 C 
ATOM     19  C   UNL     1      -0.683  11.995  18.769  0.00  0.00    +0.000 C 
ATOM     20  C   UNL     1      -2.073  11.782  19.365  0.00  0.00    +0.000 C 
ATOM     21  N   UNL     1      -2.995  11.059  18.492  0.00  0.00    +0.000 NA
ATOM     22  C   UNL     1      -2.452   9.857  17.864  0.00  0.00    +0.000 C 
ATOM     23  C   UNL     1      -1.070  10.060  17.252  0.00  0.00    +0.000 C 
ATOM     24  H   UNL     1      -3.332  11.695  17.773  0.00  0.00    +0.000 HD
ENDBRANCH   3  18
BRANCH   5  25
ATOM     25  N   UNL     1       1.646   9.126  22.778  0.00  0.00    +0.000 N 
ATOM     26  H   UNL     1       1.804  10.088  23.061  0.00  0.00    +0.000 HD
ATOM     27  H   UNL     1       0.922   8.663  23.320  0.00  0.00    +0.000 HD
ENDBRANCH   5  25
BRANCH   4  28
ATOM     28  C   UNL     1       0.310  11.073  21.427  0.00  0.00    +0.000 C 
ATOM     29  N   UNL     1       0.019  11.915  22.154  0.00  0.00    +0.000 NA
ENDBRANCH   4  28
TORSDOF 4
ENDMDL
MODEL 6
REMARK VINA RESULT:      -7.5      1.550      3.335
REMARK  Name = 
REMARK  6 active torsions:
REMARK  status: ('A' for Active; 'I' for Inactive)
REMARK    1  A    between atoms: C_1  and  C_2
REMARK    2  A    between atoms: C_3  and  C_4
REMARK    3  A    between atoms: C_6  and  C_7
REMARK    4  A    between atoms: C_13  and  C_14
REMARK    5  A    between atoms: C_16  and  N_17
REMARK    6  A    between atoms: N_25  and  C_26
REMARK                            x       y       z     vdW  Elec       q    Type
REMARK                         _______ _______ _______ _____ _____    ______ ____
ROOT
ATOM      1  C   UNL     1       2.040   7.639  19.432  0.00  0.00    +0.000 A 
ATOM      2  C   UNL     1       1.950   6.409  20.079  0.00  0.00    +0.000 A 
ATOM      3  C   UNL     1       2.820   5.351  19.749  0.00  0.00    +0.000 A 
ATOM      4  C   UNL     1       3.800   5.652  18.773  0.00  0.00    +0.000 A 
ATOM      5  C   UNL     1       3.808   6.913  18.153  0.00  0.00    +0.000 A 
ATOM      6  N   UNL     1       2.941   7.878  18.465  0.00  0.00    +0.000 NA
ENDROOT
BRANCH   1   9
ATOM      7  C   UNL     1       0.567   9.527  17.297  0.00  0.00    +0.000 C 
ATOM      8  C   UNL     1       0.497   9.530  18.792  0.00  0.00    +0.000 A 
ATOM      9  C   UNL     1       1.138   8.739  19.743  0.00  0.00    +0.000 A 
ATOM     10  C   UNL     1       0.689   9.169  21.032  0.00  0.00    +0.000 A 
ATOM     11  C   UNL     1       0.958   8.741  22.351  0.00  0.00    +0.000 A 
ATOM     12  C   UNL     1       0.334   9.361  23.432  0.00  0.00    +0.000 A 
ATOM     13  C   UNL     1      -0.570  10.388  23.216  0.00  0.00    +0.000 A 
ATOM     14  C   UNL     1      -0.871  10.824  21.921  0.00  0.00    +0.000 A 
ATOM     15  C   UNL     1      -0.226  10.204  20.838  0.00  0.00    +0.000 A 
ATOM     16  N   UNL     1      -0.327  10.404  19.475  0.00  0.00    +0.000 N 
ATOM     17  C   UNL     1      -1.202  11.364  18.835  0.00  0.00    +0.000 C 
ENDBRANCH   1   9
BRANCH   3  18
ATOM     18  C   UNL     1       2.656   4.061  20.568  0.00  0.00    +0.000 C 
ATOM     19  C   UNL     1       3.508   2.858  20.160  0.00  0.00    +0.000 C 
ATOM     20  C   UNL     1       2.949   2.118  18.947  0.00  0.00    +0.000 C 
ATOM     21  N   UNL     1       1.536   1.766  19.058  0.00  0.00    +0.000 NA
ATOM     22  C   UNL     1       0.658   2.835  19.530  0.00  0.00    +0.000 C 
ATOM     23  C   UNL     1       1.197   3.572  20.750  0.00  0.00    +0.000 C 
ATOM     24  H   UNL     1       1.446   0.958  19.671  0.00  0.00    +0.000 HD
ENDBRANCH   3  18
BRANCH   5  25
ATOM     25  N   UNL     1       4.794   7.291  17.245  0.00  0.00    +0.000 N 
ATOM     26  H   UNL     1       5.736   7.012  17.498  0.00  0.00    +0.000 HD
ATOM     27  H   UNL     1       4.521   6.983  16.316  0.00  0.00    +0.000 HD
ENDBRANCH   5  25
BRANCH   4  28
ATOM     28  C   UNL     1       4.831   4.776  18.281  0.00  0.00    +0.000 C 
ATOM     29  N   UNL     1       5.712   4.186  17.839  0.00  0.00    +0.000 NA
ENDBRANCH   4  28
TORSDOF 4
ENDMDL
MODEL 7
REMARK VINA RESULT:      -7.4      1.814      4.066
REMARK  Name = 
REMARK  6 active torsions:
REMARK  status: ('A' for Active; 'I' for Inactive)
REMARK    1  A    between atoms: C_1  and  C_2
REMARK    2  A    between atoms: C_3  and  C_4
REMARK    3  A    between atoms: C_6  and  C_7
REMARK    4  A    between atoms: C_13  and  C_14
REMARK    5  A    between atoms: C_16  and  N_17
REMARK    6  A    between atoms: N_25  and  C_26
REMARK                            x       y       z     vdW  Elec       q    Type
REMARK                         _______ _______ _______ _____ _____    ______ ____
ROOT
ATOM      1  C   UNL     1       1.758   7.872  19.496  0.00  0.00    +0.000 A 
ATOM      2  C   UNL     1       1.804   6.629  20.122  0.00  0.00    +0.000 A 
ATOM      3  C   UNL     1       2.679   5.621  19.670  0.00  0.00    +0.000 A 
ATOM      4  C   UNL     1       3.521   5.986  18.593  0.00  0.00    +0.000 A 
ATOM      5  C   UNL     1       3.396   7.256  18.004  0.00  0.00    +0.000 A 
ATOM      6  N   UNL     1       2.527   8.171  18.435  0.00  0.00    +0.000 NA
ENDROOT
BRANCH   1   9
ATOM      7  C   UNL     1       1.581   9.094  22.457  0.00  0.00    +0.000 C 
ATOM      8  C   UNL     1       0.808   9.445  21.225  0.00  0.00    +0.000 A 
ATOM      9  C   UNL     1       0.848   8.921  19.934  0.00  0.00    +0.000 A 
ATOM     10  C   UNL     1      -0.102   9.646  19.147  0.00  0.00    +0.000 A 
ATOM     11  C   UNL     1      -0.487   9.590  17.789  0.00  0.00    +0.000 A 
ATOM     12  C   UNL     1      -1.453  10.465  17.296  0.00  0.00    +0.000 A 
ATOM     13  C   UNL     1      -2.026  11.409  18.133  0.00  0.00    +0.000 A 
ATOM     14  C   UNL     1      -1.654  11.501  19.478  0.00  0.00    +0.000 A 
ATOM     15  C   UNL     1      -0.690  10.605  19.971  0.00  0.00    +0.000 A 
ATOM     16  N   UNL     1      -0.124  10.465  21.222  0.00  0.00    +0.000 N 
ATOM     17  C   UNL     1      -0.425  11.294  22.371  0.00  0.00    +0.000 C 
ENDBRANCH   1   9
BRANCH   3  18
ATOM     18  C   UNL     1       2.674   4.312  20.475  0.00  0.00    +0.000 C 
ATOM     19  C   UNL     1       3.532   3.161  19.947  0.00  0.00    +0.000 C 
ATOM     20  C   UNL     1       2.877   2.412  18.789  0.00  0.00    +0.000 C 
ATOM     21  N   UNL     1       1.504   1.985  19.052  0.00  0.00    +0.000 NA
ATOM     22  C   UNL     1       0.634   2.999  19.644  0.00  0.00    +0.000 C 
ATOM     23  C   UNL     1       1.272   3.745  20.810  0.00  0.00    +0.000 C 
ATOM     24  H   UNL     1       1.526   1.164  19.654  0.00  0.00    +0.000 HD
ENDBRANCH   3  18
BRANCH   5  25
ATOM     25  N   UNL     1       4.248   7.697  16.995  0.00  0.00    +0.000 N 
ATOM     26  H   UNL     1       3.851   7.672  16.061  0.00  0.00    +0.000 HD
ATOM     27  H   UNL     1       4.614   8.609  17.249  0.00  0.00    +0.000 HD
ENDBRANCH   5  25
BRANCH   4  28
ATOM     28  C   UNL     1       4.527   5.171  17.965  0.00  0.00    +0.000 C 
ATOM     29  N   UNL     1       5.352   4.623  17.382  0.00  0.00    +0.000 NA
ENDBRANCH   4  28
TORSDOF 4
ENDMDL
MODEL 8
REMARK VINA RESULT:      -7.3      1.444      3.297
REMARK  Name = 
REMARK  6 active torsions:
REMARK  status: ('A' for Active; 'I' for Inactive)
REMARK    1  A    between atoms: C_1  and  C_2
REMARK    2  A    between atoms: C_3  and  C_4
REMARK    3  A    between atoms: C_6  and  C_7
REMARK    4  A    between atoms: C_13  and  C_14
REMARK    5  A    between atoms: C_16  and  N_17
REMARK    6  A    between atoms: N_25  and  C_26
REMARK                            x       y       z     vdW  Elec       q    Type
REMARK                         _______ _______ _______ _____ _____    ______ ____
ROOT
ATOM      1  C   UNL     1       2.253   7.663  18.866  0.00  0.00    +0.000 A 
ATOM      2  C   UNL     1       1.745   6.404  19.177  0.00  0.00    +0.000 A 
ATOM      3  C   UNL     1       2.310   5.237  18.624  0.00  0.00    +0.000 A 
ATOM      4  C   UNL     1       3.438   5.443  17.794  0.00  0.00    +0.000 A 
ATOM      5  C   UNL     1       3.874   6.750  17.514  0.00  0.00    +0.000 A 
ATOM      6  N   UNL     1       3.288   7.833  18.026  0.00  0.00    +0.000 NA
ENDROOT
BRANCH   1   9
ATOM      7  C   UNL     1       2.330  10.561  17.492  0.00  0.00    +0.000 C 
ATOM      8  C   UNL     1       1.705  10.125  18.780  0.00  0.00    +0.000 A 
ATOM      9  C   UNL     1       1.672   8.882  19.410  0.00  0.00    +0.000 A 
ATOM     10  C   UNL     1       0.918   9.033  20.618  0.00  0.00    +0.000 A 
ATOM     11  C   UNL     1       0.528   8.142  21.642  0.00  0.00    +0.000 A 
ATOM     12  C   UNL     1      -0.243   8.593  22.711  0.00  0.00    +0.000 A 
ATOM     13  C   UNL     1      -0.648   9.917  22.763  0.00  0.00    +0.000 A 
ATOM     14  C   UNL     1      -0.292  10.822  21.757  0.00  0.00    +0.000 A 
ATOM     15  C   UNL     1       0.498  10.362  20.690  0.00  0.00    +0.000 A 
ATOM     16  N   UNL     1       0.984  11.001  19.568  0.00  0.00    +0.000 N 
ATOM     17  C   UNL     1       0.744  12.389  19.229  0.00  0.00    +0.000 C 
ENDBRANCH   1   9
BRANCH   3  18
ATOM     18  C   UNL     1       1.695   3.906  19.083  0.00  0.00    +0.000 C 
ATOM     19  C   UNL     1       1.038   3.877  20.465  0.00  0.00    +0.000 C 
ATOM     20  C   UNL     1       2.049   3.763  21.602  0.00  0.00    +0.000 C 
ATOM     21  N   UNL     1       3.014   2.677  21.440  0.00  0.00    +0.000 NA
ATOM     22  C   UNL     1       3.626   2.574  20.117  0.00  0.00    +0.000 C 
ATOM     23  C   UNL     1       2.625   2.673  18.972  0.00  0.00    +0.000 C 
ATOM     24  H   UNL     1       2.558   1.797  21.672  0.00  0.00    +0.000 HD
ENDBRANCH   3  18
BRANCH   5  25
ATOM     25  N   UNL     1       5.021   7.009  16.770  0.00  0.00    +0.000 N 
ATOM     26  H   UNL     1       4.867   7.115  15.772  0.00  0.00    +0.000 HD
ATOM     27  H   UNL     1       5.511   7.797  17.184  0.00  0.00    +0.000 HD
ENDBRANCH   5  25
BRANCH   4  28
ATOM     28  C   UNL     1       4.226   4.434  17.137  0.00  0.00    +0.000 C 
ATOM     29  N   UNL     1       4.954   3.717  16.611  0.00  0.00    +0.000 NA
ENDBRANCH   4  28
TORSDOF 4
ENDMDL
MODEL 9
REMARK VINA RESULT:      -7.3      4.575      7.554
REMARK  Name = 
REMARK  6 active torsions:
REMARK  status: ('A' for Active; 'I' for Inactive)
REMARK    1  A    between atoms: C_1  and  C_2
REMARK    2  A    between atoms: C_3  and  C_4
REMARK    3  A    between atoms: C_6  and  C_7
REMARK    4  A    between atoms: C_13  and  C_14
REMARK    5  A    between atoms: C_16  and  N_17
REMARK    6  A    between atoms: N_25  and  C_26
REMARK                            x       y       z     vdW  Elec       q    Type
REMARK                         _______ _______ _______ _____ _____    ______ ____
ROOT
ATOM      1  C   UNL     1      -2.067  12.127  22.298  0.00  0.00    +0.000 A 
ATOM      2  C   UNL     1      -1.728  12.087  20.948  0.00  0.00    +0.000 A 
ATOM      3  C   UNL     1      -0.816  11.132  20.457  0.00  0.00    +0.000 A 
ATOM      4  C   UNL     1      -0.331  10.207  21.414  0.00  0.00    +0.000 A 
ATOM      5  C   UNL     1      -0.708  10.331  22.762  0.00  0.00    +0.000 A 
ATOM      6  N   UNL     1      -1.544  11.275  23.196  0.00  0.00    +0.000 NA
ENDROOT
BRANCH   1   9
ATOM      7  C   UNL     1      -1.301  14.569  24.233  0.00  0.00    +0.000 C 
ATOM      8  C   UNL     1      -2.625  14.181  23.653  0.00  0.00    +0.000 A 
ATOM      9  C   UNL     1      -2.992  13.119  22.829  0.00  0.00    +0.000 A 
ATOM     10  C   UNL     1      -4.394  13.242  22.568  0.00  0.00    +0.000 A 
ATOM     11  C   UNL     1      -5.311  12.496  21.795  0.00  0.00    +0.000 A 
ATOM     12  C   UNL     1      -6.646  12.887  21.717  0.00  0.00    +0.000 A 
ATOM     13  C   UNL     1      -7.075  14.024  22.382  0.00  0.00    +0.000 A 
ATOM     14  C   UNL     1      -6.189  14.795  23.143  0.00  0.00    +0.000 A 
ATOM     15  C   UNL     1      -4.848  14.385  23.228  0.00  0.00    +0.000 A 
ATOM     16  N   UNL     1      -3.761  14.936  23.876  0.00  0.00    +0.000 N 
ATOM     17  C   UNL     1      -3.784  16.159  24.652  0.00  0.00    +0.000 C 
ENDBRANCH   1   9
BRANCH   3  18
ATOM     18  C   UNL     1      -0.562  11.157  18.942  0.00  0.00    +0.000 C 
ATOM     19  C   UNL     1       0.836  10.767  18.459  0.00  0.00    +0.000 C 
ATOM     20  C   UNL     1       1.855  11.894  18.613  0.00  0.00    +0.000 C 
ATOM     21  N   UNL     1       1.425  13.171  18.049  0.00  0.00    +0.000 NA
ATOM     22  C   UNL     1       0.063  13.580  18.387  0.00  0.00    +0.000 C 
ATOM     23  C   UNL     1      -0.966  12.468  18.223  0.00  0.00    +0.000 C 
ATOM     24  H   UNL     1       1.526  13.133  17.037  0.00  0.00    +0.000 HD
ENDBRANCH   3  18
BRANCH   5  25
ATOM     25  N   UNL     1      -0.325   9.407  23.731  0.00  0.00    +0.000 N 
ATOM     26  H   UNL     1      -1.090   8.893  24.155  0.00  0.00    +0.000 HD
ATOM     27  H   UNL     1       0.396   8.805  23.344  0.00  0.00    +0.000 HD
ENDBRANCH   5  25
BRANCH   4  28
ATOM     28  C   UNL     1       0.573   9.113  21.180  0.00  0.00    +0.000 C 
ATOM     29  N   UNL     1       1.301   8.225  21.126  0.00  0.00    +0.000 NA
ENDBRANCH   4  28
TORSDOF 4
ENDMDL
