MODEL 1
REMARK VINA RESULT:      -8.3      0.000      0.000
REMARK  Name = 
REMARK  8 active torsions:
REMARK  status: ('A' for Active; 'I' for Inactive)
REMARK    1  A    between atoms: C_1  and  C_2
REMARK    2  A    between atoms: C_4  and  C_5
REMARK    3  A    between atoms: C_5  and  C_6
REMARK    4  A    between atoms: C_5  and  O_7
REMARK    5  A    between atoms: C_5  and  C_8
REMARK    6  A    between atoms: C_9  and  C_10
REMARK    7  A    between atoms: C_18  and  C_19
REMARK    8  A    between atoms: C_24  and  O_25
REMARK                            x       y       z     vdW  Elec       q    Type
REMARK                         _______ _______ _______ _____ _____    ______ ____
ROOT
ATOM      1  C   UNL     1       1.801   7.229  19.984  0.00  0.00    +0.000 A 
ATOM      2  C   UNL     1       1.316   6.383  20.973  0.00  0.00    +0.000 A 
ATOM      3  C   UNL     1       1.843   5.099  21.102  0.00  0.00    +0.000 A 
ATOM      4  C   UNL     1       2.836   4.619  20.234  0.00  0.00    +0.000 A 
ATOM      5  C   UNL     1       3.336   5.463  19.223  0.00  0.00    +0.000 A 
ATOM      6  C   UNL     1       2.810   6.774  19.121  0.00  0.00    +0.000 A 
ATOM      7  C   UNL     1       4.344   5.056  18.243  0.00  0.00    +0.000 A 
ATOM      8  N   UNL     1       5.272   5.938  17.689  0.00  0.00    +0.000 NA
ATOM      9  C   UNL     1       6.031   5.287  16.820  0.00  0.00    +0.000 A 
ATOM     10  S   UNL     1       5.655   3.634  16.597  0.00  0.00    +0.000 S 
ATOM     11  C   UNL     1       4.398   3.768  17.746  0.00  0.00    +0.000 A 
ATOM     12  C   UNL     1       3.533   2.629  18.169  0.00  0.00    +0.000 C 
ATOM     13  C   UNL     1       3.736   2.392  19.664  0.00  0.00    +0.000 C 
ATOM     14  O   UNL     1       3.208   3.351  20.574  0.00  0.00    +0.000 OA
ENDROOT
BRANCH   9  15
ATOM     15  C   UNL     1       7.138   5.878  16.070  0.00  0.00    +0.000 C 
ATOM     16  N   UNL     1       7.409   5.295  14.859  0.00  0.00    +0.000 N 
ATOM     17  O   UNL     1       7.820   6.836  16.429  0.00  0.00    +0.000 OA
ATOM     18  H   UNL     1       6.840   4.536  14.510  0.00  0.00    +0.000 HD
ATOM     19  H   UNL     1       8.143   5.697  14.294  0.00  0.00    +0.000 HD
ENDBRANCH   9  15
BRANCH   1  21
ATOM     20  C   UNL     1       0.834   9.672  19.747  0.00  0.00    +0.000 C 
ATOM     21  C   UNL     1       1.266   8.558  19.866  0.00  0.00    +0.000 C 
BRANCH  20  22
ATOM     22  C   UNL     1       0.243  11.019  19.555  0.00  0.00    +0.000 C 
ATOM     23  C   UNL     1      -0.157  11.603  20.919  0.00  0.00    +0.000 C 
BRANCH  22  27
ATOM     24  C   UNL     1      -3.100  10.077  15.776  0.00  0.00    +0.000 C 
ATOM     25  C   UNL     1      -2.321  10.515  16.947  0.00  0.00    +0.000 A 
ATOM     26  C   UNL     1      -1.165  10.078  17.542  0.00  0.00    +0.000 A 
ATOM     27  C   UNL     1      -0.942  10.981  18.615  0.00  0.00    +0.000 A 
ATOM     28  N   UNL     1      -1.922  11.901  18.665  0.00  0.00    +0.000 NA
ATOM     29  O   UNL     1      -2.783  11.599  17.623  0.00  0.00    +0.000 OA
ENDBRANCH  22  27
BRANCH  22  30
ATOM     30  O   UNL     1       1.267  11.880  19.025  0.00  0.00    +0.000 OA
ATOM     31  H   UNL     1       1.725  12.269  19.789  0.00  0.00    +0.000 HD
ENDBRANCH  22  30
ENDBRANCH  20  22
ENDBRANCH   1  21
BRANCH  12  32
ATOM     32  O   UNL     1       3.889   1.452  17.442  0.00  0.00    +0.000 OA
ATOM     33  H   UNL     1       3.881   0.705  18.068  0.00  0.00    +0.000 HD
ENDBRANCH  12  32
TORSDOF 6
ENDMDL
MODEL 2
REMARK VINA RESULT:      -8.1      2.001      2.918
REMARK  Name = 
REMARK  8 active torsions:
REMARK  status: ('A' for Active; 'I' for Inactive)
REMARK    1  A    between atoms: C_1  and  C_2
REMARK    2  A    between atoms: C_4  and  C_5
REMARK    3  A    between atoms: C_5  and  C_6
REMARK    4  A    between atoms: C_5  and  O_7
REMARK    5  A    between atoms: C_5  and  C_8
REMARK    6  A    between atoms: C_9  and  C_10
REMARK    7  A    between atoms: C_18  and  C_19
REMARK    8  A    between atoms: C_24  and  O_25
REMARK                            x       y       z     vdW  Elec       q    Type
REMARK                         _______ _______ _______ _____ _____    ______ ____
ROOT
ATOM      1  C   UNL     1       1.762   8.046  19.643  0.00  0.00    +0.000 A 
ATOM      2  C   UNL     1       1.212   7.378  20.729  0.00  0.00    +0.000 A 
ATOM      3  C   UNL     1       1.535   6.040  20.953  0.00  0.00    +0.000 A 
ATOM      4  C   UNL     1       2.382   5.332  20.086  0.00  0.00    +0.000 A 
ATOM      5  C   UNL     1       2.946   5.994  18.978  0.00  0.00    +0.000 A 
ATOM      6  C   UNL     1       2.630   7.360  18.778  0.00  0.00    +0.000 A 
ATOM      7  C   UNL     1       3.812   5.346  17.992  0.00  0.00    +0.000 A 
ATOM      8  N   UNL     1       4.833   6.014  17.314  0.00  0.00    +0.000 NA
ATOM      9  C   UNL     1       5.422   5.176  16.474  0.00  0.00    +0.000 A 
ATOM     10  S   UNL     1       4.775   3.594  16.425  0.00  0.00    +0.000 S 
ATOM     11  C   UNL     1       3.630   4.029  17.616  0.00  0.00    +0.000 A 
ATOM     12  C   UNL     1       2.623   3.088  18.185  0.00  0.00    +0.000 C 
ATOM     13  C   UNL     1       2.879   2.948  19.683  0.00  0.00    +0.000 C 
ATOM     14  O   UNL     1       2.568   4.054  20.524  0.00  0.00    +0.000 OA
ENDROOT
BRANCH   9  15
ATOM     15  C   UNL     1       6.560   5.512  15.619  0.00  0.00    +0.000 C 
ATOM     16  N   UNL     1       7.519   6.304  16.196  0.00  0.00    +0.000 N 
ATOM     17  O   UNL     1       6.722   5.140  14.459  0.00  0.00    +0.000 OA
ATOM     18  H   UNL     1       7.443   6.589  17.163  0.00  0.00    +0.000 HD
ATOM     19  H   UNL     1       8.338   6.528  15.650  0.00  0.00    +0.000 HD
ENDBRANCH   9  15
BRANCH   1  21
ATOM     20  C   UNL     1       1.149  10.583  19.259  0.00  0.00    +0.000 C 
ATOM     21  C   UNL     1       1.440   9.430  19.427  0.00  0.00    +0.000 C 
BRANCH  20  22
ATOM     22  C   UNL     1       0.827  12.024  19.117  0.00  0.00    +0.000 C 
ATOM     23  C   UNL     1       1.982  12.740  18.401  0.00  0.00    +0.000 C 
BRANCH  22  27
ATOM     24  C   UNL     1      -1.299  13.982  23.359  0.00  0.00    +0.000 C 
ATOM     25  C   UNL     1      -0.463  13.491  22.250  0.00  0.00    +0.000 A 
ATOM     26  C   UNL     1      -0.707  12.731  21.134  0.00  0.00    +0.000 A 
ATOM     27  C   UNL     1       0.540  12.667  20.457  0.00  0.00    +0.000 A 
ATOM     28  N   UNL     1       1.481  13.343  21.140  0.00  0.00    +0.000 NA
ATOM     29  O   UNL     1       0.847  13.850  22.263  0.00  0.00    +0.000 OA
ENDBRANCH  22  27
BRANCH  22  30
ATOM     30  O   UNL     1      -0.322  12.139  18.257  0.00  0.00    +0.000 OA
ATOM     31  H   UNL     1      -0.266  11.407  17.621  0.00  0.00    +0.000 HD
ENDBRANCH  22  30
ENDBRANCH  20  22
ENDBRANCH   1  21
BRANCH  12  32
ATOM     32  O   UNL     1       2.740   1.811  17.555  0.00  0.00    +0.000 OA
ATOM     33  H   UNL     1       3.205   1.941  16.708  0.00  0.00    +0.000 HD
ENDBRANCH  12  32
TORSDOF 6
ENDMDL
MODEL 3
REMARK VINA RESULT:      -8.0      0.997      1.034
REMARK  Name = 
REMARK  8 active torsions:
REMARK  status: ('A' for Active; 'I' for Inactive)
REMARK    1  A    between atoms: C_1  and  C_2
REMARK    2  A    between atoms: C_4  and  C_5
REMARK    3  A    between atoms: C_5  and  C_6
REMARK    4  A    between atoms: C_5  and  O_7
REMARK    5  A    between atoms: C_5  and  C_8
REMARK    6  A    between atoms: C_9  and  C_10
REMARK    7  A    between atoms: C_18  and  C_19
REMARK    8  A    between atoms: C_24  and  O_25
REMARK                            x       y       z     vdW  Elec       q    Type
REMARK                         _______ _______ _______ _____ _____    ______ ____
ROOT
ATOM      1  C   UNL     1       1.700   7.749  19.805  0.00  0.00    +0.000 A 
ATOM      2  C   UNL     1       1.143   6.982  20.820  0.00  0.00    +0.000 A 
ATOM      3  C   UNL     1       1.593   5.679  21.026  0.00  0.00    +0.000 A 
ATOM      4  C   UNL     1       2.578   5.101  20.209  0.00  0.00    +0.000 A 
ATOM      5  C   UNL     1       3.150   5.865  19.173  0.00  0.00    +0.000 A 
ATOM      6  C   UNL     1       2.702   7.196  18.993  0.00  0.00    +0.000 A 
ATOM      7  C   UNL     1       4.156   5.354  18.242  0.00  0.00    +0.000 A 
ATOM      8  N   UNL     1       5.147   6.155  17.671  0.00  0.00    +0.000 NA
ATOM      9  C   UNL     1       5.889   5.420  16.856  0.00  0.00    +0.000 A 
ATOM     10  S   UNL     1       5.425   3.781  16.703  0.00  0.00    +0.000 S 
ATOM     11  C   UNL     1       4.150   4.042  17.810  0.00  0.00    +0.000 A 
ATOM     12  C   UNL     1       3.211   2.975  18.263  0.00  0.00    +0.000 C 
ATOM     13  C   UNL     1       3.364   2.803  19.772  0.00  0.00    +0.000 C 
ATOM     14  O   UNL     1       2.868   3.834  20.620  0.00  0.00    +0.000 OA
ENDROOT
BRANCH   9  15
ATOM     15  C   UNL     1       7.046   5.910  16.109  0.00  0.00    +0.000 C 
ATOM     16  N   UNL     1       7.334   5.230  14.953  0.00  0.00    +0.000 N 
ATOM     17  O   UNL     1       7.754   6.864  16.424  0.00  0.00    +0.000 OA
ATOM     18  H   UNL     1       6.746   4.471  14.638  0.00  0.00    +0.000 HD
ATOM     19  H   UNL     1       8.105   5.560  14.390  0.00  0.00    +0.000 HD
ENDBRANCH   9  15
BRANCH   1  21
ATOM     20  C   UNL     1       0.852  10.225  19.465  0.00  0.00    +0.000 C 
ATOM     21  C   UNL     1       1.245   9.099  19.608  0.00  0.00    +0.000 C 
BRANCH  20  22
ATOM     22  C   UNL     1       0.432  11.640  19.325  0.00  0.00    +0.000 C 
ATOM     23  C   UNL     1       0.969  12.454  20.511  0.00  0.00    +0.000 C 
BRANCH  22  27
ATOM     24  C   UNL     1      -4.509  11.425  17.950  0.00  0.00    +0.000 C 
ATOM     25  C   UNL     1      -3.177  11.627  18.546  0.00  0.00    +0.000 A 
ATOM     26  C   UNL     1      -1.932  11.106  18.301  0.00  0.00    +0.000 A 
ATOM     27  C   UNL     1      -1.072  11.769  19.217  0.00  0.00    +0.000 A 
ATOM     28  N   UNL     1      -1.771  12.630  19.978  0.00  0.00    +0.000 NA
ATOM     29  O   UNL     1      -3.087  12.531  19.557  0.00  0.00    +0.000 OA
ENDBRANCH  22  27
BRANCH  22  30
ATOM     30  O   UNL     1       1.059  12.173  18.144  0.00  0.00    +0.000 OA
ATOM     31  H   UNL     1       0.395  12.727  17.703  0.00  0.00    +0.000 HD
ENDBRANCH  22  30
ENDBRANCH  20  22
ENDBRANCH   1  21
BRANCH  12  32
ATOM     32  O   UNL     1       3.517   1.745  17.604  0.00  0.00    +0.000 OA
ATOM     33  H   UNL     1       4.319   1.888  17.070  0.00  0.00    +0.000 HD
ENDBRANCH  12  32
TORSDOF 6
ENDMDL
MODEL 4
REMARK VINA RESULT:      -7.9      1.781      2.368
REMARK  Name = 
REMARK  8 active torsions:
REMARK  status: ('A' for Active; 'I' for Inactive)
REMARK    1  A    between atoms: C_1  and  C_2
REMARK    2  A    between atoms: C_4  and  C_5
REMARK    3  A    between atoms: C_5  and  C_6
REMARK    4  A    between atoms: C_5  and  O_7
REMARK    5  A    between atoms: C_5  and  C_8
REMARK    6  A    between atoms: C_9  and  C_10
REMARK    7  A    between atoms: C_18  and  C_19
REMARK    8  A    between atoms: C_24  and  O_25
REMARK                            x       y       z     vdW  Elec       q    Type
REMARK                         _______ _______ _______ _____ _____    ______ ____
ROOT
ATOM      1  C   UNL     1       1.647   7.976  19.807  0.00  0.00    +0.000 A 
ATOM      2  C   UNL     1       1.142   7.278  20.896  0.00  0.00    +0.000 A 
ATOM      3  C   UNL     1       1.518   5.951  21.100  0.00  0.00    +0.000 A 
ATOM      4  C   UNL     1       2.375   5.283  20.210  0.00  0.00    +0.000 A 
ATOM      5  C   UNL     1       2.893   5.977  19.099  0.00  0.00    +0.000 A 
ATOM      6  C   UNL     1       2.523   7.332  18.920  0.00  0.00    +0.000 A 
ATOM      7  C   UNL     1       3.765   5.371  18.092  0.00  0.00    +0.000 A 
ATOM      8  N   UNL     1       4.748   6.083  17.403  0.00  0.00    +0.000 NA
ATOM      9  C   UNL     1       5.352   5.276  16.544  0.00  0.00    +0.000 A 
ATOM     10  S   UNL     1       4.763   3.671  16.490  0.00  0.00    +0.000 S 
ATOM     11  C   UNL     1       3.625   4.052  17.706  0.00  0.00    +0.000 A 
ATOM     12  C   UNL     1       2.664   3.068  18.283  0.00  0.00    +0.000 C 
ATOM     13  C   UNL     1       2.953   2.923  19.775  0.00  0.00    +0.000 C 
ATOM     14  O   UNL     1       2.616   4.009  20.633  0.00  0.00    +0.000 OA
ENDROOT
BRANCH   9  15
ATOM     15  C   UNL     1       6.461   5.662  15.673  0.00  0.00    +0.000 C 
ATOM     16  N   UNL     1       7.497   6.315  16.289  0.00  0.00    +0.000 N 
ATOM     17  O   UNL     1       6.537   5.443  14.465  0.00  0.00    +0.000 OA
ATOM     18  H   UNL     1       7.491   6.469  17.288  0.00  0.00    +0.000 HD
ATOM     19  H   UNL     1       8.299   6.565  15.728  0.00  0.00    +0.000 HD
ENDBRANCH   9  15
BRANCH   1  21
ATOM     20  C   UNL     1       0.937  10.489  19.430  0.00  0.00    +0.000 C 
ATOM     21  C   UNL     1       1.269   9.349  19.611  0.00  0.00    +0.000 C 
BRANCH  20  22
ATOM     22  C   UNL     1       0.474  11.889  19.264  0.00  0.00    +0.000 C 
ATOM     23  C   UNL     1       1.663  12.846  19.436  0.00  0.00    +0.000 C 
BRANCH  22  27
ATOM     24  C   UNL     1      -2.760  12.203  23.238  0.00  0.00    +0.000 C 
ATOM     25  C   UNL     1      -1.983  12.295  21.990  0.00  0.00    +0.000 A 
ATOM     26  C   UNL     1      -0.773  11.796  21.579  0.00  0.00    +0.000 A 
ATOM     27  C   UNL     1      -0.638  12.229  20.233  0.00  0.00    +0.000 A 
ATOM     28  N   UNL     1      -1.706  12.959  19.865  0.00  0.00    +0.000 NA
ATOM     29  O   UNL     1      -2.539  13.001  20.971  0.00  0.00    +0.000 OA
ENDBRANCH  22  27
BRANCH  22  30
ATOM     30  O   UNL     1       0.014  12.045  17.909  0.00  0.00    +0.000 OA
ATOM     31  H   UNL     1       0.497  11.392  17.376  0.00  0.00    +0.000 HD
ENDBRANCH  22  30
ENDBRANCH  20  22
ENDBRANCH   1  21
BRANCH  12  32
ATOM     32  O   UNL     1       2.818   1.802  17.638  0.00  0.00    +0.000 OA
ATOM     33  H   UNL     1       2.718   1.111  18.317  0.00  0.00    +0.000 HD
ENDBRANCH  12  32
TORSDOF 6
ENDMDL
MODEL 5
REMARK VINA RESULT:      -7.8      1.747      2.770
REMARK  Name = 
REMARK  8 active torsions:
REMARK  status: ('A' for Active; 'I' for Inactive)
REMARK    1  A    between atoms: C_1  and  C_2
REMARK    2  A    between atoms: C_4  and  C_5
REMARK    3  A    between atoms: C_5  and  C_6
REMARK    4  A    between atoms: C_5  and  O_7
REMARK    5  A    between atoms: C_5  and  C_8
REMARK    6  A    between atoms: C_9  and  C_10
REMARK    7  A    between atoms: C_18  and  C_19
REMARK    8  A    between atoms: C_24  and  O_25
REMARK                            x       y       z     vdW  Elec       q    Type
REMARK                         _______ _______ _______ _____ _____    ______ ____
ROOT
ATOM      1  C   UNL     1       1.758   7.448  19.996  0.00  0.00    +0.000 A 
ATOM      2  C   UNL     1       1.243   6.596  20.965  0.00  0.00    +0.000 A 
ATOM      3  C   UNL     1       1.759   5.308  21.096  0.00  0.00    +0.000 A 
ATOM      4  C   UNL     1       2.772   4.830  20.249  0.00  0.00    +0.000 A 
ATOM      5  C   UNL     1       3.303   5.681  19.260  0.00  0.00    +0.000 A 
ATOM      6  C   UNL     1       2.787   6.995  19.155  0.00  0.00    +0.000 A 
ATOM      7  C   UNL     1       4.334   5.277  18.303  0.00  0.00    +0.000 A 
ATOM      8  N   UNL     1       5.281   6.160  17.782  0.00  0.00    +0.000 NA
ATOM      9  C   UNL     1       6.059   5.512  16.927  0.00  0.00    +0.000 A 
ATOM     10  S   UNL     1       5.681   3.863  16.679  0.00  0.00    +0.000 S 
ATOM     11  C   UNL     1       4.395   3.994  17.796  0.00  0.00    +0.000 A 
ATOM     12  C   UNL     1       3.513   2.856  18.186  0.00  0.00    +0.000 C 
ATOM     13  C   UNL     1       3.676   2.605  19.683  0.00  0.00    +0.000 C 
ATOM     14  O   UNL     1       3.128   3.558  20.587  0.00  0.00    +0.000 OA
ENDROOT
BRANCH   9  15
ATOM     15  C   UNL     1       7.188   6.103  16.211  0.00  0.00    +0.000 C 
ATOM     16  N   UNL     1       7.558   5.462  15.057  0.00  0.00    +0.000 N 
ATOM     17  O   UNL     1       7.808   7.109  16.551  0.00  0.00    +0.000 OA
ATOM     18  H   UNL     1       7.042   4.660  14.722  0.00  0.00    +0.000 HD
ATOM     19  H   UNL     1       8.311   5.860  14.515  0.00  0.00    +0.000 HD
ENDBRANCH   9  15
BRANCH   1  21
ATOM     20  C   UNL     1       0.774   9.887  19.786  0.00  0.00    +0.000 C 
ATOM     21  C   UNL     1       1.233   8.781  19.876  0.00  0.00    +0.000 C 
BRANCH  20  22
ATOM     22  C   UNL     1       0.236  11.269  19.745  0.00  0.00    +0.000 C 
ATOM     23  C   UNL     1      -0.725  11.411  18.555  0.00  0.00    +0.000 C 
BRANCH  22  27
ATOM     24  C   UNL     1       3.981  14.476  18.316  0.00  0.00    +0.000 C 
ATOM     25  C   UNL     1       2.949  13.649  18.966  0.00  0.00    +0.000 A 
ATOM     26  C   UNL     1       1.947  12.834  18.503  0.00  0.00    +0.000 A 
ATOM     27  C   UNL     1       1.343  12.298  19.671  0.00  0.00    +0.000 A 
ATOM     28  N   UNL     1       1.946  12.779  20.773  0.00  0.00    +0.000 NA
ATOM     29  O   UNL     1       2.945  13.627  20.324  0.00  0.00    +0.000 OA
ENDBRANCH  22  27
BRANCH  22  30
ATOM     30  O   UNL     1      -0.550  11.473  20.933  0.00  0.00    +0.000 OA
ATOM     31  H   UNL     1      -0.194  12.265  21.369  0.00  0.00    +0.000 HD
ENDBRANCH  22  30
ENDBRANCH  20  22
ENDBRANCH   1  21
BRANCH  12  32
ATOM     32  O   UNL     1       3.882   1.683  17.458  0.00  0.00    +0.000 OA
ATOM     33  H   UNL     1       3.061   1.230  17.193  0.00  0.00    +0.000 HD
ENDBRANCH  12  32
TORSDOF 6
ENDMDL
MODEL 6
REMARK VINA RESULT:      -7.8      1.728      2.636
REMARK  Name = 
REMARK  8 active torsions:
REMARK  status: ('A' for Active; 'I' for Inactive)
REMARK    1  A    between atoms: C_1  and  C_2
REMARK    2  A    between atoms: C_4  and  C_5
REMARK    3  A    between atoms: C_5  and  C_6
REMARK    4  A    between atoms: C_5  and  O_7
REMARK    5  A    between atoms: C_5  and  C_8
REMARK    6  A    between atoms: C_9  and  C_10
REMARK    7  A    between atoms: C_18  and  C_19
REMARK    8  A    between atoms: C_24  and  O_25
REMARK                            x       y       z     vdW  Elec       q    Type
REMARK                         _______ _______ _______ _____ _____    ______ ____
ROOT
ATOM      1  C   UNL     1       1.822   7.176  20.036  0.00  0.00    +0.000 A 
ATOM      2  C   UNL     1       1.344   6.308  21.009  0.00  0.00    +0.000 A 
ATOM      3  C   UNL     1       1.881   5.026  21.114  0.00  0.00    +0.000 A 
ATOM      4  C   UNL     1       2.878   4.570  20.237  0.00  0.00    +0.000 A 
ATOM      5  C   UNL     1       3.371   5.437  19.243  0.00  0.00    +0.000 A 
ATOM      6  C   UNL     1       2.835   6.745  19.164  0.00  0.00    +0.000 A 
ATOM      7  C   UNL     1       4.383   5.056  18.256  0.00  0.00    +0.000 A 
ATOM      8  N   UNL     1       5.304   5.957  17.719  0.00  0.00    +0.000 NA
ATOM      9  C   UNL     1       6.068   5.328  16.838  0.00  0.00    +0.000 A 
ATOM     10  S   UNL     1       5.706   3.676  16.584  0.00  0.00    +0.000 S 
ATOM     11  C   UNL     1       4.448   3.778  17.735  0.00  0.00    +0.000 A 
ATOM     12  C   UNL     1       3.592   2.625  18.136  0.00  0.00    +0.000 C 
ATOM     13  C   UNL     1       3.797   2.362  19.626  0.00  0.00    +0.000 C 
ATOM     14  O   UNL     1       3.260   3.299  20.554  0.00  0.00    +0.000 OA
ENDROOT
BRANCH   9  15
ATOM     15  C   UNL     1       7.171   5.941  16.099  0.00  0.00    +0.000 C 
ATOM     16  N   UNL     1       7.699   7.076  16.660  0.00  0.00    +0.000 N 
ATOM     17  O   UNL     1       7.652   5.524  15.048  0.00  0.00    +0.000 OA
ATOM     18  H   UNL     1       7.361   7.421  17.547  0.00  0.00    +0.000 HD
ATOM     19  H   UNL     1       8.486   7.508  16.199  0.00  0.00    +0.000 HD
ENDBRANCH   9  15
BRANCH   1  21
ATOM     20  C   UNL     1       0.841   9.618  19.853  0.00  0.00    +0.000 C 
ATOM     21  C   UNL     1       1.276   8.502  19.942  0.00  0.00    +0.000 C 
BRANCH  20  22
ATOM     22  C   UNL     1       0.276  10.978  19.673  0.00  0.00    +0.000 C 
ATOM     23  C   UNL     1      -0.981  10.898  18.794  0.00  0.00    +0.000 C 
BRANCH  22  27
ATOM     24  C   UNL     1       2.979  15.058  18.127  0.00  0.00    +0.000 C 
ATOM     25  C   UNL     1       2.390  13.748  18.453  0.00  0.00    +0.000 A 
ATOM     26  C   UNL     1       1.363  13.338  19.265  0.00  0.00    +0.000 A 
ATOM     27  C   UNL     1       1.290  11.932  19.081  0.00  0.00    +0.000 A 
ATOM     28  N   UNL     1       2.234  11.523  18.215  0.00  0.00    +0.000 NA
ATOM     29  O   UNL     1       2.921  12.663  17.831  0.00  0.00    +0.000 OA
ENDBRANCH  22  27
BRANCH  22  30
ATOM     30  O   UNL     1      -0.155  11.452  20.963  0.00  0.00    +0.000 OA
ATOM     31  H   UNL     1       0.429  12.192  21.195  0.00  0.00    +0.000 HD
ENDBRANCH  22  30
ENDBRANCH  20  22
ENDBRANCH   1  21
BRANCH  12  32
ATOM     32  O   UNL     1       3.958   1.464  17.388  0.00  0.00    +0.000 OA
ATOM     33  H   UNL     1       4.038   0.722  18.014  0.00  0.00    +0.000 HD
ENDBRANCH  12  32
TORSDOF 6
ENDMDL
MODEL 7
REMARK VINA RESULT:      -7.6      3.321      8.245
REMARK  Name = 
REMARK  8 active torsions:
REMARK  status: ('A' for Active; 'I' for Inactive)
REMARK    1  A    between atoms: C_1  and  C_2
REMARK    2  A    between atoms: C_4  and  C_5
REMARK    3  A    between atoms: C_5  and  C_6
REMARK    4  A    between atoms: C_5  and  O_7
REMARK    5  A    between atoms: C_5  and  C_8
REMARK    6  A    between atoms: C_9  and  C_10
REMARK    7  A    between atoms: C_18  and  C_19
REMARK    8  A    between atoms: C_24  and  O_25
REMARK                            x       y       z     vdW  Elec       q    Type
REMARK                         _______ _______ _______ _____ _____    ______ ____
ROOT
ATOM      1  C   UNL     1       3.182   6.422  19.430  0.00  0.00    +0.000 A 
ATOM      2  C   UNL     1       2.405   5.489  20.103  0.00  0.00    +0.000 A 
ATOM      3  C   UNL     1       1.233   5.896  20.739  0.00  0.00    +0.000 A 
ATOM      4  C   UNL     1       0.828   7.241  20.747  0.00  0.00    +0.000 A 
ATOM      5  C   UNL     1       1.608   8.200  20.072  0.00  0.00    +0.000 A 
ATOM      6  C   UNL     1       2.781   7.767  19.408  0.00  0.00    +0.000 A 
ATOM      7  C   UNL     1       1.299   9.630  20.044  0.00  0.00    +0.000 A 
ATOM      8  N   UNL     1       1.614  10.460  18.967  0.00  0.00    +0.000 NA
ATOM      9  C   UNL     1       1.237  11.699  19.244  0.00  0.00    +0.000 A 
ATOM     10  S   UNL     1       0.538  11.937  20.787  0.00  0.00    +0.000 S 
ATOM     11  C   UNL     1       0.728  10.273  21.126  0.00  0.00    +0.000 A 
ATOM     12  C   UNL     1       0.287   9.628  22.395  0.00  0.00    +0.000 C 
ATOM     13  C   UNL     1      -0.773   8.579  22.065  0.00  0.00    +0.000 C 
ATOM     14  O   UNL     1      -0.357   7.387  21.407  0.00  0.00    +0.000 OA
ENDROOT
BRANCH   9  15
ATOM     15  C   UNL     1       1.372  12.837  18.336  0.00  0.00    +0.000 C 
ATOM     16  N   UNL     1       2.441  12.785  17.478  0.00  0.00    +0.000 N 
ATOM     17  O   UNL     1       0.616  13.805  18.279  0.00  0.00    +0.000 OA
ATOM     18  H   UNL     1       3.055  11.983  17.464  0.00  0.00    +0.000 HD
ATOM     19  H   UNL     1       2.548  13.535  16.810  0.00  0.00    +0.000 HD
ENDBRANCH   9  15
BRANCH   1  21
ATOM     20  C   UNL     1       5.386   5.659  18.196  0.00  0.00    +0.000 C 
ATOM     21  C   UNL     1       4.381   5.993  18.762  0.00  0.00    +0.000 C 
BRANCH  20  22
ATOM     22  C   UNL     1       6.666   5.259  17.563  0.00  0.00    +0.000 C 
ATOM     23  C   UNL     1       7.734   6.326  17.847  0.00  0.00    +0.000 C 
BRANCH  22  27
ATOM     24  C   UNL     1       5.377   3.617  12.874  0.00  0.00    +0.000 C 
ATOM     25  C   UNL     1       5.898   4.259  14.094  0.00  0.00    +0.000 A 
ATOM     26  C   UNL     1       5.577   4.182  15.425  0.00  0.00    +0.000 A 
ATOM     27  C   UNL     1       6.509   5.034  16.075  0.00  0.00    +0.000 A 
ATOM     28  N   UNL     1       7.334   5.599  15.176  0.00  0.00    +0.000 NA
ATOM     29  O   UNL     1       6.942   5.114  13.939  0.00  0.00    +0.000 OA
ENDBRANCH  22  27
BRANCH  22  30
ATOM     30  O   UNL     1       7.117   4.050  18.201  0.00  0.00    +0.000 OA
ATOM     31  H   UNL     1       8.043   4.197  18.453  0.00  0.00    +0.000 HD
ENDBRANCH  22  30
ENDBRANCH  20  22
ENDBRANCH   1  21
BRANCH  12  32
ATOM     32  O   UNL     1      -0.265  10.609  23.274  0.00  0.00    +0.000 OA
ATOM     33  H   UNL     1       0.469  10.989  23.790  0.00  0.00    +0.000 HD
ENDBRANCH  12  32
TORSDOF 6
ENDMDL
MODEL 8
REMARK VINA RESULT:      -7.5      2.397      3.277
REMARK  Name = 
REMARK  8 active torsions:
REMARK  status: ('A' for Active; 'I' for Inactive)
REMARK    1  A    between atoms: C_1  and  C_2
REMARK    2  A    between atoms: C_4  and  C_5
REMARK    3  A    between atoms: C_5  and  C_6
REMARK    4  A    between atoms: C_5  and  O_7
REMARK    5  A    between atoms: C_5  and  C_8
REMARK    6  A    between atoms: C_9  and  C_10
REMARK    7  A    between atoms: C_18  and  C_19
REMARK    8  A    between atoms: C_24  and  O_25
REMARK                            x       y       z     vdW  Elec       q    Type
REMARK                         _______ _______ _______ _____ _____    ______ ____
ROOT
ATOM      1  C   UNL     1       1.392   8.565  19.802  0.00  0.00    +0.000 A 
ATOM      2  C   UNL     1       0.850   7.935  20.914  0.00  0.00    +0.000 A 
ATOM      3  C   UNL     1       1.191   6.613  21.193  0.00  0.00    +0.000 A 
ATOM      4  C   UNL     1       2.049   5.881  20.357  0.00  0.00    +0.000 A 
ATOM      5  C   UNL     1       2.605   6.505  19.223  0.00  0.00    +0.000 A 
ATOM      6  C   UNL     1       2.270   7.856  18.967  0.00  0.00    +0.000 A 
ATOM      7  C   UNL     1       3.481   5.828  18.266  0.00  0.00    +0.000 A 
ATOM      8  N   UNL     1       4.493   6.482  17.561  0.00  0.00    +0.000 NA
ATOM      9  C   UNL     1       5.095   5.618  16.757  0.00  0.00    +0.000 A 
ATOM     10  S   UNL     1       4.470   4.026  16.774  0.00  0.00    +0.000 S 
ATOM     11  C   UNL     1       3.318   4.495  17.945  0.00  0.00    +0.000 A 
ATOM     12  C   UNL     1       2.324   3.563  18.551  0.00  0.00    +0.000 C 
ATOM     13  C   UNL     1       2.580   3.490  20.055  0.00  0.00    +0.000 C 
ATOM     14  O   UNL     1       2.252   4.625  20.848  0.00  0.00    +0.000 OA
ENDROOT
BRANCH   9  15
ATOM     15  C   UNL     1       6.229   5.934  15.890  0.00  0.00    +0.000 C 
ATOM     16  N   UNL     1       7.331   6.450  16.522  0.00  0.00    +0.000 N 
ATOM     17  O   UNL     1       6.272   5.768  14.673  0.00  0.00    +0.000 OA
ATOM     18  H   UNL     1       7.350   6.556  17.527  0.00  0.00    +0.000 HD
ATOM     19  H   UNL     1       8.149   6.647  15.963  0.00  0.00    +0.000 HD
ENDBRANCH   9  15
BRANCH   1  21
ATOM     20  C   UNL     1       0.741  11.074  19.305  0.00  0.00    +0.000 C 
ATOM     21  C   UNL     1       1.050   9.935  19.528  0.00  0.00    +0.000 C 
BRANCH  20  22
ATOM     22  C   UNL     1       0.376  12.498  19.105  0.00  0.00    +0.000 C 
ATOM     23  C   UNL     1      -0.721  12.600  18.035  0.00  0.00    +0.000 C 
BRANCH  22  27
ATOM     24  C   UNL     1       3.658  16.250  17.881  0.00  0.00    +0.000 C 
ATOM     25  C   UNL     1       2.922  15.016  18.205  0.00  0.00    +0.000 A 
ATOM     26  C   UNL     1       1.668  14.752  18.696  0.00  0.00    +0.000 A 
ATOM     27  C   UNL     1       1.579  13.335  18.727  0.00  0.00    +0.000 A 
ATOM     28  N   UNL     1       2.725  12.783  18.291  0.00  0.00    +0.000 NA
ATOM     29  O   UNL     1       3.561  13.840  17.971  0.00  0.00    +0.000 OA
ENDBRANCH  22  27
BRANCH  22  30
ATOM     30  O   UNL     1      -0.200  12.984  20.331  0.00  0.00    +0.000 OA
ATOM     31  H   UNL     1       0.499  13.480  20.788  0.00  0.00    +0.000 HD
ENDBRANCH  22  30
ENDBRANCH  20  22
ENDBRANCH   1  21
BRANCH  12  32
ATOM     32  O   UNL     1       2.460   2.263  17.975  0.00  0.00    +0.000 OA
ATOM     33  H   UNL     1       1.897   2.232  17.181  0.00  0.00    +0.000 HD
ENDBRANCH  12  32
TORSDOF 6
ENDMDL
MODEL 9
REMARK VINA RESULT:      -7.5      2.808      8.783
REMARK  Name = 
REMARK  8 active torsions:
REMARK  status: ('A' for Active; 'I' for Inactive)
REMARK    1  A    between atoms: C_1  and  C_2
REMARK    2  A    between atoms: C_4  and  C_5
REMARK    3  A    between atoms: C_5  and  C_6
REMARK    4  A    between atoms: C_5  and  O_7
REMARK    5  A    between atoms: C_5  and  C_8
REMARK    6  A    between atoms: C_9  and  C_10
REMARK    7  A    between atoms: C_18  and  C_19
REMARK    8  A    between atoms: C_24  and  O_25
REMARK                            x       y       z     vdW  Elec       q    Type
REMARK                         _______ _______ _______ _____ _____    ______ ____
ROOT
ATOM      1  C   UNL     1       1.812   7.756  20.156  0.00  0.00    +0.000 A 
ATOM      2  C   UNL     1       2.033   7.930  21.516  0.00  0.00    +0.000 A 
ATOM      3  C   UNL     1       1.399   8.972  22.191  0.00  0.00    +0.000 A 
ATOM      4  C   UNL     1       0.561   9.880  21.525  0.00  0.00    +0.000 A 
ATOM      5  C   UNL     1       0.329   9.720  20.145  0.00  0.00    +0.000 A 
ATOM      6  C   UNL     1       0.959   8.641  19.478  0.00  0.00    +0.000 A 
ATOM      7  C   UNL     1      -0.496  10.625  19.344  0.00  0.00    +0.000 A 
ATOM      8  N   UNL     1      -1.233  10.209  18.235  0.00  0.00    +0.000 NA
ATOM      9  C   UNL     1      -1.854  11.252  17.705  0.00  0.00    +0.000 A 
ATOM     10  S   UNL     1      -1.564  12.756  18.466  0.00  0.00    +0.000 S 
ATOM     11  C   UNL     1      -0.547  11.982  19.600  0.00  0.00    +0.000 A 
ATOM     12  C   UNL     1       0.134  12.687  20.723  0.00  0.00    +0.000 C 
ATOM     13  C   UNL     1      -0.371  12.106  22.041  0.00  0.00    +0.000 C 
ATOM     14  O   UNL     1       0.039  10.790  22.396  0.00  0.00    +0.000 OA
ENDROOT
BRANCH   9  15
ATOM     15  C   UNL     1      -2.749  11.195  16.550  0.00  0.00    +0.000 C 
ATOM     16  N   UNL     1      -3.959  11.819  16.709  0.00  0.00    +0.000 N 
ATOM     17  O   UNL     1      -2.501  10.652  15.475  0.00  0.00    +0.000 OA
ATOM     18  H   UNL     1      -4.178  12.316  17.561  0.00  0.00    +0.000 HD
ATOM     19  H   UNL     1      -4.591  11.833  15.921  0.00  0.00    +0.000 HD
ENDBRANCH   9  15
BRANCH   1  21
ATOM     20  C   UNL     1       2.990   5.749  18.914  0.00  0.00    +0.000 C 
ATOM     21  C   UNL     1       2.455   6.670  19.468  0.00  0.00    +0.000 C 
BRANCH  20  22
ATOM     22  C   UNL     1       3.582   4.586  18.208  0.00  0.00    +0.000 C 
ATOM     23  C   UNL     1       4.398   3.744  19.201  0.00  0.00    +0.000 C 
BRANCH  22  27
ATOM     24  C   UNL     1       6.789   4.880  14.212  0.00  0.00    +0.000 C 
ATOM     25  C   UNL     1       5.836   5.052  15.323  0.00  0.00    +0.000 A 
ATOM     26  C   UNL     1       5.157   4.185  16.140  0.00  0.00    +0.000 A 
ATOM     27  C   UNL     1       4.435   5.018  17.036  0.00  0.00    +0.000 A 
ATOM     28  N   UNL     1       4.662   6.314  16.758  0.00  0.00    +0.000 NA
ATOM     29  O   UNL     1       5.535   6.327  15.682  0.00  0.00    +0.000 OA
ENDBRANCH  22  27
BRANCH  22  30
ATOM     30  O   UNL     1       2.502   3.750  17.753  0.00  0.00    +0.000 OA
ATOM     31  H   UNL     1       2.884   3.128  17.112  0.00  0.00    +0.000 HD
ENDBRANCH  22  30
ENDBRANCH  20  22
ENDBRANCH   1  21
BRANCH  12  32
ATOM     32  O   UNL     1      -0.158  14.085  20.669  0.00  0.00    +0.000 OA
ATOM     33  H   UNL     1      -1.115  14.180  20.514  0.00  0.00    +0.000 HD
ENDBRANCH  12  32
TORSDOF 6
ENDMDL
