MODEL 1
REMARK VINA RESULT:      -8.1      0.000      0.000
REMARK  Name = 
REMARK  10 active torsions:
REMARK  status: ('A' for Active; 'I' for Inactive)
REMARK    1  A    between atoms: C_1  and  O_2
REMARK    2  A    between atoms: O_2  and  C_3
REMARK    3  A    between atoms: C_3  and  C_5
REMARK    4  A    between atoms: C_8  and  C_9
REMARK    5  A    between atoms: C_12  and  C_13
REMARK    6  A    between atoms: C_13  and  C_15
REMARK    7  A    between atoms: C_15  and  C_16
REMARK    8  A    between atoms: C_16  and  C_17
REMARK    9  A    between atoms: C_20  and  O_21
REMARK   10  A    between atoms: O_21  and  C_22
REMARK                            x       y       z     vdW  Elec       q    Type
REMARK                         _______ _______ _______ _____ _____    ______ ____
ROOT
ATOM      1  C   UNL     1       8.035   7.677  18.322  0.00  0.00    +0.000 C 
ATOM      2  O   UNL     1       8.705   7.050  19.145  0.00  0.00    +0.000 OA
ENDROOT
BRANCH   1   6
ATOM      3  C   UNL     1       5.118   5.925  17.247  0.00  0.00    +0.000 A 
ATOM      4  C   UNL     1       5.594   6.434  16.060  0.00  0.00    +0.000 A 
ATOM      5  N   UNL     1       6.724   7.183  16.278  0.00  0.00    +0.000 NA
ATOM      6  C   UNL     1       6.914   7.098  17.585  0.00  0.00    +0.000 A 
ATOM      7  O   UNL     1       5.962   6.359  18.242  0.00  0.00    +0.000 OA
BRANCH   3  11
ATOM      8  C   UNL     1       2.092   3.304  18.479  0.00  0.00    +0.000 A 
ATOM      9  C   UNL     1       1.750   4.637  18.249  0.00  0.00    +0.000 A 
ATOM     10  C   UNL     1       2.727   5.523  17.807  0.00  0.00    +0.000 A 
ATOM     11  C   UNL     1       4.019   5.049  17.610  0.00  0.00    +0.000 A 
ATOM     12  N   UNL     1       4.368   3.751  17.792  0.00  0.00    +0.000 NA
ATOM     13  C   UNL     1       3.398   2.908  18.225  0.00  0.00    +0.000 A 
BRANCH   8  14
ATOM     14  C   UNL     1       1.143   2.307  19.005  0.00  0.00    +0.000 C 
ATOM     15  O   UNL     1       0.165   1.916  18.391  0.00  0.00    +0.000 OA
BRANCH  14  17
ATOM     16  C   UNL     1       1.277   2.847  21.278  0.00  0.00    +0.000 C 
ATOM     17  O   UNL     1       1.528   1.900  20.239  0.00  0.00    +0.000 OA
ENDBRANCH  14  17
ENDBRANCH   8  14
ENDBRANCH   3  11
ENDBRANCH   1   6
BRANCH   1  18
ATOM     18  C   UNL     1       8.312   9.145  18.022  0.00  0.00    +0.000 C 
BRANCH  18  19
ATOM     19  C   UNL     1       9.018   9.839  19.189  0.00  0.00    +0.000 C 
BRANCH  19  20
ATOM     20  C   UNL     1       9.842  11.031  18.752  0.00  0.00    +0.000 A 
ATOM     21  C   UNL     1      11.110  11.281  19.292  0.00  0.00    +0.000 A 
ATOM     22  C   UNL     1      11.865  12.382  18.857  0.00  0.00    +0.000 A 
ATOM     23  C   UNL     1      11.360  13.239  17.882  0.00  0.00    +0.000 A 
ATOM     24  C   UNL     1      10.074  13.023  17.380  0.00  0.00    +0.000 A 
ATOM     25  C   UNL     1       9.332  11.915  17.790  0.00  0.00    +0.000 A 
BRANCH  23  26
ATOM     26  O   UNL     1      12.170  14.294  17.520  0.00  0.00    +0.000 OA
BRANCH  26  27
ATOM     27  C   UNL     1      11.851  15.579  17.902  0.00  0.00    +0.000 A 
ATOM     28  C   UNL     1      11.083  15.708  19.061  0.00  0.00    +0.000 A 
ATOM     29  C   UNL     1      10.703  16.975  19.511  0.00  0.00    +0.000 A 
ATOM     30  C   UNL     1      11.091  18.114  18.804  0.00  0.00    +0.000 A 
ATOM     31  C   UNL     1      11.882  17.990  17.666  0.00  0.00    +0.000 A 
ATOM     32  C   UNL     1      12.287  16.728  17.234  0.00  0.00    +0.000 A 
ENDBRANCH  26  27
ENDBRANCH  23  26
ENDBRANCH  19  20
ENDBRANCH  18  19
ENDBRANCH   1  18
TORSDOF 9
ENDMDL
MODEL 2
REMARK VINA RESULT:      -8.0      5.511      9.708
REMARK  Name = 
REMARK  10 active torsions:
REMARK  status: ('A' for Active; 'I' for Inactive)
REMARK    1  A    between atoms: C_1  and  O_2
REMARK    2  A    between atoms: O_2  and  C_3
REMARK    3  A    between atoms: C_3  and  C_5
REMARK    4  A    between atoms: C_8  and  C_9
REMARK    5  A    between atoms: C_12  and  C_13
REMARK    6  A    between atoms: C_13  and  C_15
REMARK    7  A    between atoms: C_15  and  C_16
REMARK    8  A    between atoms: C_16  and  C_17
REMARK    9  A    between atoms: C_20  and  O_21
REMARK   10  A    between atoms: O_21  and  C_22
REMARK                            x       y       z     vdW  Elec       q    Type
REMARK                         _______ _______ _______ _____ _____    ______ ____
ROOT
ATOM      1  C   UNL     1       1.393   4.161  20.776  0.00  0.00    +0.000 C 
ATOM      2  O   UNL     1       1.829   3.540  21.749  0.00  0.00    +0.000 OA
ENDROOT
BRANCH   1   6
ATOM      3  C   UNL     1       1.313   7.728  20.842  0.00  0.00    +0.000 A 
ATOM      4  C   UNL     1       2.200   7.485  19.818  0.00  0.00    +0.000 A 
ATOM      5  N   UNL     1       2.390   6.135  19.658  0.00  0.00    +0.000 NA
ATOM      6  C   UNL     1       1.604   5.593  20.574  0.00  0.00    +0.000 A 
ATOM      7  O   UNL     1       0.929   6.507  21.344  0.00  0.00    +0.000 OA
BRANCH   3  11
ATOM      8  C   UNL     1      -0.535  11.209  22.260  0.00  0.00    +0.000 A 
ATOM      9  C   UNL     1      -0.524  10.089  23.091  0.00  0.00    +0.000 A 
ATOM     10  C   UNL     1       0.112   8.928  22.661  0.00  0.00    +0.000 A 
ATOM     11  C   UNL     1       0.715   8.924  21.409  0.00  0.00    +0.000 A 
ATOM     12  N   UNL     1       0.749  10.011  20.597  0.00  0.00    +0.000 NA
ATOM     13  C   UNL     1       0.121  11.128  21.040  0.00  0.00    +0.000 A 
BRANCH   8  14
ATOM     14  C   UNL     1      -1.233  12.460  22.604  0.00  0.00    +0.000 C 
ATOM     15  O   UNL     1      -2.401  12.680  22.329  0.00  0.00    +0.000 OA
BRANCH  14  17
ATOM     16  C   UNL     1       0.006  14.443  22.514  0.00  0.00    +0.000 C 
ATOM     17  O   UNL     1      -0.396  13.297  23.265  0.00  0.00    +0.000 OA
ENDBRANCH  14  17
ENDBRANCH   8  14
ENDBRANCH   3  11
ENDBRANCH   1   6
BRANCH   1  18
ATOM     18  C   UNL     1       0.609   3.464  19.672  0.00  0.00    +0.000 C 
BRANCH  18  19
ATOM     19  C   UNL     1       1.451   2.403  18.961  0.00  0.00    +0.000 C 
BRANCH  19  20
ATOM     20  C   UNL     1       2.730   2.961  18.378  0.00  0.00    +0.000 A 
ATOM     21  C   UNL     1       2.748   3.608  17.135  0.00  0.00    +0.000 A 
ATOM     22  C   UNL     1       3.944   4.136  16.623  0.00  0.00    +0.000 A 
ATOM     23  C   UNL     1       5.129   4.022  17.347  0.00  0.00    +0.000 A 
ATOM     24  C   UNL     1       5.125   3.332  18.562  0.00  0.00    +0.000 A 
ATOM     25  C   UNL     1       3.933   2.830  19.086  0.00  0.00    +0.000 A 
BRANCH  23  26
ATOM     26  O   UNL     1       6.252   4.568  16.765  0.00  0.00    +0.000 OA
BRANCH  26  27
ATOM     27  C   UNL     1       6.929   5.594  17.388  0.00  0.00    +0.000 A 
ATOM     28  C   UNL     1       6.851   6.848  16.779  0.00  0.00    +0.000 A 
ATOM     29  C   UNL     1       7.519   7.941  17.338  0.00  0.00    +0.000 A 
ATOM     30  C   UNL     1       8.265   7.781  18.506  0.00  0.00    +0.000 A 
ATOM     31  C   UNL     1       8.320   6.539  19.132  0.00  0.00    +0.000 A 
ATOM     32  C   UNL     1       7.628   5.457  18.592  0.00  0.00    +0.000 A 
ENDBRANCH  26  27
ENDBRANCH  23  26
ENDBRANCH  19  20
ENDBRANCH  18  19
ENDBRANCH   1  18
TORSDOF 9
ENDMDL
MODEL 3
REMARK VINA RESULT:      -8.0      6.380      8.115
REMARK  Name = 
REMARK  10 active torsions:
REMARK  status: ('A' for Active; 'I' for Inactive)
REMARK    1  A    between atoms: C_1  and  O_2
REMARK    2  A    between atoms: O_2  and  C_3
REMARK    3  A    between atoms: C_3  and  C_5
REMARK    4  A    between atoms: C_8  and  C_9
REMARK    5  A    between atoms: C_12  and  C_13
REMARK    6  A    between atoms: C_13  and  C_15
REMARK    7  A    between atoms: C_15  and  C_16
REMARK    8  A    between atoms: C_16  and  C_17
REMARK    9  A    between atoms: C_20  and  O_21
REMARK   10  A    between atoms: O_21  and  C_22
REMARK                            x       y       z     vdW  Elec       q    Type
REMARK                         _______ _______ _______ _____ _____    ______ ____
ROOT
ATOM      1  C   UNL     1       1.277   8.663  21.118  0.00  0.00    +0.000 C 
ATOM      2  O   UNL     1       1.674   9.135  22.185  0.00  0.00    +0.000 OA
ENDROOT
BRANCH   1   6
ATOM      3  C   UNL     1       2.758   5.998  19.263  0.00  0.00    +0.000 A 
ATOM      4  C   UNL     1       1.973   5.313  20.163  0.00  0.00    +0.000 A 
ATOM      5  N   UNL     1       1.332   6.188  21.004  0.00  0.00    +0.000 NA
ATOM      6  C   UNL     1       1.729   7.379  20.586  0.00  0.00    +0.000 A 
ATOM      7  O   UNL     1       2.614   7.338  19.537  0.00  0.00    +0.000 OA
BRANCH   3  11
ATOM      8  C   UNL     1       5.364   5.017  16.134  0.00  0.00    +0.000 A 
ATOM      9  C   UNL     1       4.621   3.989  16.714  0.00  0.00    +0.000 A 
ATOM     10  C   UNL     1       3.722   4.290  17.733  0.00  0.00    +0.000 A 
ATOM     11  C   UNL     1       3.596   5.612  18.143  0.00  0.00    +0.000 A 
ATOM     12  N   UNL     1       4.281   6.634  17.571  0.00  0.00    +0.000 NA
ATOM     13  C   UNL     1       5.151   6.314  16.581  0.00  0.00    +0.000 A 
BRANCH   8  14
ATOM     14  C   UNL     1       6.381   4.788  15.093  0.00  0.00    +0.000 C 
ATOM     15  O   UNL     1       7.393   5.458  14.978  0.00  0.00    +0.000 OA
BRANCH  14  17
ATOM     16  C   UNL     1       6.431   3.849  12.950  0.00  0.00    +0.000 C 
ATOM     17  O   UNL     1       6.026   3.736  14.315  0.00  0.00    +0.000 OA
ENDBRANCH  14  17
ENDBRANCH   8  14
ENDBRANCH   3  11
ENDBRANCH   1   6
BRANCH   1  18
ATOM     18  C   UNL     1       0.240   9.383  20.265  0.00  0.00    +0.000 C 
BRANCH  18  19
ATOM     19  C   UNL     1       0.853   9.947  18.982  0.00  0.00    +0.000 C 
BRANCH  19  20
ATOM     20  C   UNL     1       1.165  11.424  19.079  0.00  0.00    +0.000 A 
ATOM     21  C   UNL     1       2.075  12.039  18.208  0.00  0.00    +0.000 A 
ATOM     22  C   UNL     1       2.334  13.415  18.304  0.00  0.00    +0.000 A 
ATOM     23  C   UNL     1       1.689  14.186  19.268  0.00  0.00    +0.000 A 
ATOM     24  C   UNL     1       0.821  13.568  20.172  0.00  0.00    +0.000 A 
ATOM     25  C   UNL     1       0.541  12.205  20.062  0.00  0.00    +0.000 A 
BRANCH  23  26
ATOM     26  O   UNL     1       2.008  15.527  19.288  0.00  0.00    +0.000 OA
BRANCH  26  27
ATOM     27  C   UNL     1       1.282  16.425  18.536  0.00  0.00    +0.000 A 
ATOM     28  C   UNL     1       2.010  17.222  17.649  0.00  0.00    +0.000 A 
ATOM     29  C   UNL     1       1.355  18.169  16.859  0.00  0.00    +0.000 A 
ATOM     30  C   UNL     1      -0.029  18.319  16.951  0.00  0.00    +0.000 A 
ATOM     31  C   UNL     1      -0.762  17.506  17.812  0.00  0.00    +0.000 A 
ATOM     32  C   UNL     1      -0.111  16.541  18.578  0.00  0.00    +0.000 A 
ENDBRANCH  26  27
ENDBRANCH  23  26
ENDBRANCH  19  20
ENDBRANCH  18  19
ENDBRANCH   1  18
TORSDOF 9
ENDMDL
MODEL 4
REMARK VINA RESULT:      -8.0      4.960     10.730
REMARK  Name = 
REMARK  10 active torsions:
REMARK  status: ('A' for Active; 'I' for Inactive)
REMARK    1  A    between atoms: C_1  and  O_2
REMARK    2  A    between atoms: O_2  and  C_3
REMARK    3  A    between atoms: C_3  and  C_5
REMARK    4  A    between atoms: C_8  and  C_9
REMARK    5  A    between atoms: C_12  and  C_13
REMARK    6  A    between atoms: C_13  and  C_15
REMARK    7  A    between atoms: C_15  and  C_16
REMARK    8  A    between atoms: C_16  and  C_17
REMARK    9  A    between atoms: C_20  and  O_21
REMARK   10  A    between atoms: O_21  and  C_22
REMARK                            x       y       z     vdW  Elec       q    Type
REMARK                         _______ _______ _______ _____ _____    ______ ____
ROOT
ATOM      1  C   UNL     1       9.926  11.009  18.968  0.00  0.00    +0.000 C 
ATOM      2  O   UNL     1      10.492  11.353  17.928  0.00  0.00    +0.000 OA
ENDROOT
BRANCH   1   6
ATOM      3  C   UNL     1       8.929  12.643  21.980  0.00  0.00    +0.000 A 
ATOM      4  C   UNL     1       9.916  13.483  21.517  0.00  0.00    +0.000 A 
ATOM      5  N   UNL     1      10.456  12.994  20.354  0.00  0.00    +0.000 NA
ATOM      6  C   UNL     1       9.775  11.881  20.131  0.00  0.00    +0.000 A 
ATOM      7  O   UNL     1       8.838  11.596  21.092  0.00  0.00    +0.000 OA
BRANCH   3  11
ATOM      8  C   UNL     1       6.362  12.513  25.287  0.00  0.00    +0.000 A 
ATOM      9  C   UNL     1       7.071  13.691  25.055  0.00  0.00    +0.000 A 
ATOM     10  C   UNL     1       7.906  13.776  23.944  0.00  0.00    +0.000 A 
ATOM     11  C   UNL     1       8.008  12.676  23.101  0.00  0.00    +0.000 A 
ATOM     12  N   UNL     1       7.302  11.531  23.286  0.00  0.00    +0.000 NA
ATOM     13  C   UNL     1       6.498  11.475  24.376  0.00  0.00    +0.000 A 
BRANCH   8  14
ATOM     14  C   UNL     1       5.503  12.308  26.466  0.00  0.00    +0.000 C 
ATOM     15  O   UNL     1       4.762  13.165  26.920  0.00  0.00    +0.000 OA
BRANCH  14  17
ATOM     16  C   UNL     1       6.257  10.976  28.236  0.00  0.00    +0.000 C 
ATOM     17  O   UNL     1       5.654  11.048  26.943  0.00  0.00    +0.000 OA
ENDBRANCH  14  17
ENDBRANCH   8  14
ENDBRANCH   3  11
ENDBRANCH   1   6
BRANCH   1  18
ATOM     18  C   UNL     1       9.300   9.628  19.114  0.00  0.00    +0.000 C 
BRANCH  18  19
ATOM     19  C   UNL     1       8.474   9.245  17.884  0.00  0.00    +0.000 C 
BRANCH  19  20
ATOM     20  C   UNL     1       7.794   7.902  18.028  0.00  0.00    +0.000 A 
ATOM     21  C   UNL     1       8.227   6.958  18.969  0.00  0.00    +0.000 A 
ATOM     22  C   UNL     1       7.567   5.726  19.098  0.00  0.00    +0.000 A 
ATOM     23  C   UNL     1       6.473   5.427  18.290  0.00  0.00    +0.000 A 
ATOM     24  C   UNL     1       6.071   6.343  17.315  0.00  0.00    +0.000 A 
ATOM     25  C   UNL     1       6.707   7.580  17.202  0.00  0.00    +0.000 A 
BRANCH  23  26
ATOM     26  O   UNL     1       5.890   4.193  18.486  0.00  0.00    +0.000 OA
BRANCH  26  27
ATOM     27  C   UNL     1       4.518   4.066  18.496  0.00  0.00    +0.000 A 
ATOM     28  C   UNL     1       3.949   3.413  17.401  0.00  0.00    +0.000 A 
ATOM     29  C   UNL     1       2.563   3.253  17.324  0.00  0.00    +0.000 A 
ATOM     30  C   UNL     1       1.745   3.744  18.343  0.00  0.00    +0.000 A 
ATOM     31  C   UNL     1       2.312   4.369  19.450  0.00  0.00    +0.000 A 
ATOM     32  C   UNL     1       3.696   4.500  19.541  0.00  0.00    +0.000 A 
ENDBRANCH  26  27
ENDBRANCH  23  26
ENDBRANCH  19  20
ENDBRANCH  18  19
ENDBRANCH   1  18
TORSDOF 9
ENDMDL
MODEL 5
REMARK VINA RESULT:      -7.9      6.041      9.764
REMARK  Name = 
REMARK  10 active torsions:
REMARK  status: ('A' for Active; 'I' for Inactive)
REMARK    1  A    between atoms: C_1  and  O_2
REMARK    2  A    between atoms: O_2  and  C_3
REMARK    3  A    between atoms: C_3  and  C_5
REMARK    4  A    between atoms: C_8  and  C_9
REMARK    5  A    between atoms: C_12  and  C_13
REMARK    6  A    between atoms: C_13  and  C_15
REMARK    7  A    between atoms: C_15  and  C_16
REMARK    8  A    between atoms: C_16  and  C_17
REMARK    9  A    between atoms: C_20  and  O_21
REMARK   10  A    between atoms: O_21  and  C_22
REMARK                            x       y       z     vdW  Elec       q    Type
REMARK                         _______ _______ _______ _____ _____    ______ ____
ROOT
ATOM      1  C   UNL     1       1.526   3.438  20.988  0.00  0.00    +0.000 C 
ATOM      2  O   UNL     1       2.046   2.699  21.826  0.00  0.00    +0.000 OA
ENDROOT
BRANCH   1   6
ATOM      3  C   UNL     1       1.930   6.933  20.390  0.00  0.00    +0.000 A 
ATOM      4  C   UNL     1       3.171   6.443  20.051  0.00  0.00    +0.000 A 
ATOM      5  N   UNL     1       3.223   5.086  20.250  0.00  0.00    +0.000 NA
ATOM      6  C   UNL     1       2.011   4.783  20.686  0.00  0.00    +0.000 A 
ATOM      7  O   UNL     1       1.174   5.864  20.812  0.00  0.00    +0.000 OA
BRANCH   3  11
ATOM      8  C   UNL     1       0.050  10.656  20.009  0.00  0.00    +0.000 A 
ATOM      9  C   UNL     1      -0.189   9.917  21.168  0.00  0.00    +0.000 A 
ATOM     10  C   UNL     1       0.448   8.692  21.338  0.00  0.00    +0.000 A 
ATOM     11  C   UNL     1       1.304   8.241  20.339  0.00  0.00    +0.000 A 
ATOM     12  N   UNL     1       1.580   8.957  19.220  0.00  0.00    +0.000 NA
ATOM     13  C   UNL     1       0.945  10.147  19.079  0.00  0.00    +0.000 A 
BRANCH   8  14
ATOM     14  C   UNL     1      -0.624  11.933  19.714  0.00  0.00    +0.000 C 
ATOM     15  O   UNL     1      -0.623  12.888  20.472  0.00  0.00    +0.000 OA
BRANCH  14  17
ATOM     16  C   UNL     1      -2.598  11.520  18.527  0.00  0.00    +0.000 C 
ATOM     17  O   UNL     1      -1.216  11.879  18.495  0.00  0.00    +0.000 OA
ENDBRANCH  14  17
ENDBRANCH   8  14
ENDBRANCH   3  11
ENDBRANCH   1   6
BRANCH   1  18
ATOM     18  C   UNL     1       0.328   2.986  20.162  0.00  0.00    +0.000 C 
BRANCH  18  19
ATOM     19  C   UNL     1       0.751   2.110  18.981  0.00  0.00    +0.000 C 
BRANCH  19  20
ATOM     20  C   UNL     1       2.018   2.595  18.312  0.00  0.00    +0.000 A 
ATOM     21  C   UNL     1       2.023   3.728  17.488  0.00  0.00    +0.000 A 
ATOM     22  C   UNL     1       3.215   4.172  16.894  0.00  0.00    +0.000 A 
ATOM     23  C   UNL     1       4.408   3.489  17.117  0.00  0.00    +0.000 A 
ATOM     24  C   UNL     1       4.398   2.329  17.896  0.00  0.00    +0.000 A 
ATOM     25  C   UNL     1       3.220   1.901  18.510  0.00  0.00    +0.000 A 
BRANCH  23  26
ATOM     26  O   UNL     1       5.526   3.997  16.491  0.00  0.00    +0.000 OA
BRANCH  26  27
ATOM     27  C   UNL     1       6.305   4.943  17.120  0.00  0.00    +0.000 A 
ATOM     28  C   UNL     1       6.280   6.228  16.575  0.00  0.00    +0.000 A 
ATOM     29  C   UNL     1       7.052   7.245  17.143  0.00  0.00    +0.000 A 
ATOM     30  C   UNL     1       7.848   6.979  18.257  0.00  0.00    +0.000 A 
ATOM     31  C   UNL     1       7.852   5.706  18.822  0.00  0.00    +0.000 A 
ATOM     32  C   UNL     1       7.059   4.701  18.273  0.00  0.00    +0.000 A 
ENDBRANCH  26  27
ENDBRANCH  23  26
ENDBRANCH  19  20
ENDBRANCH  18  19
ENDBRANCH   1  18
TORSDOF 9
ENDMDL
MODEL 6
REMARK VINA RESULT:      -7.8      0.881      1.148
REMARK  Name = 
REMARK  10 active torsions:
REMARK  status: ('A' for Active; 'I' for Inactive)
REMARK    1  A    between atoms: C_1  and  O_2
REMARK    2  A    between atoms: O_2  and  C_3
REMARK    3  A    between atoms: C_3  and  C_5
REMARK    4  A    between atoms: C_8  and  C_9
REMARK    5  A    between atoms: C_12  and  C_13
REMARK    6  A    between atoms: C_13  and  C_15
REMARK    7  A    between atoms: C_15  and  C_16
REMARK    8  A    between atoms: C_16  and  C_17
REMARK    9  A    between atoms: C_20  and  O_21
REMARK   10  A    between atoms: O_21  and  C_22
REMARK                            x       y       z     vdW  Elec       q    Type
REMARK                         _______ _______ _______ _____ _____    ______ ____
ROOT
ATOM      1  C   UNL     1       8.017   7.540  18.266  0.00  0.00    +0.000 C 
ATOM      2  O   UNL     1       8.726   6.858  19.010  0.00  0.00    +0.000 OA
ENDROOT
BRANCH   1   6
ATOM      3  C   UNL     1       4.973   5.981  17.247  0.00  0.00    +0.000 A 
ATOM      4  C   UNL     1       5.515   6.359  16.039  0.00  0.00    +0.000 A 
ATOM      5  N   UNL     1       6.703   7.018  16.231  0.00  0.00    +0.000 NA
ATOM      6  C   UNL     1       6.862   7.011  17.545  0.00  0.00    +0.000 A 
ATOM      7  O   UNL     1       5.835   6.409  18.229  0.00  0.00    +0.000 OA
BRANCH   3  11
ATOM      8  C   UNL     1       1.721   3.663  18.509  0.00  0.00    +0.000 A 
ATOM      9  C   UNL     1       1.652   5.044  18.694  0.00  0.00    +0.000 A 
ATOM     10  C   UNL     1       2.703   5.843  18.254  0.00  0.00    +0.000 A 
ATOM     11  C   UNL     1       3.794   5.235  17.644  0.00  0.00    +0.000 A 
ATOM     12  N   UNL     1       3.869   3.899  17.421  0.00  0.00    +0.000 NA
ATOM     13  C   UNL     1       2.832   3.143  17.860  0.00  0.00    +0.000 A 
BRANCH   8  14
ATOM     14  C   UNL     1       0.687   2.732  18.994  0.00  0.00    +0.000 C 
ATOM     15  O   UNL     1       0.205   1.843  18.312  0.00  0.00    +0.000 OA
BRANCH  14  17
ATOM     16  C   UNL     1       1.410   2.685  21.219  0.00  0.00    +0.000 C 
ATOM     17  O   UNL     1       0.379   3.007  20.285  0.00  0.00    +0.000 OA
ENDBRANCH  14  17
ENDBRANCH   8  14
ENDBRANCH   3  11
ENDBRANCH   1   6
BRANCH   1  18
ATOM     18  C   UNL     1       8.280   9.026  18.059  0.00  0.00    +0.000 C 
BRANCH  18  19
ATOM     19  C   UNL     1       8.913   9.669  19.294  0.00  0.00    +0.000 C 
BRANCH  19  20
ATOM     20  C   UNL     1       9.648  10.953  18.978  0.00  0.00    +0.000 A 
ATOM     21  C   UNL     1      10.149  11.213  17.696  0.00  0.00    +0.000 A 
ATOM     22  C   UNL     1      10.811  12.420  17.420  0.00  0.00    +0.000 A 
ATOM     23  C   UNL     1      10.977  13.374  18.421  0.00  0.00    +0.000 A 
ATOM     24  C   UNL     1      10.526  13.096  19.714  0.00  0.00    +0.000 A 
ATOM     25  C   UNL     1       9.844  11.909  19.984  0.00  0.00    +0.000 A 
BRANCH  23  26
ATOM     26  O   UNL     1      11.641  14.526  18.059  0.00  0.00    +0.000 OA
BRANCH  26  27
ATOM     27  C   UNL     1      11.115  15.760  18.376  0.00  0.00    +0.000 A 
ATOM     28  C   UNL     1       9.908  16.096  17.760  0.00  0.00    +0.000 A 
ATOM     29  C   UNL     1       9.313  17.334  18.015  0.00  0.00    +0.000 A 
ATOM     30  C   UNL     1       9.921  18.236  18.888  0.00  0.00    +0.000 A 
ATOM     31  C   UNL     1      11.109  17.891  19.528  0.00  0.00    +0.000 A 
ATOM     32  C   UNL     1      11.686  16.645  19.296  0.00  0.00    +0.000 A 
ENDBRANCH  26  27
ENDBRANCH  23  26
ENDBRANCH  19  20
ENDBRANCH  18  19
ENDBRANCH   1  18
TORSDOF 9
ENDMDL
MODEL 7
REMARK VINA RESULT:      -7.7      3.264      4.342
REMARK  Name = 
REMARK  10 active torsions:
REMARK  status: ('A' for Active; 'I' for Inactive)
REMARK    1  A    between atoms: C_1  and  O_2
REMARK    2  A    between atoms: O_2  and  C_3
REMARK    3  A    between atoms: C_3  and  C_5
REMARK    4  A    between atoms: C_8  and  C_9
REMARK    5  A    between atoms: C_12  and  C_13
REMARK    6  A    between atoms: C_13  and  C_15
REMARK    7  A    between atoms: C_15  and  C_16
REMARK    8  A    between atoms: C_16  and  C_17
REMARK    9  A    between atoms: C_20  and  O_21
REMARK   10  A    between atoms: O_21  and  C_22
REMARK                            x       y       z     vdW  Elec       q    Type
REMARK                         _______ _______ _______ _____ _____    ______ ____
ROOT
ATOM      1  C   UNL     1       7.192   5.424  17.973  0.00  0.00    +0.000 C 
ATOM      2  O   UNL     1       7.847   4.444  17.612  0.00  0.00    +0.000 OA
ENDROOT
BRANCH   1   6
ATOM      3  C   UNL     1       3.740   6.304  18.187  0.00  0.00    +0.000 A 
ATOM      4  C   UNL     1       3.671   4.968  17.867  0.00  0.00    +0.000 A 
ATOM      5  N   UNL     1       4.931   4.446  17.708  0.00  0.00    +0.000 NA
ATOM      6  C   UNL     1       5.732   5.471  17.951  0.00  0.00    +0.000 A 
ATOM      7  O   UNL     1       5.073   6.642  18.233  0.00  0.00    +0.000 OA
BRANCH   3  11
ATOM      8  C   UNL     1       1.039   9.294  19.332  0.00  0.00    +0.000 A 
ATOM      9  C   UNL     1       1.534   9.323  18.028  0.00  0.00    +0.000 A 
ATOM     10  C   UNL     1       2.407   8.324  17.609  0.00  0.00    +0.000 A 
ATOM     11  C   UNL     1       2.761   7.326  18.509  0.00  0.00    +0.000 A 
ATOM     12  N   UNL     1       2.265   7.255  19.770  0.00  0.00    +0.000 NA
ATOM     13  C   UNL     1       1.418   8.241  20.154  0.00  0.00    +0.000 A 
BRANCH   8  14
ATOM     14  C   UNL     1       0.159  10.339  19.884  0.00  0.00    +0.000 C 
ATOM     15  O   UNL     1      -0.888  10.685  19.364  0.00  0.00    +0.000 OA
BRANCH  14  17
ATOM     16  C   UNL     1      -0.167  11.753  21.719  0.00  0.00    +0.000 C 
ATOM     17  O   UNL     1       0.681  10.829  21.035  0.00  0.00    +0.000 OA
ENDBRANCH  14  17
ENDBRANCH   8  14
ENDBRANCH   3  11
ENDBRANCH   1   6
BRANCH   1  18
ATOM     18  C   UNL     1       7.868   6.679  18.509  0.00  0.00    +0.000 C 
BRANCH  18  19
ATOM     19  C   UNL     1       7.732   7.855  17.540  0.00  0.00    +0.000 C 
BRANCH  19  20
ATOM     20  C   UNL     1       8.317   9.139  18.086  0.00  0.00    +0.000 A 
ATOM     21  C   UNL     1       9.033   9.163  19.290  0.00  0.00    +0.000 A 
ATOM     22  C   UNL     1       9.584  10.362  19.768  0.00  0.00    +0.000 A 
ATOM     23  C   UNL     1       9.425  11.544  19.048  0.00  0.00    +0.000 A 
ATOM     24  C   UNL     1       8.668  11.535  17.874  0.00  0.00    +0.000 A 
ATOM     25  C   UNL     1       8.142  10.339  17.383  0.00  0.00    +0.000 A 
BRANCH  23  26
ATOM     26  O   UNL     1       9.999  12.672  19.596  0.00  0.00    +0.000 OA
BRANCH  26  27
ATOM     27  C   UNL     1      10.693  13.555  18.798  0.00  0.00    +0.000 A 
ATOM     28  C   UNL     1      10.373  14.906  18.945  0.00  0.00    +0.000 A 
ATOM     29  C   UNL     1      11.019  15.868  18.164  0.00  0.00    +0.000 A 
ATOM     30  C   UNL     1      11.987  15.481  17.238  0.00  0.00    +0.000 A 
ATOM     31  C   UNL     1      12.331  14.138  17.110  0.00  0.00    +0.000 A 
ATOM     32  C   UNL     1      11.708  13.183  17.910  0.00  0.00    +0.000 A 
ENDBRANCH  26  27
ENDBRANCH  23  26
ENDBRANCH  19  20
ENDBRANCH  18  19
ENDBRANCH   1  18
TORSDOF 9
ENDMDL
MODEL 8
REMARK VINA RESULT:      -7.7      7.951     11.845
REMARK  Name = 
REMARK  10 active torsions:
REMARK  status: ('A' for Active; 'I' for Inactive)
REMARK    1  A    between atoms: C_1  and  O_2
REMARK    2  A    between atoms: O_2  and  C_3
REMARK    3  A    between atoms: C_3  and  C_5
REMARK    4  A    between atoms: C_8  and  C_9
REMARK    5  A    between atoms: C_12  and  C_13
REMARK    6  A    between atoms: C_13  and  C_15
REMARK    7  A    between atoms: C_15  and  C_16
REMARK    8  A    between atoms: C_16  and  C_17
REMARK    9  A    between atoms: C_20  and  O_21
REMARK   10  A    between atoms: O_21  and  C_22
REMARK                            x       y       z     vdW  Elec       q    Type
REMARK                         _______ _______ _______ _____ _____    ______ ____
ROOT
ATOM      1  C   UNL     1       1.010  10.008  18.965  0.00  0.00    +0.000 C 
ATOM      2  O   UNL     1       1.561  11.079  18.703  0.00  0.00    +0.000 OA
ENDROOT
BRANCH   1   6
ATOM      3  C   UNL     1       3.008   7.099  18.427  0.00  0.00    +0.000 A 
ATOM      4  C   UNL     1       2.407   6.810  19.631  0.00  0.00    +0.000 A 
ATOM      5  N   UNL     1       1.604   7.850  20.029  0.00  0.00    +0.000 NA
ATOM      6  C   UNL     1       1.724   8.735  19.053  0.00  0.00    +0.000 A 
ATOM      7  O   UNL     1       2.578   8.350  18.050  0.00  0.00    +0.000 OA
BRANCH   3  11
ATOM      8  C   UNL     1       5.724   5.200  15.866  0.00  0.00    +0.000 A 
ATOM      9  C   UNL     1       5.129   4.438  16.871  0.00  0.00    +0.000 A 
ATOM     10  C   UNL     1       4.197   5.033  17.716  0.00  0.00    +0.000 A 
ATOM     11  C   UNL     1       3.891   6.376  17.531  0.00  0.00    +0.000 A 
ATOM     12  N   UNL     1       4.429   7.129  16.539  0.00  0.00    +0.000 NA
ATOM     13  C   UNL     1       5.335   6.526  15.731  0.00  0.00    +0.000 A 
BRANCH   8  14
ATOM     14  C   UNL     1       6.763   4.674  14.964  0.00  0.00    +0.000 C 
ATOM     15  O   UNL     1       7.842   5.214  14.789  0.00  0.00    +0.000 OA
BRANCH  14  17
ATOM     16  C   UNL     1       5.761   3.688  13.093  0.00  0.00    +0.000 C 
ATOM     17  O   UNL     1       6.342   3.521  14.387  0.00  0.00    +0.000 OA
ENDBRANCH  14  17
ENDBRANCH   8  14
ENDBRANCH   3  11
ENDBRANCH   1   6
BRANCH   1  18
ATOM     18  C   UNL     1      -0.484   9.928  19.250  0.00  0.00    +0.000 C 
BRANCH  18  19
ATOM     19  C   UNL     1      -1.314  10.065  17.972  0.00  0.00    +0.000 C 
BRANCH  19  20
ATOM     20  C   UNL     1      -2.638  10.759  18.202  0.00  0.00    +0.000 A 
ATOM     21  C   UNL     1      -3.797  10.373  17.515  0.00  0.00    +0.000 A 
ATOM     22  C   UNL     1      -5.019  11.018  17.760  0.00  0.00    +0.000 A 
ATOM     23  C   UNL     1      -5.094  12.052  18.691  0.00  0.00    +0.000 A 
ATOM     24  C   UNL     1      -3.931  12.475  19.339  0.00  0.00    +0.000 A 
ATOM     25  C   UNL     1      -2.720  11.817  19.118  0.00  0.00    +0.000 A 
BRANCH  23  26
ATOM     26  O   UNL     1      -6.334  12.627  18.862  0.00  0.00    +0.000 OA
BRANCH  26  27
ATOM     27  C   UNL     1      -6.630  13.833  18.264  0.00  0.00    +0.000 A 
ATOM     28  C   UNL     1      -6.719  14.940  19.111  0.00  0.00    +0.000 A 
ATOM     29  C   UNL     1      -7.029  16.198  18.589  0.00  0.00    +0.000 A 
ATOM     30  C   UNL     1      -7.247  16.352  17.220  0.00  0.00    +0.000 A 
ATOM     31  C   UNL     1      -7.128  15.257  16.368  0.00  0.00    +0.000 A 
ATOM     32  C   UNL     1      -6.790  14.009  16.886  0.00  0.00    +0.000 A 
ENDBRANCH  26  27
ENDBRANCH  23  26
ENDBRANCH  19  20
ENDBRANCH  18  19
ENDBRANCH   1  18
TORSDOF 9
ENDMDL
MODEL 9
REMARK VINA RESULT:      -7.7      7.284     11.375
REMARK  Name = 
REMARK  10 active torsions:
REMARK  status: ('A' for Active; 'I' for Inactive)
REMARK    1  A    between atoms: C_1  and  O_2
REMARK    2  A    between atoms: O_2  and  C_3
REMARK    3  A    between atoms: C_3  and  C_5
REMARK    4  A    between atoms: C_8  and  C_9
REMARK    5  A    between atoms: C_12  and  C_13
REMARK    6  A    between atoms: C_13  and  C_15
REMARK    7  A    between atoms: C_15  and  C_16
REMARK    8  A    between atoms: C_16  and  C_17
REMARK    9  A    between atoms: C_20  and  O_21
REMARK   10  A    between atoms: O_21  and  C_22
REMARK                            x       y       z     vdW  Elec       q    Type
REMARK                         _______ _______ _______ _____ _____    ______ ____
ROOT
ATOM      1  C   UNL     1       1.248   8.678  20.294  0.00  0.00    +0.000 C 
ATOM      2  O   UNL     1       1.401   9.738  19.683  0.00  0.00    +0.000 OA
ENDROOT
BRANCH   1   6
ATOM      3  C   UNL     1       3.332   6.136  18.905  0.00  0.00    +0.000 A 
ATOM      4  C   UNL     1       2.621   5.433  19.851  0.00  0.00    +0.000 A 
ATOM      5  N   UNL     1       1.768   6.267  20.529  0.00  0.00    +0.000 NA
ATOM      6  C   UNL     1       1.968   7.449  19.969  0.00  0.00    +0.000 A 
ATOM      7  O   UNL     1       2.922   7.446  18.982  0.00  0.00    +0.000 OA
BRANCH   3  11
ATOM      8  C   UNL     1       5.959   5.067  15.823  0.00  0.00    +0.000 A 
ATOM      9  C   UNL     1       6.247   6.216  16.560  0.00  0.00    +0.000 A 
ATOM     10  C   UNL     1       5.411   6.577  17.612  0.00  0.00    +0.000 A 
ATOM     11  C   UNL     1       4.308   5.779  17.892  0.00  0.00    +0.000 A 
ATOM     12  N   UNL     1       4.027   4.638  17.214  0.00  0.00    +0.000 NA
ATOM     13  C   UNL     1       4.856   4.309  16.193  0.00  0.00    +0.000 A 
BRANCH   8  14
ATOM     14  C   UNL     1       6.750   4.638  14.656  0.00  0.00    +0.000 C 
ATOM     15  O   UNL     1       7.753   5.215  14.271  0.00  0.00    +0.000 OA
BRANCH  14  17
ATOM     16  C   UNL     1       6.057   3.582  12.687  0.00  0.00    +0.000 C 
ATOM     17  O   UNL     1       6.206   3.525  14.106  0.00  0.00    +0.000 OA
ENDBRANCH  14  17
ENDBRANCH   8  14
ENDBRANCH   3  11
ENDBRANCH   1   6
BRANCH   1  18
ATOM     18  C   UNL     1       0.298   8.573  21.480  0.00  0.00    +0.000 C 
BRANCH  18  19
ATOM     19  C   UNL     1       0.394   9.794  22.396  0.00  0.00    +0.000 C 
BRANCH  19  20
ATOM     20  C   UNL     1      -0.721  10.790  22.168  0.00  0.00    +0.000 A 
ATOM     21  C   UNL     1      -0.960  11.345  20.904  0.00  0.00    +0.000 A 
ATOM     22  C   UNL     1      -2.014  12.252  20.711  0.00  0.00    +0.000 A 
ATOM     23  C   UNL     1      -2.835  12.612  21.778  0.00  0.00    +0.000 A 
ATOM     24  C   UNL     1      -2.568  12.101  23.050  0.00  0.00    +0.000 A 
ATOM     25  C   UNL     1      -1.538  11.178  23.239  0.00  0.00    +0.000 A 
BRANCH  23  26
ATOM     26  O   UNL     1      -3.842  13.510  21.495  0.00  0.00    +0.000 OA
BRANCH  26  27
ATOM     27  C   UNL     1      -5.098  13.059  21.149  0.00  0.00    +0.000 A 
ATOM     28  C   UNL     1      -5.367  12.963  19.782  0.00  0.00    +0.000 A 
ATOM     29  C   UNL     1      -6.621  12.528  19.345  0.00  0.00    +0.000 A 
ATOM     30  C   UNL     1      -7.606  12.187  20.272  0.00  0.00    +0.000 A 
ATOM     31  C   UNL     1      -7.330  12.253  21.636  0.00  0.00    +0.000 A 
ATOM     32  C   UNL     1      -6.070  12.658  22.071  0.00  0.00    +0.000 A 
ENDBRANCH  26  27
ENDBRANCH  23  26
ENDBRANCH  19  20
ENDBRANCH  18  19
ENDBRANCH   1  18
TORSDOF 9
ENDMDL
