MODEL 1
REMARK VINA RESULT:      -6.6      0.000      0.000
REMARK  Name = 
REMARK  4 active torsions:
REMARK  status: ('A' for Active; 'I' for Inactive)
REMARK    1  A    between atoms: C_6  and  O_7
REMARK    2  A    between atoms: C_11  and  C_12
REMARK    3  A    between atoms: C_15  and  O_16
REMARK    4  A    between atoms: C_19  and  C_20
REMARK                            x       y       z     vdW  Elec       q    Type
REMARK                         _______ _______ _______ _____ _____    ______ ____
ROOT
ATOM      1  O   UNL     1       3.217   8.455  16.927  0.00  0.00    +0.000 OA
ATOM      2  C   UNL     1       2.589   8.281  17.966  0.00  0.00    +0.000 A 
ATOM      3  O   UNL     1       1.927   9.344  18.567  0.00  0.00    +0.000 OA
ATOM      4  C   UNL     1       1.203   9.182  19.757  0.00  0.00    +0.000 A 
ATOM      5  C   UNL     1       0.575  10.322  20.267  0.00  0.00    +0.000 A 
ATOM      6  C   UNL     1      -0.157  10.209  21.443  0.00  0.00    +0.000 A 
ATOM      7  C   UNL     1      -0.253   8.989  22.099  0.00  0.00    +0.000 A 
ATOM      8  C   UNL     1       0.388   7.862  21.574  0.00  0.00    +0.000 A 
ATOM      9  C   UNL     1       1.126   7.945  20.383  0.00  0.00    +0.000 A 
ATOM     10  C   UNL     1       1.810   6.775  19.791  0.00  0.00    +0.000 A 
ATOM     11  C   UNL     1       2.504   6.951  18.634  0.00  0.00    +0.000 A 
ENDROOT
BRANCH  10  12
ATOM     12  C   UNL     1       1.763   5.429  20.424  0.00  0.00    +0.000 A 
ATOM     13  C   UNL     1       0.743   4.528  20.087  0.00  0.00    +0.000 A 
ATOM     14  C   UNL     1       0.703   3.258  20.667  0.00  0.00    +0.000 A 
ATOM     15  C   UNL     1       1.692   2.890  21.573  0.00  0.00    +0.000 A 
ATOM     16  C   UNL     1       2.717   3.767  21.908  0.00  0.00    +0.000 A 
ATOM     17  C   UNL     1       2.754   5.040  21.335  0.00  0.00    +0.000 A 
BRANCH  15  18
ATOM     18  O   UNL     1       1.692   1.659  22.161  0.00  0.00    +0.000 OA
ATOM     19  H   UNL     1       0.774   1.354  22.245  0.00  0.00    +0.000 HD
ENDBRANCH  15  18
ENDBRANCH  10  12
BRANCH  11  20
ATOM     20  C   UNL     1       3.222   5.819  17.998  0.00  0.00    +0.000 A 
ATOM     21  C   UNL     1       2.511   4.755  17.426  0.00  0.00    +0.000 A 
ATOM     22  C   UNL     1       3.192   3.632  16.950  0.00  0.00    +0.000 A 
ATOM     23  C   UNL     1       4.583   3.573  17.025  0.00  0.00    +0.000 A 
ATOM     24  C   UNL     1       5.300   4.648  17.549  0.00  0.00    +0.000 A 
ATOM     25  C   UNL     1       4.623   5.770  18.028  0.00  0.00    +0.000 A 
ENDBRANCH  11  20
BRANCH   6  26
ATOM     26  O   UNL     1      -0.799  11.279  21.991  0.00  0.00    +0.000 OA
ATOM     27  H   UNL     1      -0.381  12.095  21.674  0.00  0.00    +0.000 HD
ENDBRANCH   6  26
TORSDOF 4
ENDMDL
MODEL 2
REMARK VINA RESULT:      -6.6      7.577     11.023
REMARK  Name = 
REMARK  4 active torsions:
REMARK  status: ('A' for Active; 'I' for Inactive)
REMARK    1  A    between atoms: C_6  and  O_7
REMARK    2  A    between atoms: C_11  and  C_12
REMARK    3  A    between atoms: C_15  and  O_16
REMARK    4  A    between atoms: C_19  and  C_20
REMARK                            x       y       z     vdW  Elec       q    Type
REMARK                         _______ _______ _______ _____ _____    ______ ____
ROOT
ATOM      1  O   UNL     1      -7.775  12.277  19.699  0.00  0.00    +0.000 OA
ATOM      2  C   UNL     1      -6.557  12.253  19.555  0.00  0.00    +0.000 A 
ATOM      3  O   UNL     1      -6.002  11.719  18.399  0.00  0.00    +0.000 OA
ATOM      4  C   UNL     1      -4.615  11.671  18.203  0.00  0.00    +0.000 A 
ATOM      5  C   UNL     1      -4.172  11.115  17.000  0.00  0.00    +0.000 A 
ATOM      6  C   UNL     1      -2.804  11.050  16.760  0.00  0.00    +0.000 A 
ATOM      7  C   UNL     1      -1.899  11.521  17.702  0.00  0.00    +0.000 A 
ATOM      8  C   UNL     1      -2.364  12.069  18.903  0.00  0.00    +0.000 A 
ATOM      9  C   UNL     1      -3.740  12.156  19.167  0.00  0.00    +0.000 A 
ATOM     10  C   UNL     1      -4.272  12.737  20.419  0.00  0.00    +0.000 A 
ATOM     11  C   UNL     1      -5.622  12.778  20.589  0.00  0.00    +0.000 A 
ENDROOT
BRANCH  10  12
ATOM     12  C   UNL     1      -3.379  13.266  21.485  0.00  0.00    +0.000 A 
ATOM     13  C   UNL     1      -3.000  14.616  21.481  0.00  0.00    +0.000 A 
ATOM     14  C   UNL     1      -2.175  15.121  22.488  0.00  0.00    +0.000 A 
ATOM     15  C   UNL     1      -1.740  14.275  23.503  0.00  0.00    +0.000 A 
ATOM     16  C   UNL     1      -2.117  12.937  23.528  0.00  0.00    +0.000 A 
ATOM     17  C   UNL     1      -2.935  12.429  22.518  0.00  0.00    +0.000 A 
BRANCH  15  18
ATOM     18  O   UNL     1      -0.935  14.727  24.507  0.00  0.00    +0.000 OA
ATOM     19  H   UNL     1      -0.202  15.229  24.115  0.00  0.00    +0.000 HD
ENDBRANCH  15  18
ENDBRANCH  10  12
BRANCH  11  20
ATOM     20  C   UNL     1      -6.215  13.337  21.829  0.00  0.00    +0.000 A 
ATOM     21  C   UNL     1      -6.519  12.502  22.913  0.00  0.00    +0.000 A 
ATOM     22  C   UNL     1      -7.198  13.013  24.022  0.00  0.00    +0.000 A 
ATOM     23  C   UNL     1      -7.559  14.359  24.063  0.00  0.00    +0.000 A 
ATOM     24  C   UNL     1      -7.218  15.205  23.008  0.00  0.00    +0.000 A 
ATOM     25  C   UNL     1      -6.542  14.698  21.898  0.00  0.00    +0.000 A 
ENDBRANCH  11  20
BRANCH   6  26
ATOM     26  O   UNL     1      -2.305  10.525  15.605  0.00  0.00    +0.000 OA
ATOM     27  H   UNL     1      -3.041  10.308  15.012  0.00  0.00    +0.000 HD
ENDBRANCH   6  26
TORSDOF 4
ENDMDL
MODEL 3
REMARK VINA RESULT:      -6.5      6.818      9.746
REMARK  Name = 
REMARK  4 active torsions:
REMARK  status: ('A' for Active; 'I' for Inactive)
REMARK    1  A    between atoms: C_6  and  O_7
REMARK    2  A    between atoms: C_11  and  C_12
REMARK    3  A    between atoms: C_15  and  O_16
REMARK    4  A    between atoms: C_19  and  C_20
REMARK                            x       y       z     vdW  Elec       q    Type
REMARK                         _______ _______ _______ _____ _____    ______ ____
ROOT
ATOM      1  O   UNL     1      -6.206  12.782  20.831  0.00  0.00    +0.000 OA
ATOM      2  C   UNL     1      -5.274  12.491  20.088  0.00  0.00    +0.000 A 
ATOM      3  O   UNL     1      -5.525  11.947  18.835  0.00  0.00    +0.000 OA
ATOM      4  C   UNL     1      -4.485  11.599  17.962  0.00  0.00    +0.000 A 
ATOM      5  C   UNL     1      -4.858  11.064  16.726  0.00  0.00    +0.000 A 
ATOM      6  C   UNL     1      -3.861  10.707  15.826  0.00  0.00    +0.000 A 
ATOM      7  C   UNL     1      -2.523  10.872  16.154  0.00  0.00    +0.000 A 
ATOM      8  C   UNL     1      -2.171  11.405  17.400  0.00  0.00    +0.000 A 
ATOM      9  C   UNL     1      -3.157  11.783  18.324  0.00  0.00    +0.000 A 
ATOM     10  C   UNL     1      -2.827  12.358  19.646  0.00  0.00    +0.000 A 
ATOM     11  C   UNL     1      -3.850  12.693  20.478  0.00  0.00    +0.000 A 
ENDROOT
BRANCH  10  12
ATOM     12  C   UNL     1      -1.421  12.571  20.085  0.00  0.00    +0.000 A 
ATOM     13  C   UNL     1      -0.724  11.545  20.738  0.00  0.00    +0.000 A 
ATOM     14  C   UNL     1       0.601  11.734  21.138  0.00  0.00    +0.000 A 
ATOM     15  C   UNL     1       1.227  12.947  20.872  0.00  0.00    +0.000 A 
ATOM     16  C   UNL     1       0.554  13.970  20.214  0.00  0.00    +0.000 A 
ATOM     17  C   UNL     1      -0.772  13.785  19.821  0.00  0.00    +0.000 A 
BRANCH  15  18
ATOM     18  O   UNL     1       2.520  13.175  21.243  0.00  0.00    +0.000 OA
ATOM     19  H   UNL     1       2.666  12.782  22.119  0.00  0.00    +0.000 HD
ENDBRANCH  15  18
ENDBRANCH  10  12
BRANCH  11  20
ATOM     20  C   UNL     1      -3.582  13.262  21.822  0.00  0.00    +0.000 A 
ATOM     21  C   UNL     1      -3.500  12.429  22.946  0.00  0.00    +0.000 A 
ATOM     22  C   UNL     1      -3.381  12.983  24.223  0.00  0.00    +0.000 A 
ATOM     23  C   UNL     1      -3.324  14.367  24.382  0.00  0.00    +0.000 A 
ATOM     24  C   UNL     1      -3.357  15.201  23.264  0.00  0.00    +0.000 A 
ATOM     25  C   UNL     1      -3.479  14.651  21.988  0.00  0.00    +0.000 A 
ENDBRANCH  11  20
BRANCH   6  26
ATOM     26  O   UNL     1      -4.156  10.185  14.602  0.00  0.00    +0.000 OA
ATOM     27  H   UNL     1      -4.790  10.767  14.154  0.00  0.00    +0.000 HD
ENDBRANCH   6  26
TORSDOF 4
ENDMDL
MODEL 4
REMARK VINA RESULT:      -6.5      7.518     11.005
REMARK  Name = 
REMARK  4 active torsions:
REMARK  status: ('A' for Active; 'I' for Inactive)
REMARK    1  A    between atoms: C_6  and  O_7
REMARK    2  A    between atoms: C_11  and  C_12
REMARK    3  A    between atoms: C_15  and  O_16
REMARK    4  A    between atoms: C_19  and  C_20
REMARK                            x       y       z     vdW  Elec       q    Type
REMARK                         _______ _______ _______ _____ _____    ______ ____
ROOT
ATOM      1  O   UNL     1      -7.802  12.384  19.459  0.00  0.00    +0.000 OA
ATOM      2  C   UNL     1      -6.581  12.320  19.359  0.00  0.00    +0.000 A 
ATOM      3  O   UNL     1      -6.002  11.764  18.225  0.00  0.00    +0.000 OA
ATOM      4  C   UNL     1      -4.611  11.671  18.079  0.00  0.00    +0.000 A 
ATOM      5  C   UNL     1      -4.143  11.096  16.894  0.00  0.00    +0.000 A 
ATOM      6  C   UNL     1      -2.771  10.986  16.703  0.00  0.00    +0.000 A 
ATOM      7  C   UNL     1      -1.886  11.431  17.676  0.00  0.00    +0.000 A 
ATOM      8  C   UNL     1      -2.375  11.998  18.858  0.00  0.00    +0.000 A 
ATOM      9  C   UNL     1      -3.756  12.131  19.073  0.00  0.00    +0.000 A 
ATOM     10  C   UNL     1      -4.313  12.732  20.303  0.00  0.00    +0.000 A 
ATOM     11  C   UNL     1      -5.666  12.818  20.424  0.00  0.00    +0.000 A 
ENDROOT
BRANCH  10  12
ATOM     12  C   UNL     1      -3.442  13.236  21.399  0.00  0.00    +0.000 A 
ATOM     13  C   UNL     1      -3.065  12.384  22.447  0.00  0.00    +0.000 A 
ATOM     14  C   UNL     1      -2.236  12.847  23.471  0.00  0.00    +0.000 A 
ATOM     15  C   UNL     1      -1.775  14.159  23.435  0.00  0.00    +0.000 A 
ATOM     16  C   UNL     1      -2.129  15.013  22.397  0.00  0.00    +0.000 A 
ATOM     17  C   UNL     1      -2.965  14.553  21.377  0.00  0.00    +0.000 A 
BRANCH  15  18
ATOM     18  O   UNL     1      -0.961  14.652  24.413  0.00  0.00    +0.000 OA
ATOM     19  H   UNL     1      -1.405  15.404  24.837  0.00  0.00    +0.000 HD
ENDBRANCH  15  18
ENDBRANCH  10  12
BRANCH  11  20
ATOM     20  C   UNL     1      -6.285  13.400  21.641  0.00  0.00    +0.000 A 
ATOM     21  C   UNL     1      -6.495  14.782  21.742  0.00  0.00    +0.000 A 
ATOM     22  C   UNL     1      -6.954  15.336  22.940  0.00  0.00    +0.000 A 
ATOM     23  C   UNL     1      -7.221  14.513  24.034  0.00  0.00    +0.000 A 
ATOM     24  C   UNL     1      -7.059  13.133  23.925  0.00  0.00    +0.000 A 
ATOM     25  C   UNL     1      -6.599  12.576  22.731  0.00  0.00    +0.000 A 
ENDBRANCH  11  20
BRANCH   6  26
ATOM     26  O   UNL     1      -2.248  10.442  15.568  0.00  0.00    +0.000 OA
ATOM     27  H   UNL     1      -2.916   9.874  15.153  0.00  0.00    +0.000 HD
ENDBRANCH   6  26
TORSDOF 4
ENDMDL
MODEL 5
REMARK VINA RESULT:      -6.5      2.267      4.596
REMARK  Name = 
REMARK  4 active torsions:
REMARK  status: ('A' for Active; 'I' for Inactive)
REMARK    1  A    between atoms: C_6  and  O_7
REMARK    2  A    between atoms: C_11  and  C_12
REMARK    3  A    between atoms: C_15  and  O_16
REMARK    4  A    between atoms: C_19  and  C_20
REMARK                            x       y       z     vdW  Elec       q    Type
REMARK                         _______ _______ _______ _____ _____    ______ ____
ROOT
ATOM      1  O   UNL     1       1.319   4.383  20.980  0.00  0.00    +0.000 OA
ATOM      2  C   UNL     1       1.750   5.280  20.263  0.00  0.00    +0.000 A 
ATOM      3  O   UNL     1       1.184   6.547  20.315  0.00  0.00    +0.000 OA
ATOM      4  C   UNL     1       1.647   7.595  19.507  0.00  0.00    +0.000 A 
ATOM      5  C   UNL     1       1.003   8.827  19.649  0.00  0.00    +0.000 A 
ATOM      6  C   UNL     1       1.431   9.896  18.871  0.00  0.00    +0.000 A 
ATOM      7  C   UNL     1       2.472   9.737  17.966  0.00  0.00    +0.000 A 
ATOM      8  C   UNL     1       3.100   8.493  17.836  0.00  0.00    +0.000 A 
ATOM      9  C   UNL     1       2.695   7.399  18.616  0.00  0.00    +0.000 A 
ATOM     10  C   UNL     1       3.338   6.071  18.516  0.00  0.00    +0.000 A 
ATOM     11  C   UNL     1       2.876   5.068  19.311  0.00  0.00    +0.000 A 
ENDROOT
BRANCH  10  12
ATOM     12  C   UNL     1       4.460   5.808  17.575  0.00  0.00    +0.000 A 
ATOM     13  C   UNL     1       4.206   5.245  16.316  0.00  0.00    +0.000 A 
ATOM     14  C   UNL     1       5.254   5.010  15.423  0.00  0.00    +0.000 A 
ATOM     15  C   UNL     1       6.552   5.350  15.788  0.00  0.00    +0.000 A 
ATOM     16  C   UNL     1       6.819   5.920  17.028  0.00  0.00    +0.000 A 
ATOM     17  C   UNL     1       5.774   6.149  17.924  0.00  0.00    +0.000 A 
BRANCH  15  18
ATOM     18  O   UNL     1       7.605   5.139  14.947  0.00  0.00    +0.000 OA
ATOM     19  H   UNL     1       7.448   5.631  14.124  0.00  0.00    +0.000 HD
ENDBRANCH  15  18
ENDBRANCH  10  12
BRANCH  11  20
ATOM     20  C   UNL     1       3.473   3.711  19.247  0.00  0.00    +0.000 A 
ATOM     21  C   UNL     1       3.027   2.780  18.298  0.00  0.00    +0.000 A 
ATOM     22  C   UNL     1       3.498   1.466  18.330  0.00  0.00    +0.000 A 
ATOM     23  C   UNL     1       4.428   1.079  19.294  0.00  0.00    +0.000 A 
ATOM     24  C   UNL     1       4.912   2.012  20.211  0.00  0.00    +0.000 A 
ATOM     25  C   UNL     1       4.441   3.325  20.184  0.00  0.00    +0.000 A 
ENDBRANCH  11  20
BRANCH   6  26
ATOM     26  O   UNL     1       0.851  11.125  18.964  0.00  0.00    +0.000 OA
ATOM     27  H   UNL     1       0.728  11.486  18.071  0.00  0.00    +0.000 HD
ENDBRANCH   6  26
TORSDOF 4
ENDMDL
MODEL 6
REMARK VINA RESULT:      -6.4      9.123     11.080
REMARK  Name = 
REMARK  4 active torsions:
REMARK  status: ('A' for Active; 'I' for Inactive)
REMARK    1  A    between atoms: C_6  and  O_7
REMARK    2  A    between atoms: C_11  and  C_12
REMARK    3  A    between atoms: C_15  and  O_16
REMARK    4  A    between atoms: C_19  and  C_20
REMARK                            x       y       z     vdW  Elec       q    Type
REMARK                         _______ _______ _______ _____ _____    ______ ____
ROOT
ATOM      1  O   UNL     1       6.576  15.652  18.737  0.00  0.00    +0.000 OA
ATOM      2  C   UNL     1       7.393  14.881  19.230  0.00  0.00    +0.000 A 
ATOM      3  O   UNL     1       8.405  14.343  18.446  0.00  0.00    +0.000 OA
ATOM      4  C   UNL     1       9.353  13.455  18.975  0.00  0.00    +0.000 A 
ATOM      5  C   UNL     1      10.328  12.982  18.092  0.00  0.00    +0.000 A 
ATOM      6  C   UNL     1      11.291  12.103  18.573  0.00  0.00    +0.000 A 
ATOM      7  C   UNL     1      11.277  11.698  19.901  0.00  0.00    +0.000 A 
ATOM      8  C   UNL     1      10.288  12.180  20.766  0.00  0.00    +0.000 A 
ATOM      9  C   UNL     1       9.309  13.077  20.311  0.00  0.00    +0.000 A 
ATOM     10  C   UNL     1       8.255  13.616  21.195  0.00  0.00    +0.000 A 
ATOM     11  C   UNL     1       7.346  14.479  20.664  0.00  0.00    +0.000 A 
ENDROOT
BRANCH  10  12
ATOM     12  C   UNL     1       8.160  13.239  22.632  0.00  0.00    +0.000 A 
ATOM     13  C   UNL     1       7.578  12.019  23.003  0.00  0.00    +0.000 A 
ATOM     14  C   UNL     1       7.501  11.653  24.349  0.00  0.00    +0.000 A 
ATOM     15  C   UNL     1       8.019  12.506  25.318  0.00  0.00    +0.000 A 
ATOM     16  C   UNL     1       8.610  13.713  24.966  0.00  0.00    +0.000 A 
ATOM     17  C   UNL     1       8.681  14.083  23.622  0.00  0.00    +0.000 A 
BRANCH  15  18
ATOM     18  O   UNL     1       7.966  12.187  26.644  0.00  0.00    +0.000 OA
ATOM     19  H   UNL     1       7.046  12.260  26.945  0.00  0.00    +0.000 HD
ENDBRANCH  15  18
ENDBRANCH  10  12
BRANCH  11  20
ATOM     20  C   UNL     1       6.257  15.044  21.499  0.00  0.00    +0.000 A 
ATOM     21  C   UNL     1       5.050  14.350  21.661  0.00  0.00    +0.000 A 
ATOM     22  C   UNL     1       3.982  14.947  22.336  0.00  0.00    +0.000 A 
ATOM     23  C   UNL     1       4.120  16.229  22.868  0.00  0.00    +0.000 A 
ATOM     24  C   UNL     1       5.333  16.906  22.751  0.00  0.00    +0.000 A 
ATOM     25  C   UNL     1       6.401  16.314  22.075  0.00  0.00    +0.000 A 
ENDBRANCH  11  20
BRANCH   6  26
ATOM     26  O   UNL     1      12.272  11.608  17.767  0.00  0.00    +0.000 OA
ATOM     27  H   UNL     1      13.134  11.763  18.186  0.00  0.00    +0.000 HD
ENDBRANCH   6  26
TORSDOF 4
ENDMDL
MODEL 7
REMARK VINA RESULT:      -6.3      9.253     11.222
REMARK  Name = 
REMARK  4 active torsions:
REMARK  status: ('A' for Active; 'I' for Inactive)
REMARK    1  A    between atoms: C_6  and  O_7
REMARK    2  A    between atoms: C_11  and  C_12
REMARK    3  A    between atoms: C_15  and  O_16
REMARK    4  A    between atoms: C_19  and  C_20
REMARK                            x       y       z     vdW  Elec       q    Type
REMARK                         _______ _______ _______ _____ _____    ______ ____
ROOT
ATOM      1  O   UNL     1       6.479  15.473  18.536  0.00  0.00    +0.000 OA
ATOM      2  C   UNL     1       7.340  14.762  19.044  0.00  0.00    +0.000 A 
ATOM      3  O   UNL     1       8.335  14.200  18.254  0.00  0.00    +0.000 OA
ATOM      4  C   UNL     1       9.332  13.379  18.800  0.00  0.00    +0.000 A 
ATOM      5  C   UNL     1      10.283  12.874  17.909  0.00  0.00    +0.000 A 
ATOM      6  C   UNL     1      11.293  12.059  18.405  0.00  0.00    +0.000 A 
ATOM      7  C   UNL     1      11.349  11.747  19.757  0.00  0.00    +0.000 A 
ATOM      8  C   UNL     1      10.383  12.259  20.631  0.00  0.00    +0.000 A 
ATOM      9  C   UNL     1       9.357  13.093  20.159  0.00  0.00    +0.000 A 
ATOM     10  C   UNL     1       8.324  13.662  21.050  0.00  0.00    +0.000 A 
ATOM     11  C   UNL     1       7.367  14.460  20.503  0.00  0.00    +0.000 A 
ENDROOT
BRANCH  10  12
ATOM     12  C   UNL     1       8.303  13.384  22.512  0.00  0.00    +0.000 A 
ATOM     13  C   UNL     1       8.806  14.329  23.417  0.00  0.00    +0.000 A 
ATOM     14  C   UNL     1       8.775  14.079  24.790  0.00  0.00    +0.000 A 
ATOM     15  C   UNL     1       8.227  12.888  25.255  0.00  0.00    +0.000 A 
ATOM     16  C   UNL     1       7.712  11.946  24.372  0.00  0.00    +0.000 A 
ATOM     17  C   UNL     1       7.750  12.191  22.998  0.00  0.00    +0.000 A 
BRANCH  15  18
ATOM     18  O   UNL     1       8.174  12.603  26.588  0.00  0.00    +0.000 OA
ATOM     19  H   UNL     1       7.297  12.243  26.795  0.00  0.00    +0.000 HD
ENDBRANCH  15  18
ENDBRANCH  10  12
BRANCH  11  20
ATOM     20  C   UNL     1       6.296  15.050  21.344  0.00  0.00    +0.000 A 
ATOM     21  C   UNL     1       6.424  16.349  21.854  0.00  0.00    +0.000 A 
ATOM     22  C   UNL     1       5.477  16.847  22.752  0.00  0.00    +0.000 A 
ATOM     23  C   UNL     1       4.390  16.059  23.130  0.00  0.00    +0.000 A 
ATOM     24  C   UNL     1       4.231  14.784  22.590  0.00  0.00    +0.000 A 
ATOM     25  C   UNL     1       5.177  14.282  21.695  0.00  0.00    +0.000 A 
ENDBRANCH  11  20
BRANCH   6  26
ATOM     26  O   UNL     1      12.255  11.537  17.593  0.00  0.00    +0.000 OA
ATOM     27  H   UNL     1      13.082  11.452  18.094  0.00  0.00    +0.000 HD
ENDBRANCH   6  26
TORSDOF 4
ENDMDL
MODEL 8
REMARK VINA RESULT:      -6.3      9.033     11.103
REMARK  Name = 
REMARK  4 active torsions:
REMARK  status: ('A' for Active; 'I' for Inactive)
REMARK    1  A    between atoms: C_6  and  O_7
REMARK    2  A    between atoms: C_11  and  C_12
REMARK    3  A    between atoms: C_15  and  O_16
REMARK    4  A    between atoms: C_19  and  C_20
REMARK                            x       y       z     vdW  Elec       q    Type
REMARK                         _______ _______ _______ _____ _____    ______ ____
ROOT
ATOM      1  O   UNL     1       8.858  10.596  22.090  0.00  0.00    +0.000 OA
ATOM      2  C   UNL     1       8.433  11.745  22.026  0.00  0.00    +0.000 A 
ATOM      3  O   UNL     1       7.463  12.182  22.919  0.00  0.00    +0.000 OA
ATOM      4  C   UNL     1       6.952  13.486  22.871  0.00  0.00    +0.000 A 
ATOM      5  C   UNL     1       5.982  13.813  23.823  0.00  0.00    +0.000 A 
ATOM      6  C   UNL     1       5.450  15.097  23.817  0.00  0.00    +0.000 A 
ATOM      7  C   UNL     1       5.868  16.030  22.878  0.00  0.00    +0.000 A 
ATOM      8  C   UNL     1       6.837  15.680  21.930  0.00  0.00    +0.000 A 
ATOM      9  C   UNL     1       7.399  14.394  21.919  0.00  0.00    +0.000 A 
ATOM     10  C   UNL     1       8.431  13.987  20.941  0.00  0.00    +0.000 A 
ATOM     11  C   UNL     1       8.917  12.718  21.006  0.00  0.00    +0.000 A 
ENDROOT
BRANCH  10  12
ATOM     12  C   UNL     1       8.940  14.919  19.898  0.00  0.00    +0.000 A 
ATOM     13  C   UNL     1       8.235  15.086  18.698  0.00  0.00    +0.000 A 
ATOM     14  C   UNL     1       8.700  15.971  17.723  0.00  0.00    +0.000 A 
ATOM     15  C   UNL     1       9.864  16.694  17.957  0.00  0.00    +0.000 A 
ATOM     16  C   UNL     1      10.569  16.549  19.147  0.00  0.00    +0.000 A 
ATOM     17  C   UNL     1      10.109  15.659  20.119  0.00  0.00    +0.000 A 
BRANCH  15  18
ATOM     18  O   UNL     1      10.354  17.570  17.033  0.00  0.00    +0.000 OA
ATOM     19  H   UNL     1      11.267  17.796  17.272  0.00  0.00    +0.000 HD
ENDBRANCH  15  18
ENDBRANCH  10  12
BRANCH  11  20
ATOM     20  C   UNL     1       9.944  12.247  20.044  0.00  0.00    +0.000 A 
ATOM     21  C   UNL     1      11.306  12.289  20.377  0.00  0.00    +0.000 A 
ATOM     22  C   UNL     1      12.272  11.971  19.419  0.00  0.00    +0.000 A 
ATOM     23  C   UNL     1      11.885  11.592  18.134  0.00  0.00    +0.000 A 
ATOM     24  C   UNL     1      10.532  11.503  17.810  0.00  0.00    +0.000 A 
ATOM     25  C   UNL     1       9.564  11.823  18.763  0.00  0.00    +0.000 A 
ENDBRANCH  11  20
BRANCH   6  26
ATOM     26  O   UNL     1       4.505  15.483  24.720  0.00  0.00    +0.000 OA
ATOM     27  H   UNL     1       4.216  16.385  24.509  0.00  0.00    +0.000 HD
ENDBRANCH   6  26
TORSDOF 4
ENDMDL
MODEL 9
REMARK VINA RESULT:      -6.3      2.254      4.706
REMARK  Name = 
REMARK  4 active torsions:
REMARK  status: ('A' for Active; 'I' for Inactive)
REMARK    1  A    between atoms: C_6  and  O_7
REMARK    2  A    between atoms: C_11  and  C_12
REMARK    3  A    between atoms: C_15  and  O_16
REMARK    4  A    between atoms: C_19  and  C_20
REMARK                            x       y       z     vdW  Elec       q    Type
REMARK                         _______ _______ _______ _____ _____    ______ ____
ROOT
ATOM      1  O   UNL     1       1.147   4.378  21.051  0.00  0.00    +0.000 OA
ATOM      2  C   UNL     1       1.624   5.244  20.326  0.00  0.00    +0.000 A 
ATOM      3  O   UNL     1       1.103   6.531  20.339  0.00  0.00    +0.000 OA
ATOM      4  C   UNL     1       1.621   7.544  19.520  0.00  0.00    +0.000 A 
ATOM      5  C   UNL     1       1.018   8.801  19.623  0.00  0.00    +0.000 A 
ATOM      6  C   UNL     1       1.501   9.837  18.833  0.00  0.00    +0.000 A 
ATOM      7  C   UNL     1       2.555   9.623  17.955  0.00  0.00    +0.000 A 
ATOM      8  C   UNL     1       3.141   8.355  17.864  0.00  0.00    +0.000 A 
ATOM      9  C   UNL     1       2.680   7.293  18.657  0.00  0.00    +0.000 A 
ATOM     10  C   UNL     1       3.277   5.942  18.599  0.00  0.00    +0.000 A 
ATOM     11  C   UNL     1       2.763   4.973  19.404  0.00  0.00    +0.000 A 
ENDROOT
BRANCH  10  12
ATOM     12  C   UNL     1       4.409   5.619  17.688  0.00  0.00    +0.000 A 
ATOM     13  C   UNL     1       5.728   5.886  18.082  0.00  0.00    +0.000 A 
ATOM     14  C   UNL     1       6.795   5.571  17.238  0.00  0.00    +0.000 A 
ATOM     15  C   UNL     1       6.539   4.977  16.007  0.00  0.00    +0.000 A 
ATOM     16  C   UNL     1       5.238   4.693  15.607  0.00  0.00    +0.000 A 
ATOM     17  C   UNL     1       4.170   5.015  16.446  0.00  0.00    +0.000 A 
BRANCH  15  18
ATOM     18  O   UNL     1       7.551   4.650  15.152  0.00  0.00    +0.000 OA
ATOM     19  H   UNL     1       8.161   4.047  15.608  0.00  0.00    +0.000 HD
ENDBRANCH  15  18
ENDBRANCH  10  12
BRANCH  11  20
ATOM     20  C   UNL     1       3.312   3.594  19.381  0.00  0.00    +0.000 A 
ATOM     21  C   UNL     1       4.343   3.222  20.255  0.00  0.00    +0.000 A 
ATOM     22  C   UNL     1       4.944   1.966  20.137  0.00  0.00    +0.000 A 
ATOM     23  C   UNL     1       4.508   1.072  19.160  0.00  0.00    +0.000 A 
ATOM     24  C   UNL     1       3.453   1.417  18.318  0.00  0.00    +0.000 A 
ATOM     25  C   UNL     1       2.852   2.671  18.431  0.00  0.00    +0.000 A 
ENDBRANCH  11  20
BRANCH   6  26
ATOM     26  O   UNL     1       0.963  11.088  18.887  0.00  0.00    +0.000 OA
ATOM     27  H   UNL     1       1.527  11.698  18.387  0.00  0.00    +0.000 HD
ENDBRANCH   6  26
TORSDOF 4
ENDMDL
