MODEL 1
REMARK VINA RESULT:      -9.0      0.000      0.000
REMARK  Name = 
REMARK  5 active torsions:
REMARK  status: ('A' for Active; 'I' for Inactive)
REMARK    1  A    between atoms: C_1  and  C_2
REMARK    2  A    between atoms: N_4  and  C_5
REMARK    3  A    between atoms: N_14  and  C_15
REMARK    4  A    between atoms: C_18  and  O_19
REMARK    5  A    between atoms: O_19  and  C_20
REMARK                            x       y       z     vdW  Elec       q    Type
REMARK                         _______ _______ _______ _____ _____    ______ ____
ROOT
ATOM      1  C   UNL     1       0.318  10.290  20.640  0.00  0.00    +0.000 A 
ATOM      2  C   UNL     1       0.300   9.343  21.592  0.00  0.00    +0.000 A 
ATOM      3  C   UNL     1       0.902   8.041  21.373  0.00  0.00    +0.000 A 
ATOM      4  C   UNL     1       1.625   7.781  20.273  0.00  0.00    +0.000 A 
ATOM      5  N   UNL     1       1.719   8.739  19.290  0.00  0.00    +0.000 N 
ATOM      6  C   UNL     1       1.045   9.939  19.386  0.00  0.00    +0.000 A 
ATOM      7  O   UNL     1       1.045  10.767  18.483  0.00  0.00    +0.000 OA
ATOM      8  C   UNL     1       2.346   8.445  18.006  0.00  0.00    +0.000 C 
ATOM      9  C   UNL     1       3.247   7.239  18.107  0.00  0.00    +0.000 C 
ATOM     10  N   UNL     1       2.553   6.145  18.739  0.00  0.00    +0.000 N 
ATOM     11  C   UNL     1       2.143   6.378  20.055  0.00  0.00    +0.000 C 
ATOM     12  O   UNL     1       2.143   5.537  20.946  0.00  0.00    +0.000 OA
ENDROOT
BRANCH   1  16
ATOM     13  C   UNL     1      -3.055  13.944  20.797  0.00  0.00    +0.000 C 
ATOM     14  C   UNL     1      -1.800  13.164  20.872  0.00  0.00    +0.000 A 
ATOM     15  C   UNL     1      -1.620  11.839  20.548  0.00  0.00    +0.000 A 
ATOM     16  N   UNL     1      -0.294  11.549  20.793  0.00  0.00    +0.000 N 
ATOM     17  C   UNL     1       0.254  12.726  21.273  0.00  0.00    +0.000 A 
ATOM     18  N   UNL     1      -0.621  13.711  21.311  0.00  0.00    +0.000 NA
ENDBRANCH   1  16
BRANCH  10  19
ATOM     19  C   UNL     1       2.070   4.958  17.978  0.00  0.00    +0.000 C 
ATOM     20  C   UNL     1       1.224   3.940  18.799  0.00  0.00    +0.000 C 
ATOM     21  C   UNL     1       1.903   2.786  18.008  0.00  0.00    +0.000 C 
ATOM     22  C   UNL     1       3.088   3.760  17.676  0.00  0.00    +0.000 C 
BRANCH  22  23
ATOM     23  O   UNL     1       3.842   3.611  16.414  0.00  0.00    +0.000 OA
BRANCH  23  24
ATOM     24  C   UNL     1       5.145   4.064  16.260  0.00  0.00    +0.000 A 
ATOM     25  C   UNL     1       5.799   4.616  17.379  0.00  0.00    +0.000 A 
ATOM     26  C   UNL     1       7.157   4.765  17.378  0.00  0.00    +0.000 A 
ATOM     27  C   UNL     1       7.742   4.907  16.149  0.00  0.00    +0.000 A 
ATOM     28  C   UNL     1       7.037   4.619  14.965  0.00  0.00    +0.000 A 
ATOM     29  C   UNL     1       7.553   5.002  13.742  0.00  0.00    +0.000 A 
ATOM     30  C   UNL     1       6.834   4.823  12.553  0.00  0.00    +0.000 A 
ATOM     31  C   UNL     1       6.346   3.560  12.341  0.00  0.00    +0.000 A 
ATOM     32  C   UNL     1       5.643   3.338  13.542  0.00  0.00    +0.000 A 
ATOM     33  C   UNL     1       5.834   3.957  14.937  0.00  0.00    +0.000 A 
ENDBRANCH  23  24
ENDBRANCH  22  23
ENDBRANCH  10  19
TORSDOF 4
ENDMDL
MODEL 2
REMARK VINA RESULT:      -8.6      3.131     10.822
REMARK  Name = 
REMARK  5 active torsions:
REMARK  status: ('A' for Active; 'I' for Inactive)
REMARK    1  A    between atoms: C_1  and  C_2
REMARK    2  A    between atoms: N_4  and  C_5
REMARK    3  A    between atoms: N_14  and  C_15
REMARK    4  A    between atoms: C_18  and  O_19
REMARK    5  A    between atoms: O_19  and  C_20
REMARK                            x       y       z     vdW  Elec       q    Type
REMARK                         _______ _______ _______ _____ _____    ______ ____
ROOT
ATOM      1  C   UNL     1       2.981   6.249  18.951  0.00  0.00    +0.000 A 
ATOM      2  C   UNL     1       3.186   7.128  17.957  0.00  0.00    +0.000 A 
ATOM      3  C   UNL     1       2.540   8.427  17.953  0.00  0.00    +0.000 A 
ATOM      4  C   UNL     1       1.832   8.860  19.007  0.00  0.00    +0.000 A 
ATOM      5  N   UNL     1       1.636   8.016  20.075  0.00  0.00    +0.000 N 
ATOM      6  C   UNL     1       2.108   6.719  20.066  0.00  0.00    +0.000 A 
ATOM      7  O   UNL     1       1.868   5.926  20.969  0.00  0.00    +0.000 OA
ATOM      8  C   UNL     1       0.734   8.373  21.165  0.00  0.00    +0.000 C 
ATOM      9  C   UNL     1       0.493   9.861  21.202  0.00  0.00    +0.000 C 
ATOM     10  N   UNL     1       0.128  10.344  19.894  0.00  0.00    +0.000 N 
ATOM     11  C   UNL     1       1.101  10.179  18.904  0.00  0.00    +0.000 C 
ATOM     12  O   UNL     1       1.324  10.979  18.003  0.00  0.00    +0.000 OA
ENDROOT
BRANCH   1  16
ATOM     13  C   UNL     1       3.664   1.349  18.424  0.00  0.00    +0.000 C 
ATOM     14  C   UNL     1       3.850   2.786  18.724  0.00  0.00    +0.000 A 
ATOM     15  C   UNL     1       2.922   3.793  18.594  0.00  0.00    +0.000 A 
ATOM     16  N   UNL     1       3.549   4.961  18.972  0.00  0.00    +0.000 N 
ATOM     17  C   UNL     1       4.843   4.591  19.298  0.00  0.00    +0.000 A 
ATOM     18  N   UNL     1       5.042   3.293  19.177  0.00  0.00    +0.000 NA
ENDBRANCH   1  16
BRANCH  10  19
ATOM     19  C   UNL     1      -1.266  10.744  19.549  0.00  0.00    +0.000 C 
ATOM     20  C   UNL     1      -1.773  10.255  18.160  0.00  0.00    +0.000 C 
ATOM     21  C   UNL     1      -2.524  11.607  17.994  0.00  0.00    +0.000 C 
ATOM     22  C   UNL     1      -1.544  12.237  19.044  0.00  0.00    +0.000 C 
BRANCH  22  23
ATOM     23  O   UNL     1      -2.001  13.337  19.921  0.00  0.00    +0.000 OA
BRANCH  23  24
ATOM     24  C   UNL     1      -2.905  13.144  20.956  0.00  0.00    +0.000 A 
ATOM     25  C   UNL     1      -2.404  12.987  22.264  0.00  0.00    +0.000 A 
ATOM     26  C   UNL     1      -3.233  13.129  23.341  0.00  0.00    +0.000 A 
ATOM     27  C   UNL     1      -4.556  12.858  23.116  0.00  0.00    +0.000 A 
ATOM     28  C   UNL     1      -5.067  12.739  21.809  0.00  0.00    +0.000 A 
ATOM     29  C   UNL     1      -6.333  12.226  21.607  0.00  0.00    +0.000 A 
ATOM     30  C   UNL     1      -6.836  11.998  20.319  0.00  0.00    +0.000 A 
ATOM     31  C   UNL     1      -6.751  13.059  19.455  0.00  0.00    +0.000 A 
ATOM     32  C   UNL     1      -5.381  13.374  19.549  0.00  0.00    +0.000 A 
ATOM     33  C   UNL     1      -4.375  13.114  20.684  0.00  0.00    +0.000 A 
ENDBRANCH  23  24
ENDBRANCH  22  23
ENDBRANCH  10  19
TORSDOF 4
ENDMDL
MODEL 3
REMARK VINA RESULT:      -8.5      1.062      2.479
REMARK  Name = 
REMARK  5 active torsions:
REMARK  status: ('A' for Active; 'I' for Inactive)
REMARK    1  A    between atoms: C_1  and  C_2
REMARK    2  A    between atoms: N_4  and  C_5
REMARK    3  A    between atoms: N_14  and  C_15
REMARK    4  A    between atoms: C_18  and  O_19
REMARK    5  A    between atoms: O_19  and  C_20
REMARK                            x       y       z     vdW  Elec       q    Type
REMARK                         _______ _______ _______ _____ _____    ______ ____
ROOT
ATOM      1  C   UNL     1       0.343  10.260  20.296  0.00  0.00    +0.000 A 
ATOM      2  C   UNL     1       0.374   9.419  21.343  0.00  0.00    +0.000 A 
ATOM      3  C   UNL     1       0.990   8.109  21.242  0.00  0.00    +0.000 A 
ATOM      4  C   UNL     1       1.679   7.743  20.150  0.00  0.00    +0.000 A 
ATOM      5  N   UNL     1       1.722   8.591  19.068  0.00  0.00    +0.000 N 
ATOM      6  C   UNL     1       1.032   9.787  19.061  0.00  0.00    +0.000 A 
ATOM      7  O   UNL     1       0.987  10.513  18.075  0.00  0.00    +0.000 OA
ATOM      8  C   UNL     1       2.309   8.170  17.800  0.00  0.00    +0.000 C 
ATOM      9  C   UNL     1       3.233   6.994  17.996  0.00  0.00    +0.000 C 
ATOM     10  N   UNL     1       2.580   5.965  18.765  0.00  0.00    +0.000 N 
ATOM     11  C   UNL     1       2.212   6.331  20.063  0.00  0.00    +0.000 C 
ATOM     12  O   UNL     1       2.257   5.590  21.038  0.00  0.00    +0.000 OA
ENDROOT
BRANCH   1  16
ATOM     13  C   UNL     1      -0.462  15.154  20.675  0.00  0.00    +0.000 C 
ATOM     14  C   UNL     1      -0.633  13.696  20.496  0.00  0.00    +0.000 A 
ATOM     15  C   UNL     1       0.333  12.723  20.606  0.00  0.00    +0.000 A 
ATOM     16  N   UNL     1      -0.284  11.519  20.337  0.00  0.00    +0.000 N 
ATOM     17  C   UNL     1      -1.602  11.840  20.061  0.00  0.00    +0.000 A 
ATOM     18  N   UNL     1      -1.840  13.132  20.168  0.00  0.00    +0.000 NA
ENDBRANCH   1  16
BRANCH  10  19
ATOM     19  C   UNL     1       2.090   4.697  18.152  0.00  0.00    +0.000 C 
ATOM     20  C   UNL     1       1.082   3.885  19.018  0.00  0.00    +0.000 C 
ATOM     21  C   UNL     1       1.749   2.576  18.511  0.00  0.00    +0.000 C 
ATOM     22  C   UNL     1       3.037   3.406  18.173  0.00  0.00    +0.000 C 
BRANCH  22  23
ATOM     23  O   UNL     1       3.910   3.001  17.051  0.00  0.00    +0.000 OA
BRANCH  23  24
ATOM     24  C   UNL     1       4.929   3.808  16.564  0.00  0.00    +0.000 A 
ATOM     25  C   UNL     1       5.132   3.865  15.171  0.00  0.00    +0.000 A 
ATOM     26  C   UNL     1       5.875   4.873  14.624  0.00  0.00    +0.000 A 
ATOM     27  C   UNL     1       6.825   5.425  15.441  0.00  0.00    +0.000 A 
ATOM     28  C   UNL     1       6.827   5.183  16.828  0.00  0.00    +0.000 A 
ATOM     29  C   UNL     1       7.923   5.540  17.590  0.00  0.00    +0.000 A 
ATOM     30  C   UNL     1       8.005   5.224  18.952  0.00  0.00    +0.000 A 
ATOM     31  C   UNL     1       6.924   5.590  19.710  0.00  0.00    +0.000 A 
ATOM     32  C   UNL     1       5.873   4.991  18.987  0.00  0.00    +0.000 A 
ATOM     33  C   UNL     1       5.782   4.601  17.502  0.00  0.00    +0.000 A 
ENDBRANCH  23  24
ENDBRANCH  22  23
ENDBRANCH  10  19
TORSDOF 4
ENDMDL
MODEL 4
REMARK VINA RESULT:      -8.4      3.396      9.778
REMARK  Name = 
REMARK  5 active torsions:
REMARK  status: ('A' for Active; 'I' for Inactive)
REMARK    1  A    between atoms: C_1  and  C_2
REMARK    2  A    between atoms: N_4  and  C_5
REMARK    3  A    between atoms: N_14  and  C_15
REMARK    4  A    between atoms: C_18  and  O_19
REMARK    5  A    between atoms: O_19  and  C_20
REMARK                            x       y       z     vdW  Elec       q    Type
REMARK                         _______ _______ _______ _____ _____    ______ ____
ROOT
ATOM      1  C   UNL     1       2.661   5.915  18.860  0.00  0.00    +0.000 A 
ATOM      2  C   UNL     1       3.038   6.726  17.857  0.00  0.00    +0.000 A 
ATOM      3  C   UNL     1       2.696   8.136  17.857  0.00  0.00    +0.000 A 
ATOM      4  C   UNL     1       2.120   8.716  18.921  0.00  0.00    +0.000 A 
ATOM      5  N   UNL     1       1.761   7.938  19.997  0.00  0.00    +0.000 N 
ATOM      6  C   UNL     1       1.934   6.569  19.986  0.00  0.00    +0.000 A 
ATOM      7  O   UNL     1       1.540   5.850  20.897  0.00  0.00    +0.000 OA
ATOM      8  C   UNL     1       0.980   8.488  21.100  0.00  0.00    +0.000 C 
ATOM      9  C   UNL     1       1.076   9.992  21.134  0.00  0.00    +0.000 C 
ATOM     10  N   UNL     1       0.804  10.542  19.829  0.00  0.00    +0.000 N 
ATOM     11  C   UNL     1       1.698  10.164  18.823  0.00  0.00    +0.000 C 
ATOM     12  O   UNL     1       2.077  10.894  17.914  0.00  0.00    +0.000 OA
ENDROOT
BRANCH   1  16
ATOM     13  C   UNL     1       4.680   1.483  19.871  0.00  0.00    +0.000 C 
ATOM     14  C   UNL     1       3.825   2.567  19.340  0.00  0.00    +0.000 A 
ATOM     15  C   UNL     1       3.962   3.919  19.555  0.00  0.00    +0.000 A 
ATOM     16  N   UNL     1       2.930   4.534  18.877  0.00  0.00    +0.000 N 
ATOM     17  C   UNL     1       2.210   3.503  18.297  0.00  0.00    +0.000 A 
ATOM     18  N   UNL     1       2.736   2.320  18.543  0.00  0.00    +0.000 NA
ENDBRANCH   1  16
BRANCH  10  19
ATOM     19  C   UNL     1      -0.473  11.240  19.505  0.00  0.00    +0.000 C 
ATOM     20  C   UNL     1      -1.213  10.721  18.237  0.00  0.00    +0.000 C 
ATOM     21  C   UNL     1      -1.615  12.187  17.910  0.00  0.00    +0.000 C 
ATOM     22  C   UNL     1      -0.417  12.675  18.797  0.00  0.00    +0.000 C 
BRANCH  22  23
ATOM     23  O   UNL     1      -0.503  13.961  19.521  0.00  0.00    +0.000 OA
BRANCH  23  24
ATOM     24  C   UNL     1       0.087  15.126  19.053  0.00  0.00    +0.000 A 
ATOM     25  C   UNL     1      -0.740  16.228  18.760  0.00  0.00    +0.000 A 
ATOM     26  C   UNL     1      -0.203  17.476  18.623  0.00  0.00    +0.000 A 
ATOM     27  C   UNL     1       1.105  17.523  18.220  0.00  0.00    +0.000 A 
ATOM     28  C   UNL     1       1.918  16.373  18.240  0.00  0.00    +0.000 A 
ATOM     29  C   UNL     1       3.143  16.383  17.603  0.00  0.00    +0.000 A 
ATOM     30  C   UNL     1       3.934  15.230  17.515  0.00  0.00    +0.000 A 
ATOM     31  C   UNL     1       4.166  14.580  18.699  0.00  0.00    +0.000 A 
ATOM     32  C   UNL     1       2.850  14.406  19.172  0.00  0.00    +0.000 A 
ATOM     33  C   UNL     1       1.570  15.206  18.873  0.00  0.00    +0.000 A 
ENDBRANCH  23  24
ENDBRANCH  22  23
ENDBRANCH  10  19
TORSDOF 4
ENDMDL
MODEL 5
REMARK VINA RESULT:      -8.3      3.441     10.157
REMARK  Name = 
REMARK  5 active torsions:
REMARK  status: ('A' for Active; 'I' for Inactive)
REMARK    1  A    between atoms: C_1  and  C_2
REMARK    2  A    between atoms: N_4  and  C_5
REMARK    3  A    between atoms: N_14  and  C_15
REMARK    4  A    between atoms: C_18  and  O_19
REMARK    5  A    between atoms: O_19  and  C_20
REMARK                            x       y       z     vdW  Elec       q    Type
REMARK                         _______ _______ _______ _____ _____    ______ ____
ROOT
ATOM      1  C   UNL     1       2.672   5.757  18.959  0.00  0.00    +0.000 A 
ATOM      2  C   UNL     1       3.009   6.539  17.921  0.00  0.00    +0.000 A 
ATOM      3  C   UNL     1       2.622   7.937  17.872  0.00  0.00    +0.000 A 
ATOM      4  C   UNL     1       2.042   8.539  18.921  0.00  0.00    +0.000 A 
ATOM      5  N   UNL     1       1.722   7.792  20.031  0.00  0.00    +0.000 N 
ATOM      6  C   UNL     1       1.939   6.430  20.071  0.00  0.00    +0.000 A 
ATOM      7  O   UNL     1       1.581   5.735  21.014  0.00  0.00    +0.000 OA
ATOM      8  C   UNL     1       0.939   8.359  21.124  0.00  0.00    +0.000 C 
ATOM      9  C   UNL     1       0.986   9.867  21.098  0.00  0.00    +0.000 C 
ATOM     10  N   UNL     1       0.679  10.356  19.777  0.00  0.00    +0.000 N 
ATOM     11  C   UNL     1       1.572   9.968  18.774  0.00  0.00    +0.000 C 
ATOM     12  O   UNL     1       1.915  10.674  17.832  0.00  0.00    +0.000 OA
ENDROOT
BRANCH   1  16
ATOM     13  C   UNL     1       4.830   1.430  20.130  0.00  0.00    +0.000 C 
ATOM     14  C   UNL     1       3.942   2.467  19.560  0.00  0.00    +0.000 A 
ATOM     15  C   UNL     1       4.034   3.829  19.727  0.00  0.00    +0.000 A 
ATOM     16  N   UNL     1       2.986   4.386  19.026  0.00  0.00    +0.000 N 
ATOM     17  C   UNL     1       2.302   3.313  18.480  0.00  0.00    +0.000 A 
ATOM     18  N   UNL     1       2.865   2.157  18.768  0.00  0.00    +0.000 NA
ENDBRANCH   1  16
BRANCH  10  19
ATOM     19  C   UNL     1      -0.623  11.001  19.445  0.00  0.00    +0.000 C 
ATOM     20  C   UNL     1      -1.471  10.269  18.363  0.00  0.00    +0.000 C 
ATOM     21  C   UNL     1      -1.906  11.656  17.811  0.00  0.00    +0.000 C 
ATOM     22  C   UNL     1      -0.635  12.282  18.486  0.00  0.00    +0.000 C 
BRANCH  22  23
ATOM     23  O   UNL     1      -0.661  13.679  18.968  0.00  0.00    +0.000 OA
BRANCH  23  24
ATOM     24  C   UNL     1       0.429  14.531  18.856  0.00  0.00    +0.000 A 
ATOM     25  C   UNL     1       1.721  13.972  18.861  0.00  0.00    +0.000 A 
ATOM     26  C   UNL     1       2.790  14.704  18.426  0.00  0.00    +0.000 A 
ATOM     27  C   UNL     1       2.671  16.063  18.542  0.00  0.00    +0.000 A 
ATOM     28  C   UNL     1       1.427  16.668  18.806  0.00  0.00    +0.000 A 
ATOM     29  C   UNL     1       1.370  18.001  19.163  0.00  0.00    +0.000 A 
ATOM     30  C   UNL     1       0.163  18.611  19.531  0.00  0.00    +0.000 A 
ATOM     31  C   UNL     1      -0.875  18.445  18.652  0.00  0.00    +0.000 A 
ATOM     32  C   UNL     1      -0.894  17.042  18.521  0.00  0.00    +0.000 A 
ATOM     33  C   UNL     1       0.226  16.008  18.726  0.00  0.00    +0.000 A 
ENDBRANCH  23  24
ENDBRANCH  22  23
ENDBRANCH  10  19
TORSDOF 4
ENDMDL
MODEL 6
REMARK VINA RESULT:      -8.3      2.643      5.583
REMARK  Name = 
REMARK  5 active torsions:
REMARK  status: ('A' for Active; 'I' for Inactive)
REMARK    1  A    between atoms: C_1  and  C_2
REMARK    2  A    between atoms: N_4  and  C_5
REMARK    3  A    between atoms: N_14  and  C_15
REMARK    4  A    between atoms: C_18  and  O_19
REMARK    5  A    between atoms: O_19  and  C_20
REMARK                            x       y       z     vdW  Elec       q    Type
REMARK                         _______ _______ _______ _____ _____    ______ ____
ROOT
ATOM      1  C   UNL     1      -2.436  13.517  21.734  0.00  0.00    +0.000 A 
ATOM      2  C   UNL     1      -2.764  13.317  20.448  0.00  0.00    +0.000 A 
ATOM      3  C   UNL     1      -2.182  12.231  19.681  0.00  0.00    +0.000 A 
ATOM      4  C   UNL     1      -1.409  11.300  20.261  0.00  0.00    +0.000 A 
ATOM      5  N   UNL     1      -1.087  11.432  21.592  0.00  0.00    +0.000 N 
ATOM      6  C   UNL     1      -1.497  12.523  22.329  0.00  0.00    +0.000 A 
ATOM      7  O   UNL     1      -1.146  12.702  23.490  0.00  0.00    +0.000 OA
ATOM      8  C   UNL     1      -0.115  10.546  22.224  0.00  0.00    +0.000 C 
ATOM      9  C   UNL     1       0.059   9.277  21.429  0.00  0.00    +0.000 C 
ATOM     10  N   UNL     1       0.291   9.583  20.039  0.00  0.00    +0.000 N 
ATOM     11  C   UNL     1      -0.752  10.252  19.393  0.00  0.00    +0.000 C 
ATOM     12  O   UNL     1      -1.086  10.067  18.228  0.00  0.00    +0.000 OA
ENDROOT
BRANCH   1  16
ATOM     13  C   UNL     1      -5.421  16.397  24.482  0.00  0.00    +0.000 C 
ATOM     14  C   UNL     1      -4.268  15.853  23.730  0.00  0.00    +0.000 A 
ATOM     15  C   UNL     1      -4.219  14.683  23.009  0.00  0.00    +0.000 A 
ATOM     16  N   UNL     1      -2.941  14.585  22.501  0.00  0.00    +0.000 N 
ATOM     17  C   UNL     1      -2.278  15.709  22.963  0.00  0.00    +0.000 A 
ATOM     18  N   UNL     1      -3.055  16.492  23.684  0.00  0.00    +0.000 NA
ENDBRANCH   1  16
BRANCH  10  19
ATOM     19  C   UNL     1       1.632   9.442  19.402  0.00  0.00    +0.000 C 
ATOM     20  C   UNL     1       1.777  10.111  18.002  0.00  0.00    +0.000 C 
ATOM     21  C   UNL     1       2.667   8.916  17.559  0.00  0.00    +0.000 C 
ATOM     22  C   UNL     1       2.018   8.056  18.700  0.00  0.00    +0.000 C 
BRANCH  22  23
ATOM     23  O   UNL     1       2.795   6.983  19.356  0.00  0.00    +0.000 OA
BRANCH  23  24
ATOM     24  C   UNL     1       2.974   5.731  18.785  0.00  0.00    +0.000 A 
ATOM     25  C   UNL     1       3.643   5.646  17.549  0.00  0.00    +0.000 A 
ATOM     26  C   UNL     1       4.136   4.449  17.113  0.00  0.00    +0.000 A 
ATOM     27  C   UNL     1       3.495   3.333  17.581  0.00  0.00    +0.000 A 
ATOM     28  C   UNL     1       2.596   3.406  18.663  0.00  0.00    +0.000 A 
ATOM     29  C   UNL     1       1.780   2.330  18.956  0.00  0.00    +0.000 A 
ATOM     30  C   UNL     1       0.804   2.401  19.958  0.00  0.00    +0.000 A 
ATOM     31  C   UNL     1       1.241   2.845  21.178  0.00  0.00    +0.000 A 
ATOM     32  C   UNL     1       1.861   4.058  20.817  0.00  0.00    +0.000 A 
ATOM     33  C   UNL     1       2.471   4.503  19.477  0.00  0.00    +0.000 A 
ENDBRANCH  23  24
ENDBRANCH  22  23
ENDBRANCH  10  19
TORSDOF 4
ENDMDL
MODEL 7
REMARK VINA RESULT:      -8.3      3.144      9.737
REMARK  Name = 
REMARK  5 active torsions:
REMARK  status: ('A' for Active; 'I' for Inactive)
REMARK    1  A    between atoms: C_1  and  C_2
REMARK    2  A    between atoms: N_4  and  C_5
REMARK    3  A    between atoms: N_14  and  C_15
REMARK    4  A    between atoms: C_18  and  O_19
REMARK    5  A    between atoms: O_19  and  C_20
REMARK                            x       y       z     vdW  Elec       q    Type
REMARK                         _______ _______ _______ _____ _____    ______ ____
ROOT
ATOM      1  C   UNL     1       2.752   6.774  18.957  0.00  0.00    +0.000 A 
ATOM      2  C   UNL     1       2.240   6.441  20.153  0.00  0.00    +0.000 A 
ATOM      3  C   UNL     1       1.396   7.359  20.894  0.00  0.00    +0.000 A 
ATOM      4  C   UNL     1       0.974   8.513  20.354  0.00  0.00    +0.000 A 
ATOM      5  N   UNL     1       1.429   8.875  19.107  0.00  0.00    +0.000 N 
ATOM      6  C   UNL     1       2.346   8.106  18.422  0.00  0.00    +0.000 A 
ATOM      7  O   UNL     1       2.828   8.455  17.351  0.00  0.00    +0.000 OA
ATOM      8  C   UNL     1       1.138  10.193  18.551  0.00  0.00    +0.000 C 
ATOM      9  C   UNL     1      -0.046  10.823  19.240  0.00  0.00    +0.000 C 
ATOM     10  N   UNL     1       0.115  10.761  20.672  0.00  0.00    +0.000 N 
ATOM     11  C   UNL     1       0.179   9.472  21.210  0.00  0.00    +0.000 C 
ATOM     12  O   UNL     1      -0.303   9.140  22.287  0.00  0.00    +0.000 OA
ENDROOT
BRANCH   1  16
ATOM     13  C   UNL     1       6.827   4.625  17.078  0.00  0.00    +0.000 C 
ATOM     14  C   UNL     1       5.428   4.976  17.404  0.00  0.00    +0.000 A 
ATOM     15  C   UNL     1       4.989   6.010  18.199  0.00  0.00    +0.000 A 
ATOM     16  N   UNL     1       3.613   5.933  18.226  0.00  0.00    +0.000 N 
ATOM     17  C   UNL     1       3.294   4.832  17.448  0.00  0.00    +0.000 A 
ATOM     18  N   UNL     1       4.360   4.255  16.931  0.00  0.00    +0.000 NA
ENDBRANCH   1  16
BRANCH  10  19
ATOM     19  C   UNL     1       0.454  11.959  21.491  0.00  0.00    +0.000 C 
ATOM     20  C   UNL     1      -0.765  12.730  22.078  0.00  0.00    +0.000 C 
ATOM     21  C   UNL     1      -0.005  14.062  21.822  0.00  0.00    +0.000 C 
ATOM     22  C   UNL     1       0.865  13.317  20.751  0.00  0.00    +0.000 C 
BRANCH  22  23
ATOM     23  O   UNL     1       2.261  13.737  20.503  0.00  0.00    +0.000 OA
BRANCH  23  24
ATOM     24  C   UNL     1       2.616  14.586  19.465  0.00  0.00    +0.000 A 
ATOM     25  C   UNL     1       3.943  14.550  18.992  0.00  0.00    +0.000 A 
ATOM     26  C   UNL     1       4.258  15.102  17.783  0.00  0.00    +0.000 A 
ATOM     27  C   UNL     1       3.447  16.121  17.361  0.00  0.00    +0.000 A 
ATOM     28  C   UNL     1       2.208  16.374  17.981  0.00  0.00    +0.000 A 
ATOM     29  C   UNL     1       1.527  17.545  17.710  0.00  0.00    +0.000 A 
ATOM     30  C   UNL     1       0.344  17.878  18.383  0.00  0.00    +0.000 A 
ATOM     31  C   UNL     1      -0.625  16.909  18.391  0.00  0.00    +0.000 A 
ATOM     32  C   UNL     1       0.098  15.810  18.896  0.00  0.00    +0.000 A 
ATOM     33  C   UNL     1       1.607  15.510  18.861  0.00  0.00    +0.000 A 
ENDBRANCH  23  24
ENDBRANCH  22  23
ENDBRANCH  10  19
TORSDOF 4
ENDMDL
MODEL 8
REMARK VINA RESULT:      -8.2      2.352      5.289
REMARK  Name = 
REMARK  5 active torsions:
REMARK  status: ('A' for Active; 'I' for Inactive)
REMARK    1  A    between atoms: C_1  and  C_2
REMARK    2  A    between atoms: N_4  and  C_5
REMARK    3  A    between atoms: N_14  and  C_15
REMARK    4  A    between atoms: C_18  and  O_19
REMARK    5  A    between atoms: O_19  and  C_20
REMARK                            x       y       z     vdW  Elec       q    Type
REMARK                         _______ _______ _______ _____ _____    ______ ____
ROOT
ATOM      1  C   UNL     1      -2.719  13.820  21.644  0.00  0.00    +0.000 A 
ATOM      2  C   UNL     1      -3.014  13.529  20.367  0.00  0.00    +0.000 A 
ATOM      3  C   UNL     1      -2.429  12.381  19.699  0.00  0.00    +0.000 A 
ATOM      4  C   UNL     1      -1.687  11.486  20.368  0.00  0.00    +0.000 A 
ATOM      5  N   UNL     1      -1.399  11.711  21.694  0.00  0.00    +0.000 N 
ATOM      6  C   UNL     1      -1.812  12.860  22.337  0.00  0.00    +0.000 A 
ATOM      7  O   UNL     1      -1.491  13.119  23.491  0.00  0.00    +0.000 OA
ATOM      8  C   UNL     1      -0.459  10.861  22.418  0.00  0.00    +0.000 C 
ATOM      9  C   UNL     1      -0.283   9.534  21.723  0.00  0.00    +0.000 C 
ATOM     10  N   UNL     1      -0.008   9.734  20.321  0.00  0.00    +0.000 N 
ATOM     11  C   UNL     1      -1.022  10.368  19.598  0.00  0.00    +0.000 C 
ATOM     12  O   UNL     1      -1.327  10.101  18.441  0.00  0.00    +0.000 OA
ENDROOT
BRANCH   1  16
ATOM     13  C   UNL     1      -5.623  16.844  24.321  0.00  0.00    +0.000 C 
ATOM     14  C   UNL     1      -4.518  16.282  23.515  0.00  0.00    +0.000 A 
ATOM     15  C   UNL     1      -4.445  15.026  22.958  0.00  0.00    +0.000 A 
ATOM     16  N   UNL     1      -3.228  14.947  22.316  0.00  0.00    +0.000 N 
ATOM     17  C   UNL     1      -2.619  16.171  22.538  0.00  0.00    +0.000 A 
ATOM     18  N   UNL     1      -3.378  16.993  23.236  0.00  0.00    +0.000 NA
ENDBRANCH   1  16
BRANCH  10  19
ATOM     19  C   UNL     1       1.347   9.528  19.735  0.00  0.00    +0.000 C 
ATOM     20  C   UNL     1       1.551  10.120  18.308  0.00  0.00    +0.000 C 
ATOM     21  C   UNL     1       2.424   8.882  17.955  0.00  0.00    +0.000 C 
ATOM     22  C   UNL     1       1.719   8.099  19.117  0.00  0.00    +0.000 C 
BRANCH  22  23
ATOM     23  O   UNL     1       2.448   7.043  19.851  0.00  0.00    +0.000 OA
BRANCH  23  24
ATOM     24  C   UNL     1       2.345   5.697  19.528  0.00  0.00    +0.000 A 
ATOM     25  C   UNL     1       1.485   4.887  20.294  0.00  0.00    +0.000 A 
ATOM     26  C   UNL     1       1.093   3.664  19.827  0.00  0.00    +0.000 A 
ATOM     27  C   UNL     1       1.954   3.053  18.956  0.00  0.00    +0.000 A 
ATOM     28  C   UNL     1       3.011   3.762  18.354  0.00  0.00    +0.000 A 
ATOM     29  C   UNL     1       4.006   3.079  17.682  0.00  0.00    +0.000 A 
ATOM     30  C   UNL     1       5.125   3.741  17.159  0.00  0.00    +0.000 A 
ATOM     31  C   UNL     1       4.855   4.825  16.366  0.00  0.00    +0.000 A 
ATOM     32  C   UNL     1       4.019   5.577  17.216  0.00  0.00    +0.000 A 
ATOM     33  C   UNL     1       3.126   5.130  18.386  0.00  0.00    +0.000 A 
ENDBRANCH  23  24
ENDBRANCH  22  23
ENDBRANCH  10  19
TORSDOF 4
ENDMDL
MODEL 9
REMARK VINA RESULT:      -8.2      3.078      5.888
REMARK  Name = 
REMARK  5 active torsions:
REMARK  status: ('A' for Active; 'I' for Inactive)
REMARK    1  A    between atoms: C_1  and  C_2
REMARK    2  A    between atoms: N_4  and  C_5
REMARK    3  A    between atoms: N_14  and  C_15
REMARK    4  A    between atoms: C_18  and  O_19
REMARK    5  A    between atoms: O_19  and  C_20
REMARK                            x       y       z     vdW  Elec       q    Type
REMARK                         _______ _______ _______ _____ _____    ______ ____
ROOT
ATOM      1  C   UNL     1      -3.109  13.138  22.662  0.00  0.00    +0.000 A 
ATOM      2  C   UNL     1      -2.686  12.053  23.330  0.00  0.00    +0.000 A 
ATOM      3  C   UNL     1      -1.464  11.365  22.958  0.00  0.00    +0.000 A 
ATOM      4  C   UNL     1      -0.634  11.867  22.031  0.00  0.00    +0.000 A 
ATOM      5  N   UNL     1      -0.996  13.008  21.353  0.00  0.00    +0.000 N 
ATOM      6  C   UNL     1      -2.215  13.619  21.569  0.00  0.00    +0.000 A 
ATOM      7  O   UNL     1      -2.592  14.583  20.914  0.00  0.00    +0.000 OA
ATOM      8  C   UNL     1      -0.214  13.496  20.222  0.00  0.00    +0.000 C 
ATOM      9  C   UNL     1       1.183  12.928  20.245  0.00  0.00    +0.000 C 
ATOM     10  N   UNL     1       1.141  11.497  20.417  0.00  0.00    +0.000 N 
ATOM     11  C   UNL     1       0.572  11.056  21.615  0.00  0.00    +0.000 C 
ATOM     12  O   UNL     1       0.957  10.085  22.256  0.00  0.00    +0.000 OA
ENDROOT
BRANCH   1  16
ATOM     13  C   UNL     1      -7.916  14.402  22.865  0.00  0.00    +0.000 C 
ATOM     14  C   UNL     1      -6.450  14.356  23.054  0.00  0.00    +0.000 A 
ATOM     15  C   UNL     1      -5.560  13.481  22.475  0.00  0.00    +0.000 A 
ATOM     16  N   UNL     1      -4.311  13.807  22.960  0.00  0.00    +0.000 N 
ATOM     17  C   UNL     1      -4.522  14.864  23.828  0.00  0.00    +0.000 A 
ATOM     18  N   UNL     1      -5.789  15.223  23.887  0.00  0.00    +0.000 NA
ENDBRANCH   1  16
BRANCH  10  19
ATOM     19  C   UNL     1       1.431  10.549  19.304  0.00  0.00    +0.000 C 
ATOM     20  C   UNL     1       0.370  10.516  18.164  0.00  0.00    +0.000 C 
ATOM     21  C   UNL     1       0.585   8.980  18.052  0.00  0.00    +0.000 C 
ATOM     22  C   UNL     1       1.146   8.988  19.518  0.00  0.00    +0.000 C 
BRANCH  22  23
ATOM     23  O   UNL     1       2.172   8.006  19.927  0.00  0.00    +0.000 OA
BRANCH  23  24
ATOM     24  C   UNL     1       2.568   6.953  19.116  0.00  0.00    +0.000 A 
ATOM     25  C   UNL     1       3.338   7.240  17.971  0.00  0.00    +0.000 A 
ATOM     26  C   UNL     1       4.025   6.245  17.335  0.00  0.00    +0.000 A 
ATOM     27  C   UNL     1       3.512   4.983  17.472  0.00  0.00    +0.000 A 
ATOM     28  C   UNL     1       2.531   4.693  18.439  0.00  0.00    +0.000 A 
ATOM     29  C   UNL     1       1.853   3.490  18.395  0.00  0.00    +0.000 A 
ATOM     30  C   UNL     1       0.801   3.208  19.277  0.00  0.00    +0.000 A 
ATOM     31  C   UNL     1       1.075   3.402  20.606  0.00  0.00    +0.000 A 
ATOM     32  C   UNL     1       1.546   4.730  20.592  0.00  0.00    +0.000 A 
ATOM     33  C   UNL     1       2.190   5.547  19.458  0.00  0.00    +0.000 A 
ENDBRANCH  23  24
ENDBRANCH  22  23
ENDBRANCH  10  19
TORSDOF 4
ENDMDL
