MODEL 1
REMARK VINA RESULT:      -7.8      0.000      0.000
REMARK  Name = 
REMARK  9 active torsions:
REMARK  status: ('A' for Active; 'I' for Inactive)
REMARK    1  A    between atoms: C_1  and  O_2
REMARK    2  A    between atoms: O_2  and  C_3
REMARK    3  A    between atoms: C_5  and  C_6
REMARK    4  A    between atoms: C_7  and  C_8
REMARK    5  A    between atoms: C_8  and  C_9
REMARK    6  A    between atoms: C_13  and  O_14
REMARK    7  A    between atoms: O_14  and  C_15
REMARK    8  A    between atoms: C_15  and  C_16
REMARK    9  A    between atoms: N_18  and  C_19
REMARK                            x       y       z     vdW  Elec       q    Type
REMARK                         _______ _______ _______ _____ _____    ______ ____
ROOT
ATOM      1  C   UNL     1       4.477   4.140  17.835  0.00  0.00    +0.000 A 
ATOM      2  C   UNL     1       4.944   3.963  16.521  0.00  0.00    +0.000 A 
ATOM      3  C   UNL     1       5.491   5.017  15.781  0.00  0.00    +0.000 A 
ATOM      4  C   UNL     1       5.624   6.259  16.388  0.00  0.00    +0.000 A 
ATOM      5  C   UNL     1       5.179   6.447  17.688  0.00  0.00    +0.000 A 
ATOM      6  C   UNL     1       4.568   5.411  18.419  0.00  0.00    +0.000 A 
ENDROOT
BRANCH   1   8
ATOM      7  C   UNL     1       2.859   2.347  17.833  0.00  0.00    +0.000 C 
ATOM      8  O   UNL     1       4.018   2.965  18.361  0.00  0.00    +0.000 OA
ENDBRANCH   1   8
BRANCH   3   9
ATOM      9  C   UNL     1       6.043   4.762  14.446  0.00  0.00    +0.000 C 
ATOM     10  C   UNL     1       5.797   3.637  13.755  0.00  0.00    +0.000 C 
BRANCH  10  11
ATOM     11  C   UNL     1       6.194   3.382  12.345  0.00  0.00    +0.000 C 
ATOM     12  C   UNL     1       7.289   4.172  11.682  0.00  0.00    +0.000 C 
ATOM     13  O   UNL     1       5.568   2.524  11.722  0.00  0.00    +0.000 OA
ENDBRANCH  10  11
ENDBRANCH   3   9
BRANCH   6  14
ATOM     14  O   UNL     1       4.087   5.634  19.685  0.00  0.00    +0.000 OA
BRANCH  14  15
ATOM     15  C   UNL     1       2.648   5.611  19.770  0.00  0.00    +0.000 C 
BRANCH  15  16
ATOM     16  C   UNL     1       2.058   6.952  19.914  0.00  0.00    +0.000 A 
ATOM     17  C   UNL     1       1.397   7.512  20.976  0.00  0.00    +0.000 A 
ATOM     18  N   UNL     1       1.089   8.783  20.564  0.00  0.00    +0.000 N 
ATOM     19  N   UNL     1       1.529   8.968  19.295  0.00  0.00    +0.000 NA
ATOM     20  N   UNL     1       2.129   7.860  18.896  0.00  0.00    +0.000 NA
BRANCH  18  21
ATOM     21  C   UNL     1       0.439   9.798  21.296  0.00  0.00    +0.000 A 
ATOM     22  C   UNL     1       0.572  11.143  20.917  0.00  0.00    +0.000 A 
ATOM     23  C   UNL     1      -0.089  12.134  21.633  0.00  0.00    +0.000 A 
ATOM     24  C   UNL     1      -0.880  11.793  22.727  0.00  0.00    +0.000 A 
ATOM     25  C   UNL     1      -1.011  10.459  23.112  0.00  0.00    +0.000 A 
ATOM     26  C   UNL     1      -0.355   9.459  22.401  0.00  0.00    +0.000 A 
ENDBRANCH  18  21
ENDBRANCH  15  16
ENDBRANCH  14  15
ENDBRANCH   6  14
TORSDOF 7
ENDMDL
MODEL 2
REMARK VINA RESULT:      -7.8      3.357      5.227
REMARK  Name = 
REMARK  9 active torsions:
REMARK  status: ('A' for Active; 'I' for Inactive)
REMARK    1  A    between atoms: C_1  and  O_2
REMARK    2  A    between atoms: O_2  and  C_3
REMARK    3  A    between atoms: C_5  and  C_6
REMARK    4  A    between atoms: C_7  and  C_8
REMARK    5  A    between atoms: C_8  and  C_9
REMARK    6  A    between atoms: C_13  and  O_14
REMARK    7  A    between atoms: O_14  and  C_15
REMARK    8  A    between atoms: C_15  and  C_16
REMARK    9  A    between atoms: N_18  and  C_19
REMARK                            x       y       z     vdW  Elec       q    Type
REMARK                         _______ _______ _______ _____ _____    ______ ____
ROOT
ATOM      1  C   UNL     1       6.227   5.813  16.936  0.00  0.00    +0.000 A 
ATOM      2  C   UNL     1       6.792   7.094  16.827  0.00  0.00    +0.000 A 
ATOM      3  C   UNL     1       7.700   7.586  17.772  0.00  0.00    +0.000 A 
ATOM      4  C   UNL     1       8.089   6.757  18.817  0.00  0.00    +0.000 A 
ATOM      5  C   UNL     1       7.548   5.486  18.932  0.00  0.00    +0.000 A 
ATOM      6  C   UNL     1       6.587   5.005  18.024  0.00  0.00    +0.000 A 
ENDROOT
BRANCH   1   8
ATOM      7  C   UNL     1       5.885   4.864  14.741  0.00  0.00    +0.000 C 
ATOM      8  O   UNL     1       5.398   5.544  15.883  0.00  0.00    +0.000 OA
ENDBRANCH   1   8
BRANCH   3   9
ATOM      9  C   UNL     1       8.328   8.896  17.568  0.00  0.00    +0.000 C 
ATOM     10  C   UNL     1       8.648   9.720  18.580  0.00  0.00    +0.000 C 
BRANCH  10  11
ATOM     11  C   UNL     1       9.421  10.984  18.455  0.00  0.00    +0.000 C 
ATOM     12  C   UNL     1       8.814  12.220  17.851  0.00  0.00    +0.000 C 
ATOM     13  O   UNL     1      10.593  10.975  18.831  0.00  0.00    +0.000 OA
ENDBRANCH  10  11
ENDBRANCH   3   9
BRANCH   6  14
ATOM     14  O   UNL     1       6.026   3.762  18.187  0.00  0.00    +0.000 OA
BRANCH  14  15
ATOM     15  C   UNL     1       4.988   3.723  19.188  0.00  0.00    +0.000 C 
BRANCH  15  16
ATOM     16  C   UNL     1       3.940   4.733  18.971  0.00  0.00    +0.000 A 
ATOM     17  C   UNL     1       3.728   5.930  19.606  0.00  0.00    +0.000 A 
ATOM     18  N   UNL     1       2.628   6.462  18.986  0.00  0.00    +0.000 N 
ATOM     19  N   UNL     1       2.184   5.605  18.033  0.00  0.00    +0.000 NA
ATOM     20  N   UNL     1       2.985   4.554  18.012  0.00  0.00    +0.000 NA
BRANCH  18  21
ATOM     21  C   UNL     1       2.011   7.706  19.232  0.00  0.00    +0.000 A 
ATOM     22  C   UNL     1       1.857   8.640  18.196  0.00  0.00    +0.000 A 
ATOM     23  C   UNL     1       1.230   9.855  18.444  0.00  0.00    +0.000 A 
ATOM     24  C   UNL     1       0.758  10.147  19.722  0.00  0.00    +0.000 A 
ATOM     25  C   UNL     1       0.914   9.227  20.757  0.00  0.00    +0.000 A 
ATOM     26  C   UNL     1       1.538   8.006  20.518  0.00  0.00    +0.000 A 
ENDBRANCH  18  21
ENDBRANCH  15  16
ENDBRANCH  14  15
ENDBRANCH   6  14
TORSDOF 7
ENDMDL
MODEL 3
REMARK VINA RESULT:      -7.7      2.971      9.470
REMARK  Name = 
REMARK  9 active torsions:
REMARK  status: ('A' for Active; 'I' for Inactive)
REMARK    1  A    between atoms: C_1  and  O_2
REMARK    2  A    between atoms: O_2  and  C_3
REMARK    3  A    between atoms: C_5  and  C_6
REMARK    4  A    between atoms: C_7  and  C_8
REMARK    5  A    between atoms: C_8  and  C_9
REMARK    6  A    between atoms: C_13  and  O_14
REMARK    7  A    between atoms: O_14  and  C_15
REMARK    8  A    between atoms: C_15  and  C_16
REMARK    9  A    between atoms: N_18  and  C_19
REMARK                            x       y       z     vdW  Elec       q    Type
REMARK                         _______ _______ _______ _____ _____    ______ ____
ROOT
ATOM      1  C   UNL     1       2.932   6.385  18.485  0.00  0.00    +0.000 A 
ATOM      2  C   UNL     1       2.359   7.548  19.027  0.00  0.00    +0.000 A 
ATOM      3  C   UNL     1       1.680   7.537  20.251  0.00  0.00    +0.000 A 
ATOM      4  C   UNL     1       1.622   6.351  20.971  0.00  0.00    +0.000 A 
ATOM      5  C   UNL     1       2.193   5.198  20.454  0.00  0.00    +0.000 A 
ATOM      6  C   UNL     1       2.821   5.182  19.195  0.00  0.00    +0.000 A 
ENDROOT
BRANCH   1   8
ATOM      7  C   UNL     1       4.773   7.386  17.284  0.00  0.00    +0.000 C 
ATOM      8  O   UNL     1       3.565   6.649  17.302  0.00  0.00    +0.000 OA
ENDBRANCH   1   8
BRANCH   3   9
ATOM      9  C   UNL     1       1.175   8.793  20.816  0.00  0.00    +0.000 C 
ATOM     10  C   UNL     1       0.260   8.838  21.799  0.00  0.00    +0.000 C 
BRANCH  10  11
ATOM     11  C   UNL     1      -0.178  10.063  22.519  0.00  0.00    +0.000 C 
ATOM     12  C   UNL     1      -0.638  11.288  21.777  0.00  0.00    +0.000 C 
ATOM     13  O   UNL     1      -0.116  10.055  23.748  0.00  0.00    +0.000 OA
ENDBRANCH  10  11
ENDBRANCH   3   9
BRANCH   6  14
ATOM     14  O   UNL     1       3.333   4.016  18.680  0.00  0.00    +0.000 OA
BRANCH  14  15
ATOM     15  C   UNL     1       4.732   3.822  18.969  0.00  0.00    +0.000 C 
BRANCH  15  16
ATOM     16  C   UNL     1       5.598   4.049  17.800  0.00  0.00    +0.000 A 
ATOM     17  C   UNL     1       5.327   3.904  16.464  0.00  0.00    +0.000 A 
ATOM     18  N   UNL     1       6.486   4.271  15.832  0.00  0.00    +0.000 N 
ATOM     19  N   UNL     1       7.423   4.600  16.756  0.00  0.00    +0.000 NA
ATOM     20  N   UNL     1       6.885   4.477  17.957  0.00  0.00    +0.000 NA
BRANCH  18  21
ATOM     21  C   UNL     1       6.734   4.339  14.446  0.00  0.00    +0.000 A 
ATOM     22  C   UNL     1       7.661   5.260  13.934  0.00  0.00    +0.000 A 
ATOM     23  C   UNL     1       7.912   5.306  12.568  0.00  0.00    +0.000 A 
ATOM     24  C   UNL     1       7.242   4.441  11.707  0.00  0.00    +0.000 A 
ATOM     25  C   UNL     1       6.314   3.528  12.208  0.00  0.00    +0.000 A 
ATOM     26  C   UNL     1       6.057   3.473  13.574  0.00  0.00    +0.000 A 
ENDBRANCH  18  21
ENDBRANCH  15  16
ENDBRANCH  14  15
ENDBRANCH   6  14
TORSDOF 7
ENDMDL
MODEL 4
REMARK VINA RESULT:      -7.6      4.070      5.923
REMARK  Name = 
REMARK  9 active torsions:
REMARK  status: ('A' for Active; 'I' for Inactive)
REMARK    1  A    between atoms: C_1  and  O_2
REMARK    2  A    between atoms: O_2  and  C_3
REMARK    3  A    between atoms: C_5  and  C_6
REMARK    4  A    between atoms: C_7  and  C_8
REMARK    5  A    between atoms: C_8  and  C_9
REMARK    6  A    between atoms: C_13  and  O_14
REMARK    7  A    between atoms: O_14  and  C_15
REMARK    8  A    between atoms: C_15  and  C_16
REMARK    9  A    between atoms: N_18  and  C_19
REMARK                            x       y       z     vdW  Elec       q    Type
REMARK                         _______ _______ _______ _____ _____    ______ ____
ROOT
ATOM      1  C   UNL     1       7.459   4.995  13.563  0.00  0.00    +0.000 A 
ATOM      2  C   UNL     1       6.723   4.529  12.461  0.00  0.00    +0.000 A 
ATOM      3  C   UNL     1       5.572   3.748  12.616  0.00  0.00    +0.000 A 
ATOM      4  C   UNL     1       5.119   3.476  13.901  0.00  0.00    +0.000 A 
ATOM      5  C   UNL     1       5.829   3.939  14.999  0.00  0.00    +0.000 A 
ATOM      6  C   UNL     1       7.023   4.670  14.855  0.00  0.00    +0.000 A 
ENDROOT
BRANCH   1   8
ATOM      7  C   UNL     1       8.493   6.430  11.918  0.00  0.00    +0.000 C 
ATOM      8  O   UNL     1       8.520   5.760  13.164  0.00  0.00    +0.000 OA
ENDBRANCH   1   8
BRANCH   3   9
ATOM      9  C   UNL     1       4.790   3.358  11.438  0.00  0.00    +0.000 C 
ATOM     10  C   UNL     1       3.766   4.088  10.965  0.00  0.00    +0.000 C 
BRANCH  10  11
ATOM     11  C   UNL     1       3.036   3.834   9.695  0.00  0.00    +0.000 C 
ATOM     12  C   UNL     1       2.325   4.938   8.963  0.00  0.00    +0.000 C 
ATOM     13  O   UNL     1       3.001   2.676   9.279  0.00  0.00    +0.000 OA
ENDBRANCH  10  11
ENDBRANCH   3   9
BRANCH   6  14
ATOM     14  O   UNL     1       7.737   5.073  15.956  0.00  0.00    +0.000 OA
BRANCH  14  15
ATOM     15  C   UNL     1       7.019   5.989  16.807  0.00  0.00    +0.000 C 
BRANCH  15  16
ATOM     16  C   UNL     1       6.173   5.309  17.801  0.00  0.00    +0.000 A 
ATOM     17  C   UNL     1       4.808   5.300  17.935  0.00  0.00    +0.000 A 
ATOM     18  N   UNL     1       4.570   4.490  19.015  0.00  0.00    +0.000 N 
ATOM     19  N   UNL     1       5.748   4.049  19.521  0.00  0.00    +0.000 NA
ATOM     20  N   UNL     1       6.729   4.536  18.781  0.00  0.00    +0.000 NA
BRANCH  18  21
ATOM     21  C   UNL     1       3.324   4.113  19.557  0.00  0.00    +0.000 A 
ATOM     22  C   UNL     1       2.481   5.075  20.135  0.00  0.00    +0.000 A 
ATOM     23  C   UNL     1       1.246   4.697  20.649  0.00  0.00    +0.000 A 
ATOM     24  C   UNL     1       0.848   3.363  20.594  0.00  0.00    +0.000 A 
ATOM     25  C   UNL     1       1.683   2.402  20.027  0.00  0.00    +0.000 A 
ATOM     26  C   UNL     1       2.920   2.771  19.507  0.00  0.00    +0.000 A 
ENDBRANCH  18  21
ENDBRANCH  15  16
ENDBRANCH  14  15
ENDBRANCH   6  14
TORSDOF 7
ENDMDL
MODEL 5
REMARK VINA RESULT:      -7.6      3.535      5.547
REMARK  Name = 
REMARK  9 active torsions:
REMARK  status: ('A' for Active; 'I' for Inactive)
REMARK    1  A    between atoms: C_1  and  O_2
REMARK    2  A    between atoms: O_2  and  C_3
REMARK    3  A    between atoms: C_5  and  C_6
REMARK    4  A    between atoms: C_7  and  C_8
REMARK    5  A    between atoms: C_8  and  C_9
REMARK    6  A    between atoms: C_13  and  O_14
REMARK    7  A    between atoms: O_14  and  C_15
REMARK    8  A    between atoms: C_15  and  C_16
REMARK    9  A    between atoms: N_18  and  C_19
REMARK                            x       y       z     vdW  Elec       q    Type
REMARK                         _______ _______ _______ _____ _____    ______ ____
ROOT
ATOM      1  C   UNL     1       6.701   5.979  16.551  0.00  0.00    +0.000 A 
ATOM      2  C   UNL     1       7.246   7.270  16.657  0.00  0.00    +0.000 A 
ATOM      3  C   UNL     1       7.846   7.727  17.836  0.00  0.00    +0.000 A 
ATOM      4  C   UNL     1       7.952   6.854  18.911  0.00  0.00    +0.000 A 
ATOM      5  C   UNL     1       7.429   5.573  18.819  0.00  0.00    +0.000 A 
ATOM      6  C   UNL     1       6.766   5.125  17.661  0.00  0.00    +0.000 A 
ENDROOT
BRANCH   1   8
ATOM      7  C   UNL     1       6.938   4.994  14.359  0.00  0.00    +0.000 C 
ATOM      8  O   UNL     1       6.201   5.752  15.300  0.00  0.00    +0.000 OA
ENDBRANCH   1   8
BRANCH   3   9
ATOM      9  C   UNL     1       8.476   9.051  17.868  0.00  0.00    +0.000 C 
ATOM     10  C   UNL     1       8.964   9.602  18.992  0.00  0.00    +0.000 C 
BRANCH  10  11
ATOM     11  C   UNL     1       9.748  10.863  19.068  0.00  0.00    +0.000 C 
ATOM     12  C   UNL     1      10.045  11.525  20.385  0.00  0.00    +0.000 C 
ATOM     13  O   UNL     1      10.117  11.370  18.009  0.00  0.00    +0.000 OA
ENDBRANCH  10  11
ENDBRANCH   3   9
BRANCH   6  14
ATOM     14  O   UNL     1       6.210   3.871  17.611  0.00  0.00    +0.000 OA
BRANCH  14  15
ATOM     15  C   UNL     1       4.796   3.875  17.328  0.00  0.00    +0.000 C 
BRANCH  15  16
ATOM     16  C   UNL     1       4.042   4.814  18.175  0.00  0.00    +0.000 A 
ATOM     17  C   UNL     1       3.504   6.037  17.867  0.00  0.00    +0.000 A 
ATOM     18  N   UNL     1       2.899   6.452  19.025  0.00  0.00    +0.000 N 
ATOM     19  N   UNL     1       3.089   5.524  19.995  0.00  0.00    +0.000 NA
ATOM     20  N   UNL     1       3.776   4.518  19.481  0.00  0.00    +0.000 NA
BRANCH  18  21
ATOM     21  C   UNL     1       2.162   7.634  19.242  0.00  0.00    +0.000 A 
ATOM     22  C   UNL     1       1.959   8.547  18.195  0.00  0.00    +0.000 A 
ATOM     23  C   UNL     1       1.214   9.699  18.414  0.00  0.00    +0.000 A 
ATOM     24  C   UNL     1       0.673   9.951  19.672  0.00  0.00    +0.000 A 
ATOM     25  C   UNL     1       0.876   9.052  20.718  0.00  0.00    +0.000 A 
ATOM     26  C   UNL     1       1.619   7.893  20.509  0.00  0.00    +0.000 A 
ENDBRANCH  18  21
ENDBRANCH  15  16
ENDBRANCH  14  15
ENDBRANCH   6  14
TORSDOF 7
ENDMDL
MODEL 6
REMARK VINA RESULT:      -7.5      1.107      1.812
REMARK  Name = 
REMARK  9 active torsions:
REMARK  status: ('A' for Active; 'I' for Inactive)
REMARK    1  A    between atoms: C_1  and  O_2
REMARK    2  A    between atoms: O_2  and  C_3
REMARK    3  A    between atoms: C_5  and  C_6
REMARK    4  A    between atoms: C_7  and  C_8
REMARK    5  A    between atoms: C_8  and  C_9
REMARK    6  A    between atoms: C_13  and  O_14
REMARK    7  A    between atoms: O_14  and  C_15
REMARK    8  A    between atoms: C_15  and  C_16
REMARK    9  A    between atoms: N_18  and  C_19
REMARK                            x       y       z     vdW  Elec       q    Type
REMARK                         _______ _______ _______ _____ _____    ______ ____
ROOT
ATOM      1  C   UNL     1       6.131   5.525  18.041  0.00  0.00    +0.000 A 
ATOM      2  C   UNL     1       6.604   4.940  16.855  0.00  0.00    +0.000 A 
ATOM      3  C   UNL     1       5.785   4.151  16.040  0.00  0.00    +0.000 A 
ATOM      4  C   UNL     1       4.452   3.988  16.392  0.00  0.00    +0.000 A 
ATOM      5  C   UNL     1       3.966   4.568  17.555  0.00  0.00    +0.000 A 
ATOM      6  C   UNL     1       4.796   5.311  18.415  0.00  0.00    +0.000 A 
ENDROOT
BRANCH   1   8
ATOM      7  C   UNL     1       7.963   5.691  19.606  0.00  0.00    +0.000 C 
ATOM      8  O   UNL     1       7.100   6.274  18.647  0.00  0.00    +0.000 OA
ENDBRANCH   1   8
BRANCH   3   9
ATOM      9  C   UNL     1       6.302   3.634  14.768  0.00  0.00    +0.000 C 
ATOM     10  C   UNL     1       5.657   3.787  13.599  0.00  0.00    +0.000 C 
BRANCH  10  11
ATOM     11  C   UNL     1       6.194   3.428  12.260  0.00  0.00    +0.000 C 
ATOM     12  C   UNL     1       7.297   4.222  11.618  0.00  0.00    +0.000 C 
ATOM     13  O   UNL     1       5.678   2.476  11.676  0.00  0.00    +0.000 OA
ENDBRANCH  10  11
ENDBRANCH   3   9
BRANCH   6  14
ATOM     14  O   UNL     1       4.307   5.831  19.587  0.00  0.00    +0.000 OA
BRANCH  14  15
ATOM     15  C   UNL     1       2.879   5.688  19.732  0.00  0.00    +0.000 C 
BRANCH  15  16
ATOM     16  C   UNL     1       2.182   6.977  19.867  0.00  0.00    +0.000 A 
ATOM     17  C   UNL     1       1.433   7.467  20.906  0.00  0.00    +0.000 A 
ATOM     18  N   UNL     1       1.047   8.717  20.498  0.00  0.00    +0.000 N 
ATOM     19  N   UNL     1       1.527   8.957  19.253  0.00  0.00    +0.000 NA
ATOM     20  N   UNL     1       2.228   7.905  18.866  0.00  0.00    +0.000 NA
BRANCH  18  21
ATOM     21  C   UNL     1       0.288   9.666  21.213  0.00  0.00    +0.000 A 
ATOM     22  C   UNL     1      -0.062  10.889  20.619  0.00  0.00    +0.000 A 
ATOM     23  C   UNL     1      -0.827  11.809  21.325  0.00  0.00    +0.000 A 
ATOM     24  C   UNL     1      -1.243  11.520  22.623  0.00  0.00    +0.000 A 
ATOM     25  C   UNL     1      -0.893  10.311  23.221  0.00  0.00    +0.000 A 
ATOM     26  C   UNL     1      -0.130   9.381  22.521  0.00  0.00    +0.000 A 
ENDBRANCH  18  21
ENDBRANCH  15  16
ENDBRANCH  14  15
ENDBRANCH   6  14
TORSDOF 7
ENDMDL
MODEL 7
REMARK VINA RESULT:      -7.5      2.275      3.674
REMARK  Name = 
REMARK  9 active torsions:
REMARK  status: ('A' for Active; 'I' for Inactive)
REMARK    1  A    between atoms: C_1  and  O_2
REMARK    2  A    between atoms: O_2  and  C_3
REMARK    3  A    between atoms: C_5  and  C_6
REMARK    4  A    between atoms: C_7  and  C_8
REMARK    5  A    between atoms: C_8  and  C_9
REMARK    6  A    between atoms: C_13  and  O_14
REMARK    7  A    between atoms: O_14  and  C_15
REMARK    8  A    between atoms: C_15  and  C_16
REMARK    9  A    between atoms: N_18  and  C_19
REMARK                            x       y       z     vdW  Elec       q    Type
REMARK                         _______ _______ _______ _____ _____    ______ ____
ROOT
ATOM      1  C   UNL     1       2.162   5.512  19.894  0.00  0.00    +0.000 A 
ATOM      2  C   UNL     1       2.969   4.835  18.964  0.00  0.00    +0.000 A 
ATOM      3  C   UNL     1       3.665   5.511  17.956  0.00  0.00    +0.000 A 
ATOM      4  C   UNL     1       3.594   6.897  17.912  0.00  0.00    +0.000 A 
ATOM      5  C   UNL     1       2.811   7.581  18.829  0.00  0.00    +0.000 A 
ATOM      6  C   UNL     1       2.056   6.908  19.807  0.00  0.00    +0.000 A 
ENDROOT
BRANCH   1   8
ATOM      7  C   UNL     1       2.411   3.665  21.430  0.00  0.00    +0.000 C 
ATOM      8  O   UNL     1       1.611   4.647  20.797  0.00  0.00    +0.000 OA
ENDBRANCH   1   8
BRANCH   3   9
ATOM      9  C   UNL     1       4.562   4.768  17.064  0.00  0.00    +0.000 C 
ATOM     10  C   UNL     1       5.266   5.353  16.080  0.00  0.00    +0.000 C 
BRANCH  10  11
ATOM     11  C   UNL     1       6.303   4.691  15.246  0.00  0.00    +0.000 C 
ATOM     12  C   UNL     1       5.945   3.962  13.980  0.00  0.00    +0.000 C 
ATOM     13  O   UNL     1       7.466   4.728  15.647  0.00  0.00    +0.000 OA
ENDBRANCH  10  11
ENDBRANCH   3   9
BRANCH   6  14
ATOM     14  O   UNL     1       1.246   7.602  20.671  0.00  0.00    +0.000 OA
BRANCH  14  15
ATOM     15  C   UNL     1       1.027   8.973  20.283  0.00  0.00    +0.000 C 
BRANCH  15  16
ATOM     16  C   UNL     1       0.411   9.782  21.347  0.00  0.00    +0.000 A 
ATOM     17  C   UNL     1      -0.429  10.862  21.256  0.00  0.00    +0.000 A 
ATOM     18  N   UNL     1      -0.704  11.200  22.555  0.00  0.00    +0.000 N 
ATOM     19  N   UNL     1      -0.034  10.369  23.392  0.00  0.00    +0.000 NA
ATOM     20  N   UNL     1       0.639   9.496  22.663  0.00  0.00    +0.000 NA
BRANCH  18  21
ATOM     21  C   UNL     1      -1.553  12.224  23.024  0.00  0.00    +0.000 A 
ATOM     22  C   UNL     1      -2.853  11.924  23.459  0.00  0.00    +0.000 A 
ATOM     23  C   UNL     1      -3.675  12.937  23.938  0.00  0.00    +0.000 A 
ATOM     24  C   UNL     1      -3.210  14.249  23.982  0.00  0.00    +0.000 A 
ATOM     25  C   UNL     1      -1.922  14.554  23.545  0.00  0.00    +0.000 A 
ATOM     26  C   UNL     1      -1.090  13.547  23.066  0.00  0.00    +0.000 A 
ENDBRANCH  18  21
ENDBRANCH  15  16
ENDBRANCH  14  15
ENDBRANCH   6  14
TORSDOF 7
ENDMDL
MODEL 8
REMARK VINA RESULT:      -7.5      1.162      2.015
REMARK  Name = 
REMARK  9 active torsions:
REMARK  status: ('A' for Active; 'I' for Inactive)
REMARK    1  A    between atoms: C_1  and  O_2
REMARK    2  A    between atoms: O_2  and  C_3
REMARK    3  A    between atoms: C_5  and  C_6
REMARK    4  A    between atoms: C_7  and  C_8
REMARK    5  A    between atoms: C_8  and  C_9
REMARK    6  A    between atoms: C_13  and  O_14
REMARK    7  A    between atoms: O_14  and  C_15
REMARK    8  A    between atoms: C_15  and  C_16
REMARK    9  A    between atoms: N_18  and  C_19
REMARK                            x       y       z     vdW  Elec       q    Type
REMARK                         _______ _______ _______ _____ _____    ______ ____
ROOT
ATOM      1  C   UNL     1       6.154   4.936  18.426  0.00  0.00    +0.000 A 
ATOM      2  C   UNL     1       6.646   4.646  17.143  0.00  0.00    +0.000 A 
ATOM      3  C   UNL     1       5.797   4.301  16.084  0.00  0.00    +0.000 A 
ATOM      4  C   UNL     1       4.426   4.300  16.303  0.00  0.00    +0.000 A 
ATOM      5  C   UNL     1       3.924   4.595  17.561  0.00  0.00    +0.000 A 
ATOM      6  C   UNL     1       4.770   4.880  18.649  0.00  0.00    +0.000 A 
ENDROOT
BRANCH   1   8
ATOM      7  C   UNL     1       8.094   6.283  18.929  0.00  0.00    +0.000 C 
ATOM      8  O   UNL     1       7.165   5.275  19.281  0.00  0.00    +0.000 OA
ENDBRANCH   1   8
BRANCH   3   9
ATOM      9  C   UNL     1       6.352   4.091  14.743  0.00  0.00    +0.000 C 
ATOM     10  C   UNL     1       5.652   3.535  13.740  0.00  0.00    +0.000 C 
BRANCH  10  11
ATOM     11  C   UNL     1       6.097   3.435  12.325  0.00  0.00    +0.000 C 
ATOM     12  C   UNL     1       7.330   4.146  11.837  0.00  0.00    +0.000 C 
ATOM     13  O   UNL     1       5.400   2.778  11.553  0.00  0.00    +0.000 OA
ENDBRANCH  10  11
ENDBRANCH   3   9
BRANCH   6  14
ATOM     14  O   UNL     1       4.253   5.118  19.898  0.00  0.00    +0.000 OA
BRANCH  14  15
ATOM     15  C   UNL     1       2.812   5.098  19.941  0.00  0.00    +0.000 C 
BRANCH  15  16
ATOM     16  C   UNL     1       2.220   6.443  20.019  0.00  0.00    +0.000 A 
ATOM     17  C   UNL     1       1.383   6.982  20.962  0.00  0.00    +0.000 A 
ATOM     18  N   UNL     1       1.168   8.269  20.542  0.00  0.00    +0.000 N 
ATOM     19  N   UNL     1       1.831   8.484  19.379  0.00  0.00    +0.000 NA
ATOM     20  N   UNL     1       2.482   7.379  19.059  0.00  0.00    +0.000 NA
BRANCH  18  21
ATOM     21  C   UNL     1       0.406   9.272  21.176  0.00  0.00    +0.000 A 
ATOM     22  C   UNL     1       0.154   9.206  22.556  0.00  0.00    +0.000 A 
ATOM     23  C   UNL     1      -0.581  10.210  23.175  0.00  0.00    +0.000 A 
ATOM     24  C   UNL     1      -1.069  11.279  22.427  0.00  0.00    +0.000 A 
ATOM     25  C   UNL     1      -0.827  11.347  21.056  0.00  0.00    +0.000 A 
ATOM     26  C   UNL     1      -0.090  10.348  20.426  0.00  0.00    +0.000 A 
ENDBRANCH  18  21
ENDBRANCH  15  16
ENDBRANCH  14  15
ENDBRANCH   6  14
TORSDOF 7
ENDMDL
MODEL 9
REMARK VINA RESULT:      -7.5      2.237      3.324
REMARK  Name = 
REMARK  9 active torsions:
REMARK  status: ('A' for Active; 'I' for Inactive)
REMARK    1  A    between atoms: C_1  and  O_2
REMARK    2  A    between atoms: O_2  and  C_3
REMARK    3  A    between atoms: C_5  and  C_6
REMARK    4  A    between atoms: C_7  and  C_8
REMARK    5  A    between atoms: C_8  and  C_9
REMARK    6  A    between atoms: C_13  and  O_14
REMARK    7  A    between atoms: O_14  and  C_15
REMARK    8  A    between atoms: C_15  and  C_16
REMARK    9  A    between atoms: N_18  and  C_19
REMARK                            x       y       z     vdW  Elec       q    Type
REMARK                         _______ _______ _______ _____ _____    ______ ____
ROOT
ATOM      1  C   UNL     1       2.796   5.874  19.503  0.00  0.00    +0.000 A 
ATOM      2  C   UNL     1       3.583   5.182  18.567  0.00  0.00    +0.000 A 
ATOM      3  C   UNL     1       4.078   5.800  17.414  0.00  0.00    +0.000 A 
ATOM      4  C   UNL     1       3.825   7.152  17.221  0.00  0.00    +0.000 A 
ATOM      5  C   UNL     1       3.059   7.852  18.141  0.00  0.00    +0.000 A 
ATOM      6  C   UNL     1       2.502   7.225  19.271  0.00  0.00    +0.000 A 
ENDROOT
BRANCH   1   8
ATOM      7  C   UNL     1       1.228   4.373  20.561  0.00  0.00    +0.000 C 
ATOM      8  O   UNL     1       2.458   5.073  20.557  0.00  0.00    +0.000 OA
ENDBRANCH   1   8
BRANCH   3   9
ATOM      9  C   UNL     1       4.967   5.058  16.512  0.00  0.00    +0.000 C 
ATOM     10  C   UNL     1       5.486   5.592  15.394  0.00  0.00    +0.000 C 
BRANCH  10  11
ATOM     11  C   UNL     1       6.508   4.953  14.524  0.00  0.00    +0.000 C 
ATOM     12  C   UNL     1       6.148   3.846  13.572  0.00  0.00    +0.000 C 
ATOM     13  O   UNL     1       7.672   5.337  14.635  0.00  0.00    +0.000 OA
ENDBRANCH  10  11
ENDBRANCH   3   9
BRANCH   6  14
ATOM     14  O   UNL     1       1.703   7.926  20.141  0.00  0.00    +0.000 OA
BRANCH  14  15
ATOM     15  C   UNL     1       1.261   9.197  19.623  0.00  0.00    +0.000 C 
BRANCH  15  16
ATOM     16  C   UNL     1       0.499   9.985  20.606  0.00  0.00    +0.000 A 
ATOM     17  C   UNL     1      -0.631  10.744  20.437  0.00  0.00    +0.000 A 
ATOM     18  N   UNL     1      -0.912  11.231  21.687  0.00  0.00    +0.000 N 
ATOM     19  N   UNL     1       0.028  10.800  22.565  0.00  0.00    +0.000 NA
ATOM     20  N   UNL     1       0.885  10.032  21.915  0.00  0.00    +0.000 NA
BRANCH  18  21
ATOM     21  C   UNL     1      -1.998  12.042  22.077  0.00  0.00    +0.000 A 
ATOM     22  C   UNL     1      -2.684  12.816  21.128  0.00  0.00    +0.000 A 
ATOM     23  C   UNL     1      -3.765  13.595  21.519  0.00  0.00    +0.000 A 
ATOM     24  C   UNL     1      -4.166  13.612  22.853  0.00  0.00    +0.000 A 
ATOM     25  C   UNL     1      -3.485  12.851  23.802  0.00  0.00    +0.000 A 
ATOM     26  C   UNL     1      -2.402  12.064  23.420  0.00  0.00    +0.000 A 
ENDBRANCH  18  21
ENDBRANCH  15  16
ENDBRANCH  14  15
ENDBRANCH   6  14
TORSDOF 7
ENDMDL
