MODEL 1
REMARK VINA RESULT:      -8.3      0.000      0.000
REMARK  Name = 
REMARK  5 active torsions:
REMARK  status: ('A' for Active; 'I' for Inactive)
REMARK    1  A    between atoms: C_1  and  O_2
REMARK    2  A    between atoms: O_2  and  C_3
REMARK    3  A    between atoms: C_6  and  C_7
REMARK    4  A    between atoms: C_7  and  N_8
REMARK    5  A    between atoms: C_9  and  C_11
REMARK                            x       y       z     vdW  Elec       q    Type
REMARK                         _______ _______ _______ _____ _____    ______ ____
ROOT
ATOM      1  N   UNL     1       7.543   7.777  17.985  0.00  0.00    +0.000 N 
ATOM      2  C   UNL     1       7.283   6.564  17.387  0.00  0.00    +0.000 C 
ATOM      3  O   UNL     1       7.619   6.283  16.239  0.00  0.00    +0.000 OA
ATOM      4  H   UNL     1       7.331   7.858  18.975  0.00  0.00    +0.000 HD
ENDROOT
BRANCH   2   5
ATOM      5  C   UNL     1       6.496   5.651  18.229  0.00  0.00    +0.000 A 
ATOM      6  N   UNL     1       6.795   5.500  19.538  0.00  0.00    +0.000 NA
ATOM      7  O   UNL     1       5.755   4.760  20.083  0.00  0.00    +0.000 OA
ATOM      8  C   UNL     1       4.881   4.461  19.103  0.00  0.00    +0.000 A 
ATOM      9  C   UNL     1       5.332   4.910  17.893  0.00  0.00    +0.000 A 
ATOM     10  C   UNL     1       4.560   4.712  16.643  0.00  0.00    +0.000 C 
ATOM     11  C   UNL     1       3.207   3.960  16.856  0.00  0.00    +0.000 C 
ATOM     12  C   UNL     1       2.754   3.651  18.281  0.00  0.00    +0.000 A 
ATOM     13  C   UNL     1       1.465   3.147  18.505  0.00  0.00    +0.000 A 
ATOM     14  C   UNL     1       1.021   2.899  19.807  0.00  0.00    +0.000 A 
ATOM     15  C   UNL     1       1.863   3.132  20.895  0.00  0.00    +0.000 A 
ATOM     16  C   UNL     1       3.157   3.606  20.687  0.00  0.00    +0.000 A 
ATOM     17  C   UNL     1       3.602   3.866  19.388  0.00  0.00    +0.000 A 
ENDBRANCH   2   5
BRANCH   1  18
ATOM     18  C   UNL     1       8.223   8.852  17.306  0.00  0.00    +0.000 C 
BRANCH  18  22
ATOM     19  C   UNL     1       9.584  12.012  19.952  0.00  0.00    +0.000 A 
ATOM     20  C   UNL     1       9.546  10.683  20.372  0.00  0.00    +0.000 A 
ATOM     21  C   UNL     1       9.093   9.677  19.516  0.00  0.00    +0.000 A 
ATOM     22  C   UNL     1       8.642   9.979  18.223  0.00  0.00    +0.000 A 
ATOM     23  C   UNL     1       8.682  11.320  17.808  0.00  0.00    +0.000 A 
ATOM     24  C   UNL     1       9.141  12.331  18.668  0.00  0.00    +0.000 A 
BRANCH  19  26
ATOM     25  C   UNL     1       9.229  13.084  22.035  0.00  0.00    +0.000 C 
ATOM     26  O   UNL     1      10.043  12.901  20.884  0.00  0.00    +0.000 OA
ENDBRANCH  19  26
ENDBRANCH  18  22
ENDBRANCH   1  18
TORSDOF 4
ENDMDL
MODEL 2
REMARK VINA RESULT:      -8.3      0.485      1.079
REMARK  Name = 
REMARK  5 active torsions:
REMARK  status: ('A' for Active; 'I' for Inactive)
REMARK    1  A    between atoms: C_1  and  O_2
REMARK    2  A    between atoms: O_2  and  C_3
REMARK    3  A    between atoms: C_6  and  C_7
REMARK    4  A    between atoms: C_7  and  N_8
REMARK    5  A    between atoms: C_9  and  C_11
REMARK                            x       y       z     vdW  Elec       q    Type
REMARK                         _______ _______ _______ _____ _____    ______ ____
ROOT
ATOM      1  N   UNL     1       7.545   7.742  18.010  0.00  0.00    +0.000 N 
ATOM      2  C   UNL     1       7.282   6.532  17.410  0.00  0.00    +0.000 C 
ATOM      3  O   UNL     1       7.617   6.252  16.262  0.00  0.00    +0.000 OA
ATOM      4  H   UNL     1       7.333   7.822  19.001  0.00  0.00    +0.000 HD
ENDROOT
BRANCH   2   5
ATOM      5  C   UNL     1       6.492   5.618  18.251  0.00  0.00    +0.000 A 
ATOM      6  N   UNL     1       6.795   5.460  19.558  0.00  0.00    +0.000 NA
ATOM      7  O   UNL     1       5.753   4.723  20.103  0.00  0.00    +0.000 OA
ATOM      8  C   UNL     1       4.874   4.434  19.124  0.00  0.00    +0.000 A 
ATOM      9  C   UNL     1       5.323   4.886  17.915  0.00  0.00    +0.000 A 
ATOM     10  C   UNL     1       4.546   4.698  16.666  0.00  0.00    +0.000 C 
ATOM     11  C   UNL     1       3.189   3.953  16.880  0.00  0.00    +0.000 C 
ATOM     12  C   UNL     1       2.740   3.640  18.305  0.00  0.00    +0.000 A 
ATOM     13  C   UNL     1       1.448   3.142  18.532  0.00  0.00    +0.000 A 
ATOM     14  C   UNL     1       1.007   2.890  19.834  0.00  0.00    +0.000 A 
ATOM     15  C   UNL     1       1.854   3.114  20.920  0.00  0.00    +0.000 A 
ATOM     16  C   UNL     1       3.150   3.581  20.710  0.00  0.00    +0.000 A 
ATOM     17  C   UNL     1       3.593   3.844  19.411  0.00  0.00    +0.000 A 
ENDBRANCH   2   5
BRANCH   1  18
ATOM     18  C   UNL     1       8.228   8.817  17.333  0.00  0.00    +0.000 C 
BRANCH  18  22
ATOM     19  C   UNL     1       9.464  12.026  19.981  0.00  0.00    +0.000 A 
ATOM     20  C   UNL     1       9.108  12.278  18.657  0.00  0.00    +0.000 A 
ATOM     21  C   UNL     1       8.726  11.235  17.811  0.00  0.00    +0.000 A 
ATOM     22  C   UNL     1       8.713   9.907  18.262  0.00  0.00    +0.000 A 
ATOM     23  C   UNL     1       9.074   9.662  19.597  0.00  0.00    +0.000 A 
ATOM     24  C   UNL     1       9.456  10.712  20.448  0.00  0.00    +0.000 A 
BRANCH  19  26
ATOM     25  C   UNL     1       9.668  14.386  20.056  0.00  0.00    +0.000 C 
ATOM     26  O   UNL     1       9.823  13.130  20.705  0.00  0.00    +0.000 OA
ENDBRANCH  19  26
ENDBRANCH  18  22
ENDBRANCH   1  18
TORSDOF 4
ENDMDL
MODEL 3
REMARK VINA RESULT:      -7.9      6.548      8.475
REMARK  Name = 
REMARK  5 active torsions:
REMARK  status: ('A' for Active; 'I' for Inactive)
REMARK    1  A    between atoms: C_1  and  O_2
REMARK    2  A    between atoms: O_2  and  C_3
REMARK    3  A    between atoms: C_6  and  C_7
REMARK    4  A    between atoms: C_7  and  N_8
REMARK    5  A    between atoms: C_9  and  C_11
REMARK                            x       y       z     vdW  Elec       q    Type
REMARK                         _______ _______ _______ _____ _____    ______ ____
ROOT
ATOM      1  N   UNL     1      -0.234   9.761  20.095  0.00  0.00    +0.000 N 
ATOM      2  C   UNL     1       1.064   9.584  19.674  0.00  0.00    +0.000 C 
ATOM      3  O   UNL     1       1.715  10.443  19.085  0.00  0.00    +0.000 OA
ATOM      4  H   UNL     1      -0.634   9.032  20.679  0.00  0.00    +0.000 HD
ENDROOT
BRANCH   2   5
ATOM      5  C   UNL     1       1.585   8.232  19.931  0.00  0.00    +0.000 A 
ATOM      6  N   UNL     1       1.179   7.539  21.018  0.00  0.00    +0.000 NA
ATOM      7  O   UNL     1       1.672   6.252  20.854  0.00  0.00    +0.000 OA
ATOM      8  C   UNL     1       2.377   6.205  19.706  0.00  0.00    +0.000 A 
ATOM      9  C   UNL     1       2.442   7.439  19.122  0.00  0.00    +0.000 A 
ATOM     10  C   UNL     1       3.160   7.669  17.846  0.00  0.00    +0.000 C 
ATOM     11  C   UNL     1       3.811   6.378  17.254  0.00  0.00    +0.000 C 
ATOM     12  C   UNL     1       3.531   5.038  17.929  0.00  0.00    +0.000 A 
ATOM     13  C   UNL     1       3.948   3.849  17.311  0.00  0.00    +0.000 A 
ATOM     14  C   UNL     1       3.662   2.612  17.896  0.00  0.00    +0.000 A 
ATOM     15  C   UNL     1       2.975   2.548  19.108  0.00  0.00    +0.000 A 
ATOM     16  C   UNL     1       2.578   3.721  19.749  0.00  0.00    +0.000 A 
ATOM     17  C   UNL     1       2.852   4.960  19.164  0.00  0.00    +0.000 A 
ENDBRANCH   2   5
BRANCH   1  18
ATOM     18  C   UNL     1      -0.970  10.980  19.863  0.00  0.00    +0.000 C 
BRANCH  18  22
ATOM     19  C   UNL     1      -3.495  10.678  16.346  0.00  0.00    +0.000 A 
ATOM     20  C   UNL     1      -2.274  10.008  16.420  0.00  0.00    +0.000 A 
ATOM     21  C   UNL     1      -1.465  10.124  17.551  0.00  0.00    +0.000 A 
ATOM     22  C   UNL     1      -1.845  10.935  18.630  0.00  0.00    +0.000 A 
ATOM     23  C   UNL     1      -3.074  11.607  18.548  0.00  0.00    +0.000 A 
ATOM     24  C   UNL     1      -3.890  11.488  17.410  0.00  0.00    +0.000 A 
BRANCH  19  26
ATOM     25  C   UNL     1      -3.432  10.076  14.055  0.00  0.00    +0.000 C 
ATOM     26  O   UNL     1      -4.192  10.486  15.185  0.00  0.00    +0.000 OA
ENDBRANCH  19  26
ENDBRANCH  18  22
ENDBRANCH   1  18
TORSDOF 4
ENDMDL
MODEL 4
REMARK VINA RESULT:      -7.9      4.846      7.185
REMARK  Name = 
REMARK  5 active torsions:
REMARK  status: ('A' for Active; 'I' for Inactive)
REMARK    1  A    between atoms: C_1  and  O_2
REMARK    2  A    between atoms: O_2  and  C_3
REMARK    3  A    between atoms: C_6  and  C_7
REMARK    4  A    between atoms: C_7  and  N_8
REMARK    5  A    between atoms: C_9  and  C_11
REMARK                            x       y       z     vdW  Elec       q    Type
REMARK                         _______ _______ _______ _____ _____    ______ ____
ROOT
ATOM      1  N   UNL     1       3.392   4.584  18.244  0.00  0.00    +0.000 N 
ATOM      2  C   UNL     1       3.749   5.430  19.269  0.00  0.00    +0.000 C 
ATOM      3  O   UNL     1       4.851   5.421  19.810  0.00  0.00    +0.000 OA
ATOM      4  H   UNL     1       2.501   4.760  17.788  0.00  0.00    +0.000 HD
ENDROOT
BRANCH   2   5
ATOM      5  C   UNL     1       2.655   6.309  19.713  0.00  0.00    +0.000 A 
ATOM      6  N   UNL     1       1.978   6.037  20.850  0.00  0.00    +0.000 NA
ATOM      7  O   UNL     1       1.183   7.147  21.095  0.00  0.00    +0.000 OA
ATOM      8  C   UNL     1       1.372   8.037  20.101  0.00  0.00    +0.000 A 
ATOM      9  C   UNL     1       2.214   7.536  19.149  0.00  0.00    +0.000 A 
ATOM     10  C   UNL     1       2.592   8.312  17.944  0.00  0.00    +0.000 C 
ATOM     11  C   UNL     1       1.944   9.732  17.887  0.00  0.00    +0.000 C 
ATOM     12  C   UNL     1       1.146  10.225  19.092  0.00  0.00    +0.000 A 
ATOM     13  C   UNL     1       0.715  11.559  19.140  0.00  0.00    +0.000 A 
ATOM     14  C   UNL     1       0.020  12.036  20.255  0.00  0.00    +0.000 A 
ATOM     15  C   UNL     1      -0.268  11.185  21.323  0.00  0.00    +0.000 A 
ATOM     16  C   UNL     1       0.128   9.849  21.278  0.00  0.00    +0.000 A 
ATOM     17  C   UNL     1       0.832   9.370  20.170  0.00  0.00    +0.000 A 
ENDBRANCH   2   5
BRANCH   1  18
ATOM     18  C   UNL     1       4.281   3.579  17.716  0.00  0.00    +0.000 C 
BRANCH  18  22
ATOM     19  C   UNL     1       7.109   4.953  14.723  0.00  0.00    +0.000 A 
ATOM     20  C   UNL     1       7.437   4.943  16.079  0.00  0.00    +0.000 A 
ATOM     21  C   UNL     1       6.514   4.512  17.033  0.00  0.00    +0.000 A 
ATOM     22  C   UNL     1       5.227   4.102  16.657  0.00  0.00    +0.000 A 
ATOM     23  C   UNL     1       4.903   4.115  15.291  0.00  0.00    +0.000 A 
ATOM     24  C   UNL     1       5.833   4.546  14.331  0.00  0.00    +0.000 A 
BRANCH  19  26
ATOM     25  C   UNL     1       7.839   5.297  12.496  0.00  0.00    +0.000 C 
ATOM     26  O   UNL     1       8.097   5.401  13.891  0.00  0.00    +0.000 OA
ENDBRANCH  19  26
ENDBRANCH  18  22
ENDBRANCH   1  18
TORSDOF 4
ENDMDL
MODEL 5
REMARK VINA RESULT:      -7.9      5.392      7.842
REMARK  Name = 
REMARK  5 active torsions:
REMARK  status: ('A' for Active; 'I' for Inactive)
REMARK    1  A    between atoms: C_1  and  O_2
REMARK    2  A    between atoms: O_2  and  C_3
REMARK    3  A    between atoms: C_6  and  C_7
REMARK    4  A    between atoms: C_7  and  N_8
REMARK    5  A    between atoms: C_9  and  C_11
REMARK                            x       y       z     vdW  Elec       q    Type
REMARK                         _______ _______ _______ _____ _____    ______ ____
ROOT
ATOM      1  N   UNL     1       4.178   6.121  18.546  0.00  0.00    +0.000 N 
ATOM      2  C   UNL     1       2.827   6.280  18.333  0.00  0.00    +0.000 C 
ATOM      3  O   UNL     1       2.077   5.367  17.997  0.00  0.00    +0.000 OA
ATOM      4  H   UNL     1       4.680   6.912  18.939  0.00  0.00    +0.000 HD
ENDROOT
BRANCH   2   5
ATOM      5  C   UNL     1       2.371   7.671  18.475  0.00  0.00    +0.000 A 
ATOM      6  N   UNL     1       2.393   8.509  17.415  0.00  0.00    +0.000 NA
ATOM      7  O   UNL     1       1.709   9.648  17.817  0.00  0.00    +0.000 OA
ATOM      8  C   UNL     1       1.322   9.487  19.097  0.00  0.00    +0.000 A 
ATOM      9  C   UNL     1       1.785   8.305  19.603  0.00  0.00    +0.000 A 
ATOM     10  C   UNL     1       1.503   7.879  20.995  0.00  0.00    +0.000 C 
ATOM     11  C   UNL     1       0.633   8.900  21.796  0.00  0.00    +0.000 C 
ATOM     12  C   UNL     1       0.053  10.107  21.063  0.00  0.00    +0.000 A 
ATOM     13  C   UNL     1      -0.878  10.931  21.711  0.00  0.00    +0.000 A 
ATOM     14  C   UNL     1      -1.449  12.016  21.039  0.00  0.00    +0.000 A 
ATOM     15  C   UNL     1      -1.084  12.299  19.722  0.00  0.00    +0.000 A 
ATOM     16  C   UNL     1      -0.139  11.507  19.073  0.00  0.00    +0.000 A 
ATOM     17  C   UNL     1       0.427  10.415  19.737  0.00  0.00    +0.000 A 
ENDBRANCH   2   5
BRANCH   1  18
ATOM     18  C   UNL     1       4.853   4.858  18.372  0.00  0.00    +0.000 C 
BRANCH  18  22
ATOM     19  C   UNL     1       6.648   4.540  14.433  0.00  0.00    +0.000 A 
ATOM     20  C   UNL     1       5.314   4.194  14.650  0.00  0.00    +0.000 A 
ATOM     21  C   UNL     1       4.753   4.287  15.925  0.00  0.00    +0.000 A 
ATOM     22  C   UNL     1       5.518   4.707  17.022  0.00  0.00    +0.000 A 
ATOM     23  C   UNL     1       6.860   5.052  16.795  0.00  0.00    +0.000 A 
ATOM     24  C   UNL     1       7.425   4.961  15.512  0.00  0.00    +0.000 A 
BRANCH  19  26
ATOM     25  C   UNL     1       6.353   3.487  12.331  0.00  0.00    +0.000 C 
ATOM     26  O   UNL     1       7.080   4.401  13.143  0.00  0.00    +0.000 OA
ENDBRANCH  19  26
ENDBRANCH  18  22
ENDBRANCH   1  18
TORSDOF 4
ENDMDL
MODEL 6
REMARK VINA RESULT:      -7.8      6.570      8.149
REMARK  Name = 
REMARK  5 active torsions:
REMARK  status: ('A' for Active; 'I' for Inactive)
REMARK    1  A    between atoms: C_1  and  O_2
REMARK    2  A    between atoms: O_2  and  C_3
REMARK    3  A    between atoms: C_6  and  C_7
REMARK    4  A    between atoms: C_7  and  N_8
REMARK    5  A    between atoms: C_9  and  C_11
REMARK                            x       y       z     vdW  Elec       q    Type
REMARK                         _______ _______ _______ _____ _____    ______ ____
ROOT
ATOM      1  N   UNL     1       0.900   9.990  19.345  0.00  0.00    +0.000 N 
ATOM      2  C   UNL     1       1.762   9.241  18.576  0.00  0.00    +0.000 C 
ATOM      3  O   UNL     1       2.186   9.600  17.480  0.00  0.00    +0.000 OA
ATOM      4  H   UNL     1       0.712   9.655  20.286  0.00  0.00    +0.000 HD
ENDROOT
BRANCH   2   5
ATOM      5  C   UNL     1       2.079   7.928  19.158  0.00  0.00    +0.000 A 
ATOM      6  N   UNL     1       1.535   7.555  20.338  0.00  0.00    +0.000 NA
ATOM      7  O   UNL     1       1.851   6.212  20.494  0.00  0.00    +0.000 OA
ATOM      8  C   UNL     1       2.589   5.819  19.437  0.00  0.00    +0.000 A 
ATOM      9  C   UNL     1       2.850   6.871  18.605  0.00  0.00    +0.000 A 
ATOM     10  C   UNL     1       3.645   6.714  17.363  0.00  0.00    +0.000 C 
ATOM     11  C   UNL     1       4.133   5.251  17.115  0.00  0.00    +0.000 C 
ATOM     12  C   UNL     1       3.641   4.144  18.044  0.00  0.00    +0.000 A 
ATOM     13  C   UNL     1       3.914   2.805  17.732  0.00  0.00    +0.000 A 
ATOM     14  C   UNL     1       3.435   1.777  18.550  0.00  0.00    +0.000 A 
ATOM     15  C   UNL     1       2.696   2.076  19.695  0.00  0.00    +0.000 A 
ATOM     16  C   UNL     1       2.440   3.403  20.034  0.00  0.00    +0.000 A 
ATOM     17  C   UNL     1       2.908   4.433  19.215  0.00  0.00    +0.000 A 
ENDBRANCH   2   5
BRANCH   1  18
ATOM     18  C   UNL     1       0.389  11.271  18.923  0.00  0.00    +0.000 C 
BRANCH  18  22
ATOM     19  C   UNL     1      -3.853  11.059  18.028  0.00  0.00    +0.000 A 
ATOM     20  C   UNL     1      -2.934  10.235  17.378  0.00  0.00    +0.000 A 
ATOM     21  C   UNL     1      -1.571  10.323  17.665  0.00  0.00    +0.000 A 
ATOM     22  C   UNL     1      -1.087  11.256  18.593  0.00  0.00    +0.000 A 
ATOM     23  C   UNL     1      -2.018  12.082  19.242  0.00  0.00    +0.000 A 
ATOM     24  C   UNL     1      -3.390  11.992  18.956  0.00  0.00    +0.000 A 
BRANCH  19  26
ATOM     25  C   UNL     1      -5.913  12.061  17.424  0.00  0.00    +0.000 C 
ATOM     26  O   UNL     1      -5.157  10.879  17.656  0.00  0.00    +0.000 OA
ENDBRANCH  19  26
ENDBRANCH  18  22
ENDBRANCH   1  18
TORSDOF 4
ENDMDL
MODEL 7
REMARK VINA RESULT:      -7.8      5.619      7.742
REMARK  Name = 
REMARK  5 active torsions:
REMARK  status: ('A' for Active; 'I' for Inactive)
REMARK    1  A    between atoms: C_1  and  O_2
REMARK    2  A    between atoms: O_2  and  C_3
REMARK    3  A    between atoms: C_6  and  C_7
REMARK    4  A    between atoms: C_7  and  N_8
REMARK    5  A    between atoms: C_9  and  C_11
REMARK                            x       y       z     vdW  Elec       q    Type
REMARK                         _______ _______ _______ _____ _____    ______ ____
ROOT
ATOM      1  N   UNL     1       3.475   6.392  19.666  0.00  0.00    +0.000 N 
ATOM      2  C   UNL     1       2.424   6.726  18.841  0.00  0.00    +0.000 C 
ATOM      3  O   UNL     1       1.977   5.983  17.971  0.00  0.00    +0.000 OA
ATOM      4  H   UNL     1       3.682   7.029  20.430  0.00  0.00    +0.000 HD
ENDROOT
BRANCH   2   5
ATOM      5  C   UNL     1       1.927   8.095  19.049  0.00  0.00    +0.000 A 
ATOM      6  N   UNL     1       1.818   8.948  18.007  0.00  0.00    +0.000 NA
ATOM      7  O   UNL     1       1.128  10.051  18.489  0.00  0.00    +0.000 OA
ATOM      8  C   UNL     1       0.867   9.856  19.796  0.00  0.00    +0.000 A 
ATOM      9  C   UNL     1       1.422   8.688  20.237  0.00  0.00    +0.000 A 
ATOM     10  C   UNL     1       1.285   8.231  21.641  0.00  0.00    +0.000 C 
ATOM     11  C   UNL     1       0.451   9.203  22.535  0.00  0.00    +0.000 C 
ATOM     12  C   UNL     1      -0.241  10.394  21.879  0.00  0.00    +0.000 A 
ATOM     13  C   UNL     1      -1.142  11.170  22.624  0.00  0.00    +0.000 A 
ATOM     14  C   UNL     1      -1.816  12.239  22.026  0.00  0.00    +0.000 A 
ATOM     15  C   UNL     1      -1.584  12.556  20.687  0.00  0.00    +0.000 A 
ATOM     16  C   UNL     1      -0.671  11.813  19.940  0.00  0.00    +0.000 A 
ATOM     17  C   UNL     1      -0.003  10.737  20.531  0.00  0.00    +0.000 A 
ENDBRANCH   2   5
BRANCH   1  18
ATOM     18  C   UNL     1       4.172   5.133  19.572  0.00  0.00    +0.000 C 
BRANCH  18  22
ATOM     19  C   UNL     1       6.874   5.007  16.178  0.00  0.00    +0.000 A 
ATOM     20  C   UNL     1       5.724   4.220  16.216  0.00  0.00    +0.000 A 
ATOM     21  C   UNL     1       4.870   4.260  17.320  0.00  0.00    +0.000 A 
ATOM     22  C   UNL     1       5.158   5.070  18.427  0.00  0.00    +0.000 A 
ATOM     23  C   UNL     1       6.319   5.859  18.381  0.00  0.00    +0.000 A 
ATOM     24  C   UNL     1       7.176   5.822  17.270  0.00  0.00    +0.000 A 
BRANCH  19  26
ATOM     25  C   UNL     1       6.924   4.548  13.854  0.00  0.00    +0.000 C 
ATOM     26  O   UNL     1       7.629   4.876  15.045  0.00  0.00    +0.000 OA
ENDBRANCH  19  26
ENDBRANCH  18  22
ENDBRANCH   1  18
TORSDOF 4
ENDMDL
MODEL 8
REMARK VINA RESULT:      -7.7      6.391      8.629
REMARK  Name = 
REMARK  5 active torsions:
REMARK  status: ('A' for Active; 'I' for Inactive)
REMARK    1  A    between atoms: C_1  and  O_2
REMARK    2  A    between atoms: O_2  and  C_3
REMARK    3  A    between atoms: C_6  and  C_7
REMARK    4  A    between atoms: C_7  and  N_8
REMARK    5  A    between atoms: C_9  and  C_11
REMARK                            x       y       z     vdW  Elec       q    Type
REMARK                         _______ _______ _______ _____ _____    ______ ____
ROOT
ATOM      1  N   UNL     1       2.713   6.953  19.279  0.00  0.00    +0.000 N 
ATOM      2  C   UNL     1       1.792   7.254  20.257  0.00  0.00    +0.000 C 
ATOM      3  O   UNL     1       1.381   6.441  21.081  0.00  0.00    +0.000 OA
ATOM      4  H   UNL     1       3.075   7.728  18.731  0.00  0.00    +0.000 HD
ENDROOT
BRANCH   2   5
ATOM      5  C   UNL     1       1.283   8.632  20.180  0.00  0.00    +0.000 A 
ATOM      6  N   UNL     1       1.329   9.313  19.013  0.00  0.00    +0.000 NA
ATOM      7  O   UNL     1       0.591  10.470  19.219  0.00  0.00    +0.000 OA
ATOM      8  C   UNL     1       0.148  10.476  20.492  0.00  0.00    +0.000 A 
ATOM      9  C   UNL     1       0.625   9.396  21.180  0.00  0.00    +0.000 A 
ATOM     10  C   UNL     1       0.290   9.159  22.605  0.00  0.00    +0.000 C 
ATOM     11  C   UNL     1      -0.651  10.248  23.214  0.00  0.00    +0.000 C 
ATOM     12  C   UNL     1      -1.233  11.316  22.292  0.00  0.00    +0.000 A 
ATOM     13  C   UNL     1      -2.220  12.186  22.776  0.00  0.00    +0.000 A 
ATOM     14  C   UNL     1      -2.794  13.142  21.933  0.00  0.00    +0.000 A 
ATOM     15  C   UNL     1      -2.375  13.252  20.606  0.00  0.00    +0.000 A 
ATOM     16  C   UNL     1      -1.375  12.413  20.117  0.00  0.00    +0.000 A 
ATOM     17  C   UNL     1      -0.806  11.449  20.954  0.00  0.00    +0.000 A 
ENDBRANCH   2   5
BRANCH   1  18
ATOM     18  C   UNL     1       3.274   5.635  19.114  0.00  0.00    +0.000 C 
BRANCH  18  22
ATOM     19  C   UNL     1       5.679   5.254  15.521  0.00  0.00    +0.000 A 
ATOM     20  C   UNL     1       5.260   6.501  15.983  0.00  0.00    +0.000 A 
ATOM     21  C   UNL     1       4.475   6.609  17.132  0.00  0.00    +0.000 A 
ATOM     22  C   UNL     1       4.067   5.468  17.837  0.00  0.00    +0.000 A 
ATOM     23  C   UNL     1       4.492   4.216  17.366  0.00  0.00    +0.000 A 
ATOM     24  C   UNL     1       5.284   4.107  16.211  0.00  0.00    +0.000 A 
BRANCH  19  26
ATOM     25  C   UNL     1       6.453   4.090  13.608  0.00  0.00    +0.000 C 
ATOM     26  O   UNL     1       6.439   5.281  14.385  0.00  0.00    +0.000 OA
ENDBRANCH  19  26
ENDBRANCH  18  22
ENDBRANCH   1  18
TORSDOF 4
ENDMDL
MODEL 9
REMARK VINA RESULT:      -7.7      7.504      9.419
REMARK  Name = 
REMARK  5 active torsions:
REMARK  status: ('A' for Active; 'I' for Inactive)
REMARK    1  A    between atoms: C_1  and  O_2
REMARK    2  A    between atoms: O_2  and  C_3
REMARK    3  A    between atoms: C_6  and  C_7
REMARK    4  A    between atoms: C_7  and  N_8
REMARK    5  A    between atoms: C_9  and  C_11
REMARK                            x       y       z     vdW  Elec       q    Type
REMARK                         _______ _______ _______ _____ _____    ______ ____
ROOT
ATOM      1  N   UNL     1       1.457   8.779  18.224  0.00  0.00    +0.000 N 
ATOM      2  C   UNL     1       1.299  10.141  18.350  0.00  0.00    +0.000 C 
ATOM      3  O   UNL     1       2.183  10.957  18.105  0.00  0.00    +0.000 OA
ATOM      4  H   UNL     1       0.625   8.205  18.334  0.00  0.00    +0.000 HD
ENDROOT
BRANCH   2   5
ATOM      5  C   UNL     1      -0.017  10.532  18.880  0.00  0.00    +0.000 A 
ATOM      6  N   UNL     1      -0.115  11.152  20.077  0.00  0.00    +0.000 NA
ATOM      7  O   UNL     1      -1.433  11.573  20.181  0.00  0.00    +0.000 OA
ATOM      8  C   UNL     1      -2.097  11.179  19.077  0.00  0.00    +0.000 A 
ATOM      9  C   UNL     1      -1.291  10.439  18.259  0.00  0.00    +0.000 A 
ATOM     10  C   UNL     1      -1.773   9.880  16.973  0.00  0.00    +0.000 C 
ATOM     11  C   UNL     1      -3.264  10.229  16.661  0.00  0.00    +0.000 C 
ATOM     12  C   UNL     1      -4.003  11.193  17.585  0.00  0.00    +0.000 A 
ATOM     13  C   UNL     1      -5.273  11.663  17.224  0.00  0.00    +0.000 A 
ATOM     14  C   UNL     1      -5.945  12.579  18.039  0.00  0.00    +0.000 A 
ATOM     15  C   UNL     1      -5.366  13.019  19.230  0.00  0.00    +0.000 A 
ATOM     16  C   UNL     1      -4.116  12.539  19.617  0.00  0.00    +0.000 A 
ATOM     17  C   UNL     1      -3.436  11.631  18.801  0.00  0.00    +0.000 A 
ENDBRANCH   2   5
BRANCH   1  18
ATOM     18  C   UNL     1       2.697   8.173  17.808  0.00  0.00    +0.000 C 
BRANCH  18  22
ATOM     19  C   UNL     1       3.205   4.218  19.521  0.00  0.00    +0.000 A 
ATOM     20  C   UNL     1       2.441   5.191  20.163  0.00  0.00    +0.000 A 
ATOM     21  C   UNL     1       2.297   6.464  19.608  0.00  0.00    +0.000 A 
ATOM     22  C   UNL     1       2.935   6.805  18.407  0.00  0.00    +0.000 A 
ATOM     23  C   UNL     1       3.704   5.819  17.768  0.00  0.00    +0.000 A 
ATOM     24  C   UNL     1       3.846   4.538  18.324  0.00  0.00    +0.000 A 
BRANCH  19  26
ATOM     25  C   UNL     1       2.538   2.910  21.381  0.00  0.00    +0.000 C 
ATOM     26  O   UNL     1       3.272   3.014  20.167  0.00  0.00    +0.000 OA
ENDBRANCH  19  26
ENDBRANCH  18  22
ENDBRANCH   1  18
TORSDOF 4
ENDMDL
