MODEL 1
REMARK VINA RESULT:      -8.5      0.000      0.000
REMARK  Name = 
REMARK  9 active torsions:
REMARK  status: ('A' for Active; 'I' for Inactive)
REMARK    1  A    between atoms: C_2  and  C_3
REMARK    2  A    between atoms: C_3  and  N_4
REMARK    3  A    between atoms: C_12  and  O_13
REMARK    4  A    between atoms: C_17  and  N_18
REMARK    5  A    between atoms: C_19  and  C_21
REMARK    6  A    between atoms: C_22  and  C_23
REMARK    7  A    between atoms: C_23  and  O_25
REMARK    8  A    between atoms: O_25  and  C_26
REMARK    9  A    between atoms: C_29  and  O_30
REMARK                            x       y       z     vdW  Elec       q    Type
REMARK                         _______ _______ _______ _____ _____    ______ ____
ROOT
ATOM      1  N   UNL     1       6.709   5.284  17.676  0.00  0.00    +0.000 NA
ATOM      2  C   UNL     1       6.534   4.068  16.912  0.00  0.00    +0.000 C 
ATOM      3  C   UNL     1       4.970   3.559  16.869  0.00  0.00    +0.000 C 
ATOM      4  C   UNL     1       3.616   4.713  17.061  0.00  0.00    +0.000 C 
ATOM      5  C   UNL     1       3.189   3.767  18.162  0.00  0.00    +0.000 A 
ATOM      6  C   UNL     1       3.804   3.662  19.393  0.00  0.00    +0.000 A 
ATOM      7  C   UNL     1       3.108   2.889  20.356  0.00  0.00    +0.000 A 
ATOM      8  C   UNL     1       1.904   2.188  20.020  0.00  0.00    +0.000 A 
ATOM      9  C   UNL     1       1.317   2.402  18.792  0.00  0.00    +0.000 A 
ATOM     10  C   UNL     1       1.856   3.425  18.052  0.00  0.00    +0.000 A 
ATOM     11  O   UNL     1       1.268   4.708  18.309  0.00  0.00    +0.000 OA
ATOM     12  C   UNL     1       2.349   5.574  17.897  0.00  0.00    +0.000 C 
ATOM     13  C   UNL     1       2.904   6.703  18.987  0.00  0.00    +0.000 C 
ATOM     14  C   UNL     1       3.533   7.876  18.220  0.00  0.00    +0.000 C 
ATOM     15  C   UNL     1       3.954   7.338  16.890  0.00  0.00    +0.000 C 
ATOM     16  C   UNL     1       4.534   5.913  17.034  0.00  0.00    +0.000 C 
ATOM     17  C   UNL     1       5.491   5.646  18.320  0.00  0.00    +0.000 C 
ATOM     18  C   UNL     1       5.077   4.501  19.538  0.00  0.00    +0.000 C 
ENDROOT
BRANCH  13  19
ATOM     19  N   UNL     1       2.263   7.152  20.194  0.00  0.00    +0.000 N 
ATOM     20  C   UNL     1       1.520   8.279  20.170  0.00  0.00    +0.000 C 
ATOM     21  O   UNL     1       1.188   8.858  19.163  0.00  0.00    +0.000 OA
ATOM     22  H   UNL     1       2.733   6.934  21.076  0.00  0.00    +0.000 HD
BRANCH  20  23
ATOM     23  C   UNL     1       1.132   8.744  21.521  0.00  0.00    +0.000 C 
ATOM     24  C   UNL     1       0.206   9.705  21.432  0.00  0.00    +0.000 C 
BRANCH  24  25
ATOM     25  C   UNL     1      -0.413  10.418  22.553  0.00  0.00    +0.000 C 
ATOM     26  O   UNL     1      -0.238  10.211  23.734  0.00  0.00    +0.000 OA
BRANCH  25  27
ATOM     27  O   UNL     1      -1.182  11.353  21.954  0.00  0.00    +0.000 OA
ATOM     28  C   UNL     1      -1.041  11.467  20.558  0.00  0.00    +0.000 C 
ENDBRANCH  25  27
ENDBRANCH  24  25
ENDBRANCH  20  23
ENDBRANCH  13  19
BRANCH   9  29
ATOM     29  O   UNL     1       0.277   1.694  18.282  0.00  0.00    +0.000 OA
ATOM     30  H   UNL     1      -0.237   2.269  17.691  0.00  0.00    +0.000 HD
ENDBRANCH   9  29
BRANCH  16  31
ATOM     31  O   UNL     1       5.139   5.847  15.693  0.00  0.00    +0.000 OA
ATOM     32  H   UNL     1       6.088   5.643  15.797  0.00  0.00    +0.000 HD
ENDBRANCH  16  31
BRANCH   1  33
ATOM     33  C   UNL     1       7.901   5.781  18.297  0.00  0.00    +0.000 C 
BRANCH  33  35
ATOM     34  C   UNL     1       7.749   8.093  17.420  0.00  0.00    +0.000 C 
ATOM     35  C   UNL     1       7.947   7.261  18.448  0.00  0.00    +0.000 C 
ENDBRANCH  33  35
ENDBRANCH   1  33
TORSDOF 8
ENDMDL
MODEL 2
REMARK VINA RESULT:      -7.6      0.908      1.141
REMARK  Name = 
REMARK  9 active torsions:
REMARK  status: ('A' for Active; 'I' for Inactive)
REMARK    1  A    between atoms: C_2  and  C_3
REMARK    2  A    between atoms: C_3  and  N_4
REMARK    3  A    between atoms: C_12  and  O_13
REMARK    4  A    between atoms: C_17  and  N_18
REMARK    5  A    between atoms: C_19  and  C_21
REMARK    6  A    between atoms: C_22  and  C_23
REMARK    7  A    between atoms: C_23  and  O_25
REMARK    8  A    between atoms: O_25  and  C_26
REMARK    9  A    between atoms: C_29  and  O_30
REMARK                            x       y       z     vdW  Elec       q    Type
REMARK                         _______ _______ _______ _____ _____    ______ ____
ROOT
ATOM      1  N   UNL     1       6.997   6.000  17.490  0.00  0.00    +0.000 NA
ATOM      2  C   UNL     1       7.056   4.672  16.921  0.00  0.00    +0.000 C 
ATOM      3  C   UNL     1       5.597   3.910  16.921  0.00  0.00    +0.000 C 
ATOM      4  C   UNL     1       4.068   4.841  16.900  0.00  0.00    +0.000 C 
ATOM      5  C   UNL     1       3.745   4.012  18.125  0.00  0.00    +0.000 A 
ATOM      6  C   UNL     1       4.309   4.197  19.371  0.00  0.00    +0.000 A 
ATOM      7  C   UNL     1       3.701   3.471  20.426  0.00  0.00    +0.000 A 
ATOM      8  C   UNL     1       2.641   2.539  20.176  0.00  0.00    +0.000 A 
ATOM      9  C   UNL     1       2.087   2.467  18.916  0.00  0.00    +0.000 A 
ATOM     10  C   UNL     1       2.491   3.442  18.039  0.00  0.00    +0.000 A 
ATOM     11  O   UNL     1       1.694   4.634  18.080  0.00  0.00    +0.000 OA
ATOM     12  C   UNL     1       2.642   5.596  17.563  0.00  0.00    +0.000 C 
ATOM     13  C   UNL     1       2.956   6.951  18.476  0.00  0.00    +0.000 C 
ATOM     14  C   UNL     1       3.425   8.084  17.551  0.00  0.00    +0.000 C 
ATOM     15  C   UNL     1       3.990   7.430  16.330  0.00  0.00    +0.000 C 
ATOM     16  C   UNL     1       4.783   6.158  16.708  0.00  0.00    +0.000 C 
ATOM     17  C   UNL     1       5.707   6.248  18.041  0.00  0.00    +0.000 C 
ATOM     18  C   UNL     1       5.423   5.246  19.413  0.00  0.00    +0.000 C 
ENDROOT
BRANCH  13  19
ATOM     19  N   UNL     1       2.194   7.463  19.583  0.00  0.00    +0.000 N 
ATOM     20  C   UNL     1       1.411   8.549  19.403  0.00  0.00    +0.000 C 
ATOM     21  O   UNL     1       1.145   9.029  18.328  0.00  0.00    +0.000 OA
ATOM     22  H   UNL     1       2.593   7.338  20.517  0.00  0.00    +0.000 HD
BRANCH  20  23
ATOM     23  C   UNL     1       0.888   9.100  20.674  0.00  0.00    +0.000 C 
ATOM     24  C   UNL     1       0.831  10.435  20.611  0.00  0.00    +0.000 C 
BRANCH  24  25
ATOM     25  C   UNL     1       0.379  11.335  21.676  0.00  0.00    +0.000 C 
ATOM     26  O   UNL     1       0.413  12.546  21.669  0.00  0.00    +0.000 OA
BRANCH  25  27
ATOM     27  O   UNL     1      -0.097  10.499  22.624  0.00  0.00    +0.000 OA
ATOM     28  C   UNL     1      -1.317  10.871  23.220  0.00  0.00    +0.000 C 
ENDBRANCH  25  27
ENDBRANCH  24  25
ENDBRANCH  20  23
ENDBRANCH  13  19
BRANCH   9  29
ATOM     29  O   UNL     1       1.199   1.528  18.499  0.00  0.00    +0.000 OA
ATOM     30  H   UNL     1       1.670   0.689  18.358  0.00  0.00    +0.000 HD
ENDBRANCH   9  29
BRANCH  16  31
ATOM     31  O   UNL     1       5.455   5.993  15.408  0.00  0.00    +0.000 OA
ATOM     32  H   UNL     1       4.992   6.550  14.754  0.00  0.00    +0.000 HD
ENDBRANCH  16  31
BRANCH   1  33
ATOM     33  C   UNL     1       8.063   6.775  18.053  0.00  0.00    +0.000 C 
BRANCH  33  35
ATOM     34  C   UNL     1       8.692   9.129  18.496  0.00  0.00    +0.000 C 
ATOM     35  C   UNL     1       7.942   8.241  17.835  0.00  0.00    +0.000 C 
ENDBRANCH  33  35
ENDBRANCH   1  33
TORSDOF 8
ENDMDL
MODEL 3
REMARK VINA RESULT:      -7.0      0.856      1.003
REMARK  Name = 
REMARK  9 active torsions:
REMARK  status: ('A' for Active; 'I' for Inactive)
REMARK    1  A    between atoms: C_2  and  C_3
REMARK    2  A    between atoms: C_3  and  N_4
REMARK    3  A    between atoms: C_12  and  O_13
REMARK    4  A    between atoms: C_17  and  N_18
REMARK    5  A    between atoms: C_19  and  C_21
REMARK    6  A    between atoms: C_22  and  C_23
REMARK    7  A    between atoms: C_23  and  O_25
REMARK    8  A    between atoms: O_25  and  C_26
REMARK    9  A    between atoms: C_29  and  O_30
REMARK                            x       y       z     vdW  Elec       q    Type
REMARK                         _______ _______ _______ _____ _____    ______ ____
ROOT
ATOM      1  N   UNL     1       6.642   5.577  17.770  0.00  0.00    +0.000 NA
ATOM      2  C   UNL     1       6.550   4.255  17.190  0.00  0.00    +0.000 C 
ATOM      3  C   UNL     1       5.006   3.691  17.123  0.00  0.00    +0.000 C 
ATOM      4  C   UNL     1       3.614   4.814  17.051  0.00  0.00    +0.000 C 
ATOM      5  C   UNL     1       3.136   4.028  18.252  0.00  0.00    +0.000 A 
ATOM      6  C   UNL     1       3.667   4.130  19.522  0.00  0.00    +0.000 A 
ATOM      7  C   UNL     1       2.925   3.485  20.543  0.00  0.00    +0.000 A 
ATOM      8  C   UNL     1       1.764   2.700  20.241  0.00  0.00    +0.000 A 
ATOM      9  C   UNL     1       1.259   2.708  18.959  0.00  0.00    +0.000 A 
ATOM     10  C   UNL     1       1.822   3.627  18.109  0.00  0.00    +0.000 A 
ATOM     11  O   UNL     1       1.187   4.913  18.131  0.00  0.00    +0.000 OA
ATOM     12  C   UNL     1       2.272   5.745  17.663  0.00  0.00    +0.000 C 
ATOM     13  C   UNL     1       2.722   7.043  18.603  0.00  0.00    +0.000 C 
ATOM     14  C   UNL     1       3.373   8.109  17.709  0.00  0.00    +0.000 C 
ATOM     15  C   UNL     1       3.898   7.393  16.505  0.00  0.00    +0.000 C 
ATOM     16  C   UNL     1       4.502   6.027  16.901  0.00  0.00    +0.000 C 
ATOM     17  C   UNL     1       5.374   5.988  18.272  0.00  0.00    +0.000 C 
ATOM     18  C   UNL     1       4.905   5.025  19.620  0.00  0.00    +0.000 C 
ENDROOT
BRANCH  13  19
ATOM     19  N   UNL     1       1.988   7.644  19.683  0.00  0.00    +0.000 N 
ATOM     20  C   UNL     1       1.280   8.772  19.458  0.00  0.00    +0.000 C 
ATOM     21  O   UNL     1       1.055   9.230  18.363  0.00  0.00    +0.000 OA
ATOM     22  H   UNL     1       2.371   7.526  20.624  0.00  0.00    +0.000 HD
BRANCH  20  23
ATOM     23  C   UNL     1       0.786   9.403  20.703  0.00  0.00    +0.000 C 
ATOM     24  C   UNL     1       0.237  10.592  20.433  0.00  0.00    +0.000 C 
BRANCH  24  25
ATOM     25  C   UNL     1      -0.349  11.517  21.407  0.00  0.00    +0.000 C 
ATOM     26  O   UNL     1      -1.508  11.570  21.755  0.00  0.00    +0.000 OA
BRANCH  25  27
ATOM     27  O   UNL     1       0.703  12.253  21.826  0.00  0.00    +0.000 OA
ATOM     28  C   UNL     1       0.824  13.536  21.259  0.00  0.00    +0.000 C 
ENDBRANCH  25  27
ENDBRANCH  24  25
ENDBRANCH  20  23
ENDBRANCH  13  19
BRANCH   9  29
ATOM     29  O   UNL     1       0.274   1.895  18.496  0.00  0.00    +0.000 OA
ATOM     30  H   UNL     1      -0.080   2.267  17.671  0.00  0.00    +0.000 HD
ENDBRANCH   9  29
BRANCH  16  31
ATOM     31  O   UNL     1       5.199   5.782  15.628  0.00  0.00    +0.000 OA
ATOM     32  H   UNL     1       5.552   4.872  15.645  0.00  0.00    +0.000 HD
ENDBRANCH  16  31
BRANCH   1  33
ATOM     33  C   UNL     1       7.776   6.203  18.384  0.00  0.00    +0.000 C 
BRANCH  33  35
ATOM     34  C   UNL     1       7.614   8.622  17.879  0.00  0.00    +0.000 C 
ATOM     35  C   UNL     1       8.232   7.449  17.711  0.00  0.00    +0.000 C 
ENDBRANCH  33  35
ENDBRANCH   1  33
TORSDOF 8
ENDMDL
MODEL 4
REMARK VINA RESULT:      -6.8      2.667      6.309
REMARK  Name = 
REMARK  9 active torsions:
REMARK  status: ('A' for Active; 'I' for Inactive)
REMARK    1  A    between atoms: C_2  and  C_3
REMARK    2  A    between atoms: C_3  and  N_4
REMARK    3  A    between atoms: C_12  and  O_13
REMARK    4  A    between atoms: C_17  and  N_18
REMARK    5  A    between atoms: C_19  and  C_21
REMARK    6  A    between atoms: C_22  and  C_23
REMARK    7  A    between atoms: C_23  and  O_25
REMARK    8  A    between atoms: O_25  and  C_26
REMARK    9  A    between atoms: C_29  and  O_30
REMARK                            x       y       z     vdW  Elec       q    Type
REMARK                         _______ _______ _______ _____ _____    ______ ____
ROOT
ATOM      1  N   UNL     1       2.901   2.668  19.234  0.00  0.00    +0.000 NA
ATOM      2  C   UNL     1       1.548   2.920  18.788  0.00  0.00    +0.000 C 
ATOM      3  C   UNL     1       1.379   4.384  18.056  0.00  0.00    +0.000 C 
ATOM      4  C   UNL     1       2.764   5.183  17.252  0.00  0.00    +0.000 C 
ATOM      5  C   UNL     1       2.399   6.343  18.152  0.00  0.00    +0.000 A 
ATOM      6  C   UNL     1       2.640   6.392  19.510  0.00  0.00    +0.000 A 
ATOM      7  C   UNL     1       2.433   7.656  20.117  0.00  0.00    +0.000 A 
ATOM      8  C   UNL     1       1.910   8.765  19.374  0.00  0.00    +0.000 A 
ATOM      9  C   UNL     1       1.763   8.654  18.008  0.00  0.00    +0.000 A 
ATOM     10  C   UNL     1       2.310   7.527  17.447  0.00  0.00    +0.000 A 
ATOM     11  O   UNL     1       3.685   7.670  17.065  0.00  0.00    +0.000 OA
ATOM     12  C   UNL     1       4.105   6.287  17.091  0.00  0.00    +0.000 C 
ATOM     13  C   UNL     1       5.426   5.888  18.023  0.00  0.00    +0.000 C 
ATOM     14  C   UNL     1       6.081   4.622  17.452  0.00  0.00    +0.000 C 
ATOM     15  C   UNL     1       5.015   3.896  16.694  0.00  0.00    +0.000 C 
ATOM     16  C   UNL     1       3.661   3.980  17.435  0.00  0.00    +0.000 C 
ATOM     17  C   UNL     1       3.709   3.827  19.052  0.00  0.00    +0.000 C 
ATOM     18  C   UNL     1       3.205   5.097  20.100  0.00  0.00    +0.000 C 
ENDROOT
BRANCH  13  19
ATOM     19  N   UNL     1       6.407   6.776  18.585  0.00  0.00    +0.000 N 
ATOM     20  C   UNL     1       7.296   7.383  17.769  0.00  0.00    +0.000 C 
ATOM     21  O   UNL     1       7.225   7.389  16.563  0.00  0.00    +0.000 OA
ATOM     22  H   UNL     1       6.725   6.573  19.535  0.00  0.00    +0.000 HD
BRANCH  20  23
ATOM     23  C   UNL     1       8.385   8.064  18.506  0.00  0.00    +0.000 C 
ATOM     24  C   UNL     1       8.413   9.364  18.195  0.00  0.00    +0.000 C 
BRANCH  24  25
ATOM     25  C   UNL     1       9.356  10.359  18.713  0.00  0.00    +0.000 C 
ATOM     26  O   UNL     1      10.000  11.157  18.067  0.00  0.00    +0.000 OA
BRANCH  25  27
ATOM     27  O   UNL     1       9.304  10.187  20.051  0.00  0.00    +0.000 OA
ATOM     28  C   UNL     1       9.488  11.345  20.831  0.00  0.00    +0.000 C 
ENDBRANCH  25  27
ENDBRANCH  24  25
ENDBRANCH  20  23
ENDBRANCH  13  19
BRANCH   9  29
ATOM     29  O   UNL     1       1.136   9.554  17.208  0.00  0.00    +0.000 OA
ATOM     30  H   UNL     1       1.794  10.180  16.862  0.00  0.00    +0.000 HD
ENDBRANCH   9  29
BRANCH  16  31
ATOM     31  O   UNL     1       2.984   2.930  16.658  0.00  0.00    +0.000 OA
ATOM     32  H   UNL     1       3.657   2.463  16.126  0.00  0.00    +0.000 HD
ENDBRANCH  16  31
BRANCH   1  33
ATOM     33  C   UNL     1       3.348   1.764  20.252  0.00  0.00    +0.000 C 
BRANCH  33  35
ATOM     34  C   UNL     1       1.628   2.464  21.892  0.00  0.00    +0.000 C 
ATOM     35  C   UNL     1       2.889   2.107  21.626  0.00  0.00    +0.000 C 
ENDBRANCH  33  35
ENDBRANCH   1  33
TORSDOF 8
ENDMDL
MODEL 5
REMARK VINA RESULT:      -6.6      7.396     10.949
REMARK  Name = 
REMARK  9 active torsions:
REMARK  status: ('A' for Active; 'I' for Inactive)
REMARK    1  A    between atoms: C_2  and  C_3
REMARK    2  A    between atoms: C_3  and  N_4
REMARK    3  A    between atoms: C_12  and  O_13
REMARK    4  A    between atoms: C_17  and  N_18
REMARK    5  A    between atoms: C_19  and  C_21
REMARK    6  A    between atoms: C_22  and  C_23
REMARK    7  A    between atoms: C_23  and  O_25
REMARK    8  A    between atoms: O_25  and  C_26
REMARK    9  A    between atoms: C_29  and  O_30
REMARK                            x       y       z     vdW  Elec       q    Type
REMARK                         _______ _______ _______ _____ _____    ______ ____
ROOT
ATOM      1  N   UNL     1      -0.539  17.003  21.456  0.00  0.00    +0.000 NA
ATOM      2  C   UNL     1      -0.896  17.213  22.842  0.00  0.00    +0.000 C 
ATOM      3  C   UNL     1      -1.471  15.853  23.569  0.00  0.00    +0.000 C 
ATOM      4  C   UNL     1      -1.002  14.226  22.988  0.00  0.00    +0.000 C 
ATOM      5  C   UNL     1      -2.497  14.008  22.914  0.00  0.00    +0.000 A 
ATOM      6  C   UNL     1      -3.326  14.553  21.954  0.00  0.00    +0.000 A 
ATOM      7  C   UNL     1      -4.646  14.038  21.928  0.00  0.00    +0.000 A 
ATOM      8  C   UNL     1      -5.098  13.093  22.907  0.00  0.00    +0.000 A 
ATOM      9  C   UNL     1      -4.189  12.546  23.787  0.00  0.00    +0.000 A 
ATOM     10  C   UNL     1      -2.872  12.828  23.526  0.00  0.00    +0.000 A 
ATOM     11  O   UNL     1      -2.237  11.899  22.637  0.00  0.00    +0.000 OA
ATOM     12  C   UNL     1      -1.172  12.725  22.116  0.00  0.00    +0.000 C 
ATOM     13  C   UNL     1      -1.042  12.883  20.464  0.00  0.00    +0.000 C 
ATOM     14  C   UNL     1       0.414  13.213  20.103  0.00  0.00    +0.000 C 
ATOM     15  C   UNL     1       1.021  13.845  21.316  0.00  0.00    +0.000 C 
ATOM     16  C   UNL     1       0.007  14.783  22.010  0.00  0.00    +0.000 C 
ATOM     17  C   UNL     1      -0.920  15.696  21.038  0.00  0.00    +0.000 C 
ATOM     18  C   UNL     1      -2.635  15.537  21.006  0.00  0.00    +0.000 C 
ENDROOT
BRANCH  13  19
ATOM     19  N   UNL     1      -1.661  12.073  19.451  0.00  0.00    +0.000 N 
ATOM     20  C   UNL     1      -1.272  10.788  19.300  0.00  0.00    +0.000 C 
ATOM     21  O   UNL     1      -0.565  10.193  20.078  0.00  0.00    +0.000 OA
ATOM     22  H   UNL     1      -1.985  12.553  18.608  0.00  0.00    +0.000 HD
BRANCH  20  23
ATOM     23  C   UNL     1      -1.813  10.160  18.073  0.00  0.00    +0.000 C 
ATOM     24  C   UNL     1      -2.436  11.074  17.321  0.00  0.00    +0.000 C 
BRANCH  24  25
ATOM     25  C   UNL     1      -3.107  10.832  16.041  0.00  0.00    +0.000 C 
ATOM     26  O   UNL     1      -2.583  10.703  14.957  0.00  0.00    +0.000 OA
BRANCH  25  27
ATOM     27  O   UNL     1      -4.415  10.761  16.371  0.00  0.00    +0.000 OA
ATOM     28  C   UNL     1      -4.955  11.899  17.002  0.00  0.00    +0.000 C 
ENDBRANCH  25  27
ENDBRANCH  24  25
ENDBRANCH  20  23
ENDBRANCH  13  19
BRANCH   9  29
ATOM     29  O   UNL     1      -4.499  11.771  24.858  0.00  0.00    +0.000 OA
ATOM     30  H   UNL     1      -5.248  12.172  25.331  0.00  0.00    +0.000 HD
ENDBRANCH   9  29
BRANCH  16  31
ATOM     31  O   UNL     1       0.982  15.462  22.879  0.00  0.00    +0.000 OA
ATOM     32  H   UNL     1       0.547  15.657  23.730  0.00  0.00    +0.000 HD
ENDBRANCH  16  31
BRANCH   1  33
ATOM     33  C   UNL     1      -0.431  17.975  20.409  0.00  0.00    +0.000 C 
BRANCH  33  35
ATOM     34  C   UNL     1      -0.800  17.699  17.975  0.00  0.00    +0.000 C 
ATOM     35  C   UNL     1      -0.097  17.408  19.074  0.00  0.00    +0.000 C 
ENDBRANCH  33  35
ENDBRANCH   1  33
TORSDOF 8
ENDMDL
MODEL 6
REMARK VINA RESULT:      -6.6      6.955     10.172
REMARK  Name = 
REMARK  9 active torsions:
REMARK  status: ('A' for Active; 'I' for Inactive)
REMARK    1  A    between atoms: C_2  and  C_3
REMARK    2  A    between atoms: C_3  and  N_4
REMARK    3  A    between atoms: C_12  and  O_13
REMARK    4  A    between atoms: C_17  and  N_18
REMARK    5  A    between atoms: C_19  and  C_21
REMARK    6  A    between atoms: C_22  and  C_23
REMARK    7  A    between atoms: C_23  and  O_25
REMARK    8  A    between atoms: O_25  and  C_26
REMARK    9  A    between atoms: C_29  and  O_30
REMARK                            x       y       z     vdW  Elec       q    Type
REMARK                         _______ _______ _______ _____ _____    ______ ____
ROOT
ATOM      1  N   UNL     1       0.812  16.491  20.844  0.00  0.00    +0.000 NA
ATOM      2  C   UNL     1       0.479  16.736  22.231  0.00  0.00    +0.000 C 
ATOM      3  C   UNL     1      -0.310  15.474  22.932  0.00  0.00    +0.000 C 
ATOM      4  C   UNL     1      -0.098  13.802  22.331  0.00  0.00    +0.000 C 
ATOM      5  C   UNL     1      -1.608  13.823  22.242  0.00  0.00    +0.000 A 
ATOM      6  C   UNL     1      -2.331  14.505  21.284  0.00  0.00    +0.000 A 
ATOM      7  C   UNL     1      -3.715  14.205  21.241  0.00  0.00    +0.000 A 
ATOM      8  C   UNL     1      -4.320  13.330  22.202  0.00  0.00    +0.000 A 
ATOM      9  C   UNL     1      -3.517  12.634  23.080  0.00  0.00    +0.000 A 
ATOM     10  C   UNL     1      -2.170  12.709  22.833  0.00  0.00    +0.000 A 
ATOM     11  O   UNL     1      -1.681  11.703  21.935  0.00  0.00    +0.000 OA
ATOM     12  C   UNL     1      -0.494  12.358  21.435  0.00  0.00    +0.000 C 
ATOM     13  C   UNL     1      -0.324  12.516  19.787  0.00  0.00    +0.000 C 
ATOM     14  C   UNL     1       1.169  12.617  19.442  0.00  0.00    +0.000 C 
ATOM     15  C   UNL     1       1.856  13.129  20.668  0.00  0.00    +0.000 C 
ATOM     16  C   UNL     1       0.996  14.205  21.369  0.00  0.00    +0.000 C 
ATOM     17  C   UNL     1       0.234  15.267  20.404  0.00  0.00    +0.000 C 
ATOM     18  C   UNL     1      -1.484  15.381  20.356  0.00  0.00    +0.000 C 
ENDROOT
BRANCH  13  19
ATOM     19  N   UNL     1      -1.053  11.828  18.756  0.00  0.00    +0.000 N 
ATOM     20  C   UNL     1      -0.901  10.493  18.616  0.00  0.00    +0.000 C 
ATOM     21  O   UNL     1      -0.335   9.782  19.412  0.00  0.00    +0.000 OA
ATOM     22  H   UNL     1      -1.262  12.355  17.905  0.00  0.00    +0.000 HD
BRANCH  20  23
ATOM     23  C   UNL     1      -1.514   9.969  17.374  0.00  0.00    +0.000 C 
ATOM     24  C   UNL     1      -2.326  10.885  16.835  0.00  0.00    +0.000 C 
BRANCH  24  25
ATOM     25  C   UNL     1      -3.117  10.730  15.612  0.00  0.00    +0.000 C 
ATOM     26  O   UNL     1      -2.812  10.103  14.621  0.00  0.00    +0.000 OA
BRANCH  25  27
ATOM     27  O   UNL     1      -4.250  11.417  15.872  0.00  0.00    +0.000 OA
ATOM     28  C   UNL     1      -4.773  11.277  17.173  0.00  0.00    +0.000 C 
ENDBRANCH  25  27
ENDBRANCH  24  25
ENDBRANCH  20  23
ENDBRANCH  13  19
BRANCH   9  29
ATOM     29  O   UNL     1      -3.957  11.903  24.137  0.00  0.00    +0.000 OA
ATOM     30  H   UNL     1      -4.890  12.118  24.304  0.00  0.00    +0.000 HD
ENDBRANCH   9  29
BRANCH  16  31
ATOM     31  O   UNL     1       2.057  14.710  22.255  0.00  0.00    +0.000 OA
ATOM     32  H   UNL     1       1.833  14.460  23.171  0.00  0.00    +0.000 HD
ENDBRANCH  16  31
BRANCH   1  33
ATOM     33  C   UNL     1       1.082  17.448  19.812  0.00  0.00    +0.000 C 
BRANCH  33  35
ATOM     34  C   UNL     1       3.225  16.539  18.965  0.00  0.00    +0.000 C 
ATOM     35  C   UNL     1       1.975  16.952  18.730  0.00  0.00    +0.000 C 
ENDBRANCH  33  35
ENDBRANCH   1  33
TORSDOF 8
ENDMDL
MODEL 7
REMARK VINA RESULT:      -6.5      0.863      1.267
REMARK  Name = 
REMARK  9 active torsions:
REMARK  status: ('A' for Active; 'I' for Inactive)
REMARK    1  A    between atoms: C_2  and  C_3
REMARK    2  A    between atoms: C_3  and  N_4
REMARK    3  A    between atoms: C_12  and  O_13
REMARK    4  A    between atoms: C_17  and  N_18
REMARK    5  A    between atoms: C_19  and  C_21
REMARK    6  A    between atoms: C_22  and  C_23
REMARK    7  A    between atoms: C_23  and  O_25
REMARK    8  A    between atoms: O_25  and  C_26
REMARK    9  A    between atoms: C_29  and  O_30
REMARK                            x       y       z     vdW  Elec       q    Type
REMARK                         _______ _______ _______ _____ _____    ______ ____
ROOT
ATOM      1  N   UNL     1       6.655   5.613  17.685  0.00  0.00    +0.000 NA
ATOM      2  C   UNL     1       6.569   4.306  17.070  0.00  0.00    +0.000 C 
ATOM      3  C   UNL     1       5.031   3.722  17.019  0.00  0.00    +0.000 C 
ATOM      4  C   UNL     1       3.623   4.827  17.004  0.00  0.00    +0.000 C 
ATOM      5  C   UNL     1       3.180   4.002  18.192  0.00  0.00    +0.000 A 
ATOM      6  C   UNL     1       3.734   4.077  19.454  0.00  0.00    +0.000 A 
ATOM      7  C   UNL     1       3.022   3.394  20.472  0.00  0.00    +0.000 A 
ATOM      8  C   UNL     1       1.866   2.602  20.171  0.00  0.00    +0.000 A 
ATOM      9  C   UNL     1       1.335   2.638  18.899  0.00  0.00    +0.000 A 
ATOM     10  C   UNL     1       1.869   3.587  18.064  0.00  0.00    +0.000 A 
ATOM     11  O   UNL     1       1.217   4.863  18.134  0.00  0.00    +0.000 OA
ATOM     12  C   UNL     1       2.281   5.722  17.668  0.00  0.00    +0.000 C 
ATOM     13  C   UNL     1       2.733   7.000  18.634  0.00  0.00    +0.000 C 
ATOM     14  C   UNL     1       3.352   8.100  17.757  0.00  0.00    +0.000 C 
ATOM     15  C   UNL     1       3.862   7.424  16.525  0.00  0.00    +0.000 C 
ATOM     16  C   UNL     1       4.492   6.056  16.870  0.00  0.00    +0.000 C 
ATOM     17  C   UNL     1       5.391   5.992  18.222  0.00  0.00    +0.000 C 
ATOM     18  C   UNL     1       4.962   4.986  19.553  0.00  0.00    +0.000 C 
ENDROOT
BRANCH  13  19
ATOM     19  N   UNL     1       2.013   7.561  19.745  0.00  0.00    +0.000 N 
ATOM     20  C   UNL     1       1.285   8.685  19.564  0.00  0.00    +0.000 C 
ATOM     21  O   UNL     1       1.032   9.169  18.487  0.00  0.00    +0.000 OA
ATOM     22  H   UNL     1       2.416   7.424  20.675  0.00  0.00    +0.000 HD
BRANCH  20  23
ATOM     23  C   UNL     1       0.808   9.275  20.836  0.00  0.00    +0.000 C 
ATOM     24  C   UNL     1       0.764  10.608  20.740  0.00  0.00    +0.000 C 
BRANCH  24  25
ATOM     25  C   UNL     1       0.355  11.540  21.795  0.00  0.00    +0.000 C 
ATOM     26  O   UNL     1       0.441  12.748  21.773  0.00  0.00    +0.000 OA
BRANCH  25  27
ATOM     27  O   UNL     1      -0.152  10.737  22.755  0.00  0.00    +0.000 OA
ATOM     28  C   UNL     1      -1.423  11.091  23.249  0.00  0.00    +0.000 C 
ENDBRANCH  25  27
ENDBRANCH  24  25
ENDBRANCH  20  23
ENDBRANCH  13  19
BRANCH   9  29
ATOM     29  O   UNL     1       0.352   1.824  18.434  0.00  0.00    +0.000 OA
ATOM     30  H   UNL     1      -0.485   2.318  18.418  0.00  0.00    +0.000 HD
ENDBRANCH   9  29
BRANCH  16  31
ATOM     31  O   UNL     1       5.167   5.856  15.578  0.00  0.00    +0.000 OA
ATOM     32  H   UNL     1       5.539   6.712  15.293  0.00  0.00    +0.000 HD
ENDBRANCH  16  31
BRANCH   1  33
ATOM     33  C   UNL     1       7.792   6.237  18.294  0.00  0.00    +0.000 C 
BRANCH  33  35
ATOM     34  C   UNL     1       8.408   5.438  20.556  0.00  0.00    +0.000 C 
ATOM     35  C   UNL     1       8.549   5.361  19.229  0.00  0.00    +0.000 C 
ENDBRANCH  33  35
ENDBRANCH   1  33
TORSDOF 8
ENDMDL
MODEL 8
REMARK VINA RESULT:      -6.3      3.352      9.705
REMARK  Name = 
REMARK  9 active torsions:
REMARK  status: ('A' for Active; 'I' for Inactive)
REMARK    1  A    between atoms: C_2  and  C_3
REMARK    2  A    between atoms: C_3  and  N_4
REMARK    3  A    between atoms: C_12  and  O_13
REMARK    4  A    between atoms: C_17  and  N_18
REMARK    5  A    between atoms: C_19  and  C_21
REMARK    6  A    between atoms: C_22  and  C_23
REMARK    7  A    between atoms: C_23  and  O_25
REMARK    8  A    between atoms: O_25  and  C_26
REMARK    9  A    between atoms: C_29  and  O_30
REMARK                            x       y       z     vdW  Elec       q    Type
REMARK                         _______ _______ _______ _____ _____    ______ ____
ROOT
ATOM      1  N   UNL     1      -1.572  12.362  22.497  0.00  0.00    +0.000 NA
ATOM      2  C   UNL     1      -1.507  13.789  22.724  0.00  0.00    +0.000 C 
ATOM      3  C   UNL     1      -0.843  14.609  21.461  0.00  0.00    +0.000 C 
ATOM      4  C   UNL     1      -0.913  13.956  19.796  0.00  0.00    +0.000 C 
ATOM      5  C   UNL     1       0.587  14.151  19.839  0.00  0.00    +0.000 A 
ATOM      6  C   UNL     1       1.464  13.354  20.545  0.00  0.00    +0.000 A 
ATOM      7  C   UNL     1       2.838  13.566  20.264  0.00  0.00    +0.000 A 
ATOM      8  C   UNL     1       3.266  14.611  19.381  0.00  0.00    +0.000 A 
ATOM      9  C   UNL     1       2.325  15.315  18.661  0.00  0.00    +0.000 A 
ATOM     10  C   UNL     1       1.046  14.821  18.722  0.00  0.00    +0.000 A 
ATOM     11  O   UNL     1       0.749  13.834  17.725  0.00  0.00    +0.000 OA
ATOM     12  C   UNL     1      -0.334  13.130  18.372  0.00  0.00    +0.000 C 
ATOM     13  C   UNL     1      -0.196  11.482  18.555  0.00  0.00    +0.000 C 
ATOM     14  C   UNL     1      -1.600  10.866  18.642  0.00  0.00    +0.000 C 
ATOM     15  C   UNL     1      -2.511  11.949  19.124  0.00  0.00    +0.000 C 
ATOM     16  C   UNL     1      -1.815  12.812  20.200  0.00  0.00    +0.000 C 
ATOM     17  C   UNL     1      -0.903  12.021  21.287  0.00  0.00    +0.000 C 
ATOM     18  C   UNL     1       0.792  12.296  21.425  0.00  0.00    +0.000 C 
ENDROOT
BRANCH  13  19
ATOM     19  N   UNL     1       0.723  10.596  17.893  0.00  0.00    +0.000 N 
ATOM     20  C   UNL     1       1.300   9.596  18.593  0.00  0.00    +0.000 C 
ATOM     21  O   UNL     1       0.968   9.258  19.704  0.00  0.00    +0.000 OA
ATOM     22  H   UNL     1       1.269  10.988  17.122  0.00  0.00    +0.000 HD
BRANCH  20  23
ATOM     23  C   UNL     1       2.396   8.929  17.851  0.00  0.00    +0.000 C 
ATOM     24  C   UNL     1       2.537   7.667  18.270  0.00  0.00    +0.000 C 
BRANCH  24  25
ATOM     25  C   UNL     1       3.521   6.697  17.782  0.00  0.00    +0.000 C 
ATOM     26  O   UNL     1       4.417   6.903  16.993  0.00  0.00    +0.000 OA
BRANCH  25  27
ATOM     27  O   UNL     1       3.205   5.559  18.437  0.00  0.00    +0.000 OA
ATOM     28  C   UNL     1       2.099   4.846  17.936  0.00  0.00    +0.000 C 
ENDBRANCH  25  27
ENDBRANCH  24  25
ENDBRANCH  20  23
ENDBRANCH  13  19
BRANCH   9  29
ATOM     29  O   UNL     1       2.571  16.425  17.919  0.00  0.00    +0.000 OA
ATOM     30  H   UNL     1       3.527  16.602  17.923  0.00  0.00    +0.000 HD
ENDBRANCH   9  29
BRANCH  16  31
ATOM     31  O   UNL     1      -3.031  13.491  20.677  0.00  0.00    +0.000 OA
ATOM     32  H   UNL     1      -2.867  13.804  21.587  0.00  0.00    +0.000 HD
ENDBRANCH  16  31
BRANCH   1  33
ATOM     33  C   UNL     1      -1.661  11.311  23.467  0.00  0.00    +0.000 C 
BRANCH  33  35
ATOM     34  C   UNL     1       0.013   9.487  23.557  0.00  0.00    +0.000 C 
ATOM     35  C   UNL     1      -1.093  10.010  23.019  0.00  0.00    +0.000 C 
ENDBRANCH  33  35
ENDBRANCH   1  33
TORSDOF 8
ENDMDL
MODEL 9
REMARK VINA RESULT:      -6.3      7.577      9.616
REMARK  Name = 
REMARK  9 active torsions:
REMARK  status: ('A' for Active; 'I' for Inactive)
REMARK    1  A    between atoms: C_2  and  C_3
REMARK    2  A    between atoms: C_3  and  N_4
REMARK    3  A    between atoms: C_12  and  O_13
REMARK    4  A    between atoms: C_17  and  N_18
REMARK    5  A    between atoms: C_19  and  C_21
REMARK    6  A    between atoms: C_22  and  C_23
REMARK    7  A    between atoms: C_23  and  O_25
REMARK    8  A    between atoms: O_25  and  C_26
REMARK    9  A    between atoms: C_29  and  O_30
REMARK                            x       y       z     vdW  Elec       q    Type
REMARK                         _______ _______ _______ _____ _____    ______ ____
ROOT
ATOM      1  N   UNL     1       0.850  15.996  20.093  0.00  0.00    +0.000 NA
ATOM      2  C   UNL     1       1.678  15.669  21.233  0.00  0.00    +0.000 C 
ATOM      3  C   UNL     1       1.485  14.115  21.739  0.00  0.00    +0.000 C 
ATOM      4  C   UNL     1       0.947  12.835  20.610  0.00  0.00    +0.000 C 
ATOM      5  C   UNL     1      -0.120  12.599  21.656  0.00  0.00    +0.000 A 
ATOM      6  C   UNL     1      -1.205  13.423  21.873  0.00  0.00    +0.000 A 
ATOM      7  C   UNL     1      -2.202  12.900  22.735  0.00  0.00    +0.000 A 
ATOM      8  C   UNL     1      -2.026  11.645  23.404  0.00  0.00    +0.000 A 
ATOM      9  C   UNL     1      -0.949  10.850  23.078  0.00  0.00    +0.000 A 
ATOM     10  C   UNL     1      -0.221  11.262  21.989  0.00  0.00    +0.000 A 
ATOM     11  O   UNL     1      -0.697  10.750  20.737  0.00  0.00    +0.000 OA
ATOM     12  C   UNL     1      -0.179  11.752  19.834  0.00  0.00    +0.000 C 
ATOM     13  C   UNL     1      -1.250  12.510  18.810  0.00  0.00    +0.000 C 
ATOM     14  C   UNL     1      -0.493  13.008  17.569  0.00  0.00    +0.000 C 
ATOM     15  C   UNL     1       0.935  13.175  17.980  0.00  0.00    +0.000 C 
ATOM     16  C   UNL     1       1.029  13.751  19.411  0.00  0.00    +0.000 C 
ATOM     17  C   UNL     1      -0.033  14.919  19.795  0.00  0.00    +0.000 C 
ATOM     18  C   UNL     1      -1.196  14.713  21.049  0.00  0.00    +0.000 C 
ENDROOT
BRANCH  13  19
ATOM     19  N   UNL     1      -2.588  12.103  18.477  0.00  0.00    +0.000 N 
ATOM     20  C   UNL     1      -2.779  10.971  17.765  0.00  0.00    +0.000 C 
ATOM     21  O   UNL     1      -1.919  10.156  17.534  0.00  0.00    +0.000 OA
ATOM     22  H   UNL     1      -3.279  12.845  18.348  0.00  0.00    +0.000 HD
BRANCH  20  23
ATOM     23  C   UNL     1      -4.174  10.814  17.293  0.00  0.00    +0.000 C 
ATOM     24  C   UNL     1      -4.980  11.663  17.939  0.00  0.00    +0.000 C 
BRANCH  24  25
ATOM     25  C   UNL     1      -6.428  11.794  17.753  0.00  0.00    +0.000 C 
ATOM     26  O   UNL     1      -7.013  12.703  17.206  0.00  0.00    +0.000 OA
BRANCH  25  27
ATOM     27  O   UNL     1      -6.927  10.666  18.304  0.00  0.00    +0.000 OA
ATOM     28  C   UNL     1      -7.044  10.665  19.708  0.00  0.00    +0.000 C 
ENDBRANCH  25  27
ENDBRANCH  24  25
ENDBRANCH  20  23
ENDBRANCH  13  19
BRANCH   9  29
ATOM     29  O   UNL     1      -0.572   9.725  23.738  0.00  0.00    +0.000 OA
ATOM     30  H   UNL     1      -0.749   8.954  23.173  0.00  0.00    +0.000 HD
ENDBRANCH   9  29
BRANCH  16  31
ATOM     31  O   UNL     1       2.457  14.104  19.351  0.00  0.00    +0.000 OA
ATOM     32  H   UNL     1       2.868  13.853  20.200  0.00  0.00    +0.000 HD
ENDBRANCH  16  31
BRANCH   1  33
ATOM     33  C   UNL     1       0.411  17.287  19.653  0.00  0.00    +0.000 C 
BRANCH  33  35
ATOM     34  C   UNL     1      -1.646  17.996  18.469  0.00  0.00    +0.000 C 
ATOM     35  C   UNL     1      -0.530  17.260  18.501  0.00  0.00    +0.000 C 
ENDBRANCH  33  35
ENDBRANCH   1  33
TORSDOF 8
ENDMDL
