MODEL 1
REMARK VINA RESULT:      -9.9      0.000      0.000
REMARK  Name = 
REMARK  5 active torsions:
REMARK  status: ('A' for Active; 'I' for Inactive)
REMARK    1  A    between atoms: C_1  and  O_2
REMARK    2  A    between atoms: O_2  and  C_3
REMARK    3  A    between atoms: C_5  and  O_6
REMARK    4  A    between atoms: O_6  and  C_7
REMARK    5  A    between atoms: C_9  and  C_10
REMARK                            x       y       z     vdW  Elec       q    Type
REMARK                         _______ _______ _______ _____ _____    ______ ____
ROOT
ATOM      1  C   UNL     1       3.391   5.085  19.268  0.00  0.00    +0.000 C 
ATOM      2  C   UNL     1       3.028   3.676  19.533  0.00  0.00    +0.000 C 
ATOM      3  C   UNL     1       4.059   2.798  19.475  0.00  0.00    +0.000 C 
ATOM      4  C   UNL     1       3.631   1.624  18.637  0.00  0.00    +0.000 C 
ATOM      5  N   UNL     1       2.218   1.737  18.667  0.00  0.00    +0.000 N 
ATOM      6  C   UNL     1       1.824   2.995  19.069  0.00  0.00    +0.000 C 
ATOM      7  O   UNL     1       0.706   3.458  19.023  0.00  0.00    +0.000 OA
ATOM      8  N   UNL     1       5.414   3.247  19.464  0.00  0.00    +0.000 N 
ATOM      9  C   UNL     1       5.634   4.341  18.535  0.00  0.00    +0.000 A 
ATOM     10  C   UNL     1       6.830   4.430  17.836  0.00  0.00    +0.000 A 
ATOM     11  C   UNL     1       6.705   4.839  16.533  0.00  0.00    +0.000 A 
ATOM     12  C   UNL     1       5.476   5.140  15.988  0.00  0.00    +0.000 A 
ATOM     13  C   UNL     1       4.336   5.261  16.765  0.00  0.00    +0.000 A 
ATOM     14  C   UNL     1       4.471   5.042  18.134  0.00  0.00    +0.000 A 
ATOM     15  O   UNL     1       5.529   5.227  14.630  0.00  0.00    +0.000 OA
ATOM     16  C   UNL     1       6.939   5.010  14.395  0.00  0.00    +0.000 C 
ATOM     17  O   UNL     1       7.697   4.810  15.602  0.00  0.00    +0.000 OA
ATOM     18  H   UNL     1       1.560   1.154  18.162  0.00  0.00    +0.000 HD
ATOM     19  H   UNL     1       5.666   3.617  20.385  0.00  0.00    +0.000 HD
ENDROOT
BRANCH   1  24
ATOM     20  C   UNL     1       1.989   8.418  18.413  0.00  0.00    +0.000 A 
ATOM     21  C   UNL     1       1.572   8.866  19.666  0.00  0.00    +0.000 A 
ATOM     22  C   UNL     1       1.450   7.972  20.730  0.00  0.00    +0.000 A 
ATOM     23  C   UNL     1       1.879   6.656  20.554  0.00  0.00    +0.000 A 
ATOM     24  C   UNL     1       2.406   6.234  19.310  0.00  0.00    +0.000 A 
ATOM     25  C   UNL     1       2.243   7.066  18.210  0.00  0.00    +0.000 A 
BRANCH  20  27
ATOM     26  C   UNL     1       2.094  10.709  17.930  0.00  0.00    +0.000 C 
ATOM     27  O   UNL     1       2.218   9.367  17.448  0.00  0.00    +0.000 OA
ENDBRANCH  20  27
BRANCH  22  28
ATOM     28  O   UNL     1       1.024   8.530  21.908  0.00  0.00    +0.000 OA
ATOM     29  C   UNL     1      -0.334   8.941  21.984  0.00  0.00    +0.000 C 
ENDBRANCH  22  28
ENDBRANCH   1  24
TORSDOF 3
ENDMDL
MODEL 2
REMARK VINA RESULT:      -7.3      0.614      2.179
REMARK  Name = 
REMARK  5 active torsions:
REMARK  status: ('A' for Active; 'I' for Inactive)
REMARK    1  A    between atoms: C_1  and  O_2
REMARK    2  A    between atoms: O_2  and  C_3
REMARK    3  A    between atoms: C_5  and  O_6
REMARK    4  A    between atoms: O_6  and  C_7
REMARK    5  A    between atoms: C_9  and  C_10
REMARK                            x       y       z     vdW  Elec       q    Type
REMARK                         _______ _______ _______ _____ _____    ______ ____
ROOT
ATOM      1  C   UNL     1       3.817   5.478  19.388  0.00  0.00    +0.000 C 
ATOM      2  C   UNL     1       3.164   4.159  19.532  0.00  0.00    +0.000 C 
ATOM      3  C   UNL     1       3.974   3.094  19.318  0.00  0.00    +0.000 C 
ATOM      4  C   UNL     1       3.266   2.140  18.395  0.00  0.00    +0.000 C 
ATOM      5  N   UNL     1       1.915   2.549  18.527  0.00  0.00    +0.000 N 
ATOM      6  C   UNL     1       1.823   3.808  19.079  0.00  0.00    +0.000 C 
ATOM      7  O   UNL     1       0.832   4.501  19.152  0.00  0.00    +0.000 OA
ATOM      8  N   UNL     1       5.393   3.240  19.265  0.00  0.00    +0.000 N 
ATOM      9  C   UNL     1       5.810   4.360  18.441  0.00  0.00    +0.000 A 
ATOM     10  C   UNL     1       6.967   4.270  17.679  0.00  0.00    +0.000 A 
ATOM     11  C   UNL     1       6.882   4.841  16.434  0.00  0.00    +0.000 A 
ATOM     12  C   UNL     1       5.728   5.457  16.004  0.00  0.00    +0.000 A 
ATOM     13  C   UNL     1       4.675   5.730  16.861  0.00  0.00    +0.000 A 
ATOM     14  C   UNL     1       4.814   5.334  18.188  0.00  0.00    +0.000 A 
ATOM     15  O   UNL     1       5.743   5.685  14.661  0.00  0.00    +0.000 OA
ATOM     16  C   UNL     1       7.060   5.199  14.314  0.00  0.00    +0.000 C 
ATOM     17  O   UNL     1       7.805   4.707  15.443  0.00  0.00    +0.000 OA
ATOM     18  H   UNL     1       1.125   2.181  18.009  0.00  0.00    +0.000 HD
ATOM     19  H   UNL     1       5.758   3.441  20.201  0.00  0.00    +0.000 HD
ENDROOT
BRANCH   1  24
ATOM     20  C   UNL     1       1.148   7.769  20.586  0.00  0.00    +0.000 A 
ATOM     21  C   UNL     1       1.009   8.620  19.491  0.00  0.00    +0.000 A 
ATOM     22  C   UNL     1       1.988   8.657  18.499  0.00  0.00    +0.000 A 
ATOM     23  C   UNL     1       3.036   7.737  18.553  0.00  0.00    +0.000 A 
ATOM     24  C   UNL     1       3.111   6.799  19.611  0.00  0.00    +0.000 A 
ATOM     25  C   UNL     1       2.288   6.984  20.714  0.00  0.00    +0.000 A 
BRANCH  20  27
ATOM     26  C   UNL     1      -0.299   8.942  22.010  0.00  0.00    +0.000 C 
ATOM     27  O   UNL     1       0.087   7.680  21.455  0.00  0.00    +0.000 OA
ENDBRANCH  20  27
BRANCH  22  28
ATOM     28  O   UNL     1       1.745   9.540  17.478  0.00  0.00    +0.000 OA
ATOM     29  C   UNL     1       1.990  10.916  17.730  0.00  0.00    +0.000 C 
ENDBRANCH  22  28
ENDBRANCH   1  24
TORSDOF 3
ENDMDL
MODEL 3
REMARK VINA RESULT:      -7.1      8.665     11.477
REMARK  Name = 
REMARK  5 active torsions:
REMARK  status: ('A' for Active; 'I' for Inactive)
REMARK    1  A    between atoms: C_1  and  O_2
REMARK    2  A    between atoms: O_2  and  C_3
REMARK    3  A    between atoms: C_5  and  O_6
REMARK    4  A    between atoms: O_6  and  C_7
REMARK    5  A    between atoms: C_9  and  C_10
REMARK                            x       y       z     vdW  Elec       q    Type
REMARK                         _______ _______ _______ _____ _____    ______ ____
ROOT
ATOM      1  C   UNL     1       9.414  13.459  21.868  0.00  0.00    +0.000 C 
ATOM      2  C   UNL     1       8.684  14.648  21.380  0.00  0.00    +0.000 C 
ATOM      3  C   UNL     1       8.195  15.458  22.351  0.00  0.00    +0.000 C 
ATOM      4  C   UNL     1       6.763  15.778  22.022  0.00  0.00    +0.000 C 
ATOM      5  N   UNL     1       6.702  15.477  20.638  0.00  0.00    +0.000 N 
ATOM      6  C   UNL     1       7.765  14.690  20.248  0.00  0.00    +0.000 C 
ATOM      7  O   UNL     1       7.900  14.122  19.187  0.00  0.00    +0.000 OA
ATOM      8  N   UNL     1       8.620  15.328  23.707  0.00  0.00    +0.000 N 
ATOM      9  C   UNL     1       8.629  13.949  24.162  0.00  0.00    +0.000 A 
ATOM     10  C   UNL     1       8.281  13.646  25.471  0.00  0.00    +0.000 A 
ATOM     11  C   UNL     1       7.530  12.509  25.619  0.00  0.00    +0.000 A 
ATOM     12  C   UNL     1       7.169  11.740  24.534  0.00  0.00    +0.000 A 
ATOM     13  C   UNL     1       7.715  11.938  23.277  0.00  0.00    +0.000 A 
ATOM     14  C   UNL     1       8.638  12.971  23.138  0.00  0.00    +0.000 A 
ATOM     15  O   UNL     1       6.191  10.845  24.847  0.00  0.00    +0.000 OA
ATOM     16  C   UNL     1       6.028  11.098  26.261  0.00  0.00    +0.000 C 
ATOM     17  O   UNL     1       6.908  12.120  26.765  0.00  0.00    +0.000 OA
ATOM     18  H   UNL     1       5.874  15.507  20.054  0.00  0.00    +0.000 HD
ATOM     19  H   UNL     1       9.588  15.651  23.802  0.00  0.00    +0.000 HD
ENDROOT
BRANCH   1  24
ATOM     20  C   UNL     1      11.266  12.214  18.897  0.00  0.00    +0.000 A 
ATOM     21  C   UNL     1      10.537  11.066  18.584  0.00  0.00    +0.000 A 
ATOM     22  C   UNL     1       9.651  10.520  19.512  0.00  0.00    +0.000 A 
ATOM     23  C   UNL     1       9.408  11.213  20.698  0.00  0.00    +0.000 A 
ATOM     24  C   UNL     1      10.068  12.437  20.961  0.00  0.00    +0.000 A 
ATOM     25  C   UNL     1      11.141  12.792  20.155  0.00  0.00    +0.000 A 
BRANCH  20  27
ATOM     26  C   UNL     1      11.231  13.251  16.795  0.00  0.00    +0.000 C 
ATOM     27  O   UNL     1      12.016  12.777  17.894  0.00  0.00    +0.000 OA
ENDBRANCH  20  27
BRANCH  22  28
ATOM     28  O   UNL     1       9.001   9.388  19.093  0.00  0.00    +0.000 OA
ATOM     29  C   UNL     1       8.219   9.481  17.911  0.00  0.00    +0.000 C 
ENDBRANCH  22  28
ENDBRANCH   1  24
TORSDOF 3
ENDMDL
