MODEL 1
REMARK VINA RESULT:      -7.8      0.000      0.000
REMARK  Name = 
REMARK  2 active torsions:
REMARK  status: ('A' for Active; 'I' for Inactive)
REMARK    1  A    between atoms: N_8  and  S_9
REMARK    2  A    between atoms: S_9  and  C_12
REMARK                            x       y       z     vdW  Elec       q    Type
REMARK                         _______ _______ _______ _____ _____    ______ ____
ROOT
ATOM      1  O   UNL     1       5.205   1.827  20.419  0.00  0.00    +0.000 OA
ATOM      2  C   UNL     1       4.659   2.749  19.844  0.00  0.00    +0.000 C 
ATOM      3  O   UNL     1       5.238   3.651  19.009  0.00  0.00    +0.000 OA
ATOM      4  C   UNL     1       4.350   4.754  18.672  0.00  0.00    +0.000 C 
ATOM      5  C   UNL     1       5.003   6.029  19.225  0.00  0.00    +0.000 C 
ATOM      6  C   UNL     1       6.317   6.337  18.488  0.00  0.00    +0.000 C 
ATOM      7  C   UNL     1       6.115   6.413  16.974  0.00  0.00    +0.000 C 
ATOM      8  N   UNL     1       5.489   5.170  16.480  0.00  0.00    +0.000 NA
ATOM      9  C   UNL     1       4.197   4.846  17.138  0.00  0.00    +0.000 C 
ATOM     10  C   UNL     1       3.078   4.358  19.344  0.00  0.00    +0.000 A 
ATOM     11  C   UNL     1       1.829   4.962  19.402  0.00  0.00    +0.000 A 
ATOM     12  C   UNL     1       0.788   4.284  20.046  0.00  0.00    +0.000 A 
ATOM     13  C   UNL     1       0.988   3.015  20.621  0.00  0.00    +0.000 A 
ATOM     14  C   UNL     1       2.252   2.431  20.593  0.00  0.00    +0.000 A 
ATOM     15  C   UNL     1       3.266   3.136  19.965  0.00  0.00    +0.000 A 
ENDROOT
BRANCH   8  16
ATOM     16  S   UNL     1       6.505   3.886  16.008  0.00  0.00    +0.000 S 
ATOM     17  O   UNL     1       7.794   4.047  16.642  0.00  0.00    +0.000 OA
ATOM     18  O   UNL     1       5.762   2.645  16.076  0.00  0.00    +0.000 OA
BRANCH  16  19
ATOM     19  C   UNL     1       6.714   4.263  14.275  0.00  0.00    +0.000 A 
ATOM     20  C   UNL     1       5.964   3.580  13.315  0.00  0.00    +0.000 A 
ATOM     21  C   UNL     1       6.210   3.811  11.961  0.00  0.00    +0.000 A 
ATOM     22  C   UNL     1       7.179   4.740  11.574  0.00  0.00    +0.000 A 
ATOM     23  C   UNL     1       7.874   5.473  12.537  0.00  0.00    +0.000 A 
ATOM     24  C   UNL     1       7.639   5.241  13.893  0.00  0.00    +0.000 A 
ENDBRANCH  16  19
ENDBRANCH   8  16
TORSDOF 2
ENDMDL
MODEL 2
REMARK VINA RESULT:      -7.6      2.812      6.515
REMARK  Name = 
REMARK  2 active torsions:
REMARK  status: ('A' for Active; 'I' for Inactive)
REMARK    1  A    between atoms: N_8  and  S_9
REMARK    2  A    between atoms: S_9  and  C_12
REMARK                            x       y       z     vdW  Elec       q    Type
REMARK                         _______ _______ _______ _____ _____    ______ ____
ROOT
ATOM      1  O   UNL     1       7.540   4.489  18.568  0.00  0.00    +0.000 OA
ATOM      2  C   UNL     1       6.526   4.387  17.905  0.00  0.00    +0.000 C 
ATOM      3  O   UNL     1       5.269   4.144  18.361  0.00  0.00    +0.000 OA
ATOM      4  C   UNL     1       4.329   3.859  17.288  0.00  0.00    +0.000 C 
ATOM      5  C   UNL     1       3.837   2.419  17.505  0.00  0.00    +0.000 C 
ATOM      6  C   UNL     1       3.011   2.311  18.798  0.00  0.00    +0.000 C 
ATOM      7  C   UNL     1       1.858   3.314  18.823  0.00  0.00    +0.000 C 
ATOM      8  N   UNL     1       2.369   4.683  18.614  0.00  0.00    +0.000 NA
ATOM      9  C   UNL     1       3.147   4.850  17.359  0.00  0.00    +0.000 C 
ATOM     10  C   UNL     1       5.163   4.059  16.068  0.00  0.00    +0.000 A 
ATOM     11  C   UNL     1       4.869   3.965  14.714  0.00  0.00    +0.000 A 
ATOM     12  C   UNL     1       5.860   4.312  13.790  0.00  0.00    +0.000 A 
ATOM     13  C   UNL     1       7.128   4.756  14.210  0.00  0.00    +0.000 A 
ATOM     14  C   UNL     1       7.430   4.812  15.568  0.00  0.00    +0.000 A 
ATOM     15  C   UNL     1       6.434   4.443  16.458  0.00  0.00    +0.000 A 
ENDROOT
BRANCH   8  16
ATOM     16  S   UNL     1       2.831   5.591  19.981  0.00  0.00    +0.000 S 
ATOM     17  O   UNL     1       2.066   5.144  21.123  0.00  0.00    +0.000 OA
ATOM     18  O   UNL     1       4.275   5.698  20.013  0.00  0.00    +0.000 OA
BRANCH  16  19
ATOM     19  C   UNL     1       2.209   7.200  19.521  0.00  0.00    +0.000 A 
ATOM     20  C   UNL     1       1.523   7.979  20.457  0.00  0.00    +0.000 A 
ATOM     21  C   UNL     1       0.952   9.188  20.056  0.00  0.00    +0.000 A 
ATOM     22  C   UNL     1       1.095   9.626  18.738  0.00  0.00    +0.000 A 
ATOM     23  C   UNL     1       1.843   8.881  17.826  0.00  0.00    +0.000 A 
ATOM     24  C   UNL     1       2.409   7.666  18.217  0.00  0.00    +0.000 A 
ENDBRANCH  16  19
ENDBRANCH   8  16
TORSDOF 2
ENDMDL
MODEL 3
REMARK VINA RESULT:      -7.4      1.235      1.594
REMARK  Name = 
REMARK  2 active torsions:
REMARK  status: ('A' for Active; 'I' for Inactive)
REMARK    1  A    between atoms: N_8  and  S_9
REMARK    2  A    between atoms: S_9  and  C_12
REMARK                            x       y       z     vdW  Elec       q    Type
REMARK                         _______ _______ _______ _____ _____    ______ ____
ROOT
ATOM      1  O   UNL     1       5.351   2.990  20.348  0.00  0.00    +0.000 OA
ATOM      2  C   UNL     1       4.615   3.458  19.502  0.00  0.00    +0.000 C 
ATOM      3  O   UNL     1       4.898   4.468  18.638  0.00  0.00    +0.000 OA
ATOM      4  C   UNL     1       3.723   4.932  17.914  0.00  0.00    +0.000 C 
ATOM      5  C   UNL     1       3.505   6.397  18.322  0.00  0.00    +0.000 C 
ATOM      6  C   UNL     1       4.659   7.283  17.820  0.00  0.00    +0.000 C 
ATOM      7  C   UNL     1       4.873   7.139  16.314  0.00  0.00    +0.000 C 
ATOM      8  N   UNL     1       5.081   5.720  15.962  0.00  0.00    +0.000 NA
ATOM      9  C   UNL     1       3.976   4.826  16.394  0.00  0.00    +0.000 C 
ATOM     10  C   UNL     1       2.666   3.988  18.379  0.00  0.00    +0.000 A 
ATOM     11  C   UNL     1       1.320   3.868  18.059  0.00  0.00    +0.000 A 
ATOM     12  C   UNL     1       0.597   2.799  18.601  0.00  0.00    +0.000 A 
ATOM     13  C   UNL     1       1.212   1.856  19.446  0.00  0.00    +0.000 A 
ATOM     14  C   UNL     1       2.552   2.003  19.794  0.00  0.00    +0.000 A 
ATOM     15  C   UNL     1       3.234   3.082  19.257  0.00  0.00    +0.000 A 
ENDROOT
BRANCH   8  16
ATOM     16  S   UNL     1       6.672   5.109  15.973  0.00  0.00    +0.000 S 
ATOM     17  O   UNL     1       7.590   6.192  16.250  0.00  0.00    +0.000 OA
ATOM     18  O   UNL     1       6.697   3.867  16.716  0.00  0.00    +0.000 OA
BRANCH  16  19
ATOM     19  C   UNL     1       6.862   4.680  14.250  0.00  0.00    +0.000 A 
ATOM     20  C   UNL     1       7.761   5.387  13.448  0.00  0.00    +0.000 A 
ATOM     21  C   UNL     1       7.824   5.111  12.081  0.00  0.00    +0.000 A 
ATOM     22  C   UNL     1       7.016   4.114  11.531  0.00  0.00    +0.000 A 
ATOM     23  C   UNL     1       6.172   3.361  12.349  0.00  0.00    +0.000 A 
ATOM     24  C   UNL     1       6.098   3.638  13.715  0.00  0.00    +0.000 A 
ENDBRANCH  16  19
ENDBRANCH   8  16
TORSDOF 2
ENDMDL
MODEL 4
REMARK VINA RESULT:      -7.1      3.025      6.521
REMARK  Name = 
REMARK  2 active torsions:
REMARK  status: ('A' for Active; 'I' for Inactive)
REMARK    1  A    between atoms: N_8  and  S_9
REMARK    2  A    between atoms: S_9  and  C_12
REMARK                            x       y       z     vdW  Elec       q    Type
REMARK                         _______ _______ _______ _____ _____    ______ ____
ROOT
ATOM      1  O   UNL     1       7.148   4.609  19.127  0.00  0.00    +0.000 OA
ATOM      2  C   UNL     1       6.223   4.525  18.341  0.00  0.00    +0.000 C 
ATOM      3  O   UNL     1       4.913   4.320  18.638  0.00  0.00    +0.000 OA
ATOM      4  C   UNL     1       4.108   4.046  17.457  0.00  0.00    +0.000 C 
ATOM      5  C   UNL     1       3.555   2.623  17.621  0.00  0.00    +0.000 C 
ATOM      6  C   UNL     1       2.570   2.549  18.800  0.00  0.00    +0.000 C 
ATOM      7  C   UNL     1       1.450   3.582  18.671  0.00  0.00    +0.000 C 
ATOM      8  N   UNL     1       2.020   4.936  18.518  0.00  0.00    +0.000 NA
ATOM      9  C   UNL     1       2.953   5.068  17.370  0.00  0.00    +0.000 C 
ATOM     10  C   UNL     1       5.095   4.212  16.350  0.00  0.00    +0.000 A 
ATOM     11  C   UNL     1       4.971   4.110  14.970  0.00  0.00    +0.000 A 
ATOM     12  C   UNL     1       6.080   4.422  14.176  0.00  0.00    +0.000 A 
ATOM     13  C   UNL     1       7.296   4.838  14.750  0.00  0.00    +0.000 A 
ATOM     14  C   UNL     1       7.425   4.902  16.134  0.00  0.00    +0.000 A 
ATOM     15  C   UNL     1       6.316   4.568  16.894  0.00  0.00    +0.000 A 
ENDROOT
BRANCH   8  16
ATOM     16  S   UNL     1       2.330   5.846  19.925  0.00  0.00    +0.000 S 
ATOM     17  O   UNL     1       1.376   5.475  20.946  0.00  0.00    +0.000 OA
ATOM     18  O   UNL     1       3.756   5.866  20.173  0.00  0.00    +0.000 OA
BRANCH  16  19
ATOM     19  C   UNL     1       1.887   7.479  19.353  0.00  0.00    +0.000 A 
ATOM     20  C   UNL     1       2.267   7.899  18.076  0.00  0.00    +0.000 A 
ATOM     21  C   UNL     1       2.005   9.212  17.681  0.00  0.00    +0.000 A 
ATOM     22  C   UNL     1       1.342  10.085  18.546  0.00  0.00    +0.000 A 
ATOM     23  C   UNL     1       0.900   9.638  19.792  0.00  0.00    +0.000 A 
ATOM     24  C   UNL     1       1.165   8.329  20.197  0.00  0.00    +0.000 A 
ENDBRANCH  16  19
ENDBRANCH   8  16
TORSDOF 2
ENDMDL
MODEL 5
REMARK VINA RESULT:      -6.5      8.494     10.487
REMARK  Name = 
REMARK  2 active torsions:
REMARK  status: ('A' for Active; 'I' for Inactive)
REMARK    1  A    between atoms: N_8  and  S_9
REMARK    2  A    between atoms: S_9  and  C_12
REMARK                            x       y       z     vdW  Elec       q    Type
REMARK                         _______ _______ _______ _____ _____    ______ ____
ROOT
ATOM      1  O   UNL     1       0.360   8.910  22.216  0.00  0.00    +0.000 OA
ATOM      2  C   UNL     1       0.646   9.288  21.096  0.00  0.00    +0.000 C 
ATOM      3  O   UNL     1       0.299  10.466  20.515  0.00  0.00    +0.000 OA
ATOM      4  C   UNL     1       0.611  10.503  19.094  0.00  0.00    +0.000 C 
ATOM      5  C   UNL     1      -0.726  10.648  18.353  0.00  0.00    +0.000 C 
ATOM      6  C   UNL     1      -1.376  12.009  18.654  0.00  0.00    +0.000 C 
ATOM      7  C   UNL     1      -0.430  13.171  18.350  0.00  0.00    +0.000 C 
ATOM      8  N   UNL     1       0.841  12.998  19.081  0.00  0.00    +0.000 NA
ATOM      9  C   UNL     1       1.527  11.711  18.797  0.00  0.00    +0.000 C 
ATOM     10  C   UNL     1       1.307   9.201  18.884  0.00  0.00    +0.000 A 
ATOM     11  C   UNL     1       1.878   8.622  17.758  0.00  0.00    +0.000 A 
ATOM     12  C   UNL     1       2.555   7.406  17.902  0.00  0.00    +0.000 A 
ATOM     13  C   UNL     1       2.667   6.776  19.156  0.00  0.00    +0.000 A 
ATOM     14  C   UNL     1       2.060   7.342  20.274  0.00  0.00    +0.000 A 
ATOM     15  C   UNL     1       1.381   8.536  20.095  0.00  0.00    +0.000 A 
ENDROOT
BRANCH   8  16
ATOM     16  S   UNL     1       0.970  13.659  20.647  0.00  0.00    +0.000 S 
ATOM     17  O   UNL     1      -0.310  13.548  21.311  0.00  0.00    +0.000 OA
ATOM     18  O   UNL     1       2.198  13.195  21.257  0.00  0.00    +0.000 OA
BRANCH  16  19
ATOM     19  C   UNL     1       1.215  15.382  20.248  0.00  0.00    +0.000 A 
ATOM     20  C   UNL     1       0.481  16.365  20.916  0.00  0.00    +0.000 A 
ATOM     21  C   UNL     1       0.606  17.699  20.523  0.00  0.00    +0.000 A 
ATOM     22  C   UNL     1       1.481  18.046  19.492  0.00  0.00    +0.000 A 
ATOM     23  C   UNL     1       2.267  17.069  18.878  0.00  0.00    +0.000 A 
ATOM     24  C   UNL     1       2.140  15.732  19.259  0.00  0.00    +0.000 A 
ENDBRANCH  16  19
ENDBRANCH   8  16
TORSDOF 2
ENDMDL
MODEL 6
REMARK VINA RESULT:      -6.3      8.161     10.052
REMARK  Name = 
REMARK  2 active torsions:
REMARK  status: ('A' for Active; 'I' for Inactive)
REMARK    1  A    between atoms: N_8  and  S_9
REMARK    2  A    between atoms: S_9  and  C_12
REMARK                            x       y       z     vdW  Elec       q    Type
REMARK                         _______ _______ _______ _____ _____    ______ ____
ROOT
ATOM      1  O   UNL     1       0.437   9.198  22.293  0.00  0.00    +0.000 OA
ATOM      2  C   UNL     1       0.702   9.500  21.146  0.00  0.00    +0.000 C 
ATOM      3  O   UNL     1       0.385  10.658  20.509  0.00  0.00    +0.000 OA
ATOM      4  C   UNL     1       0.653  10.602  19.080  0.00  0.00    +0.000 C 
ATOM      5  C   UNL     1      -0.701  10.764  18.372  0.00  0.00    +0.000 C 
ATOM      6  C   UNL     1      -1.283  12.167  18.614  0.00  0.00    +0.000 C 
ATOM      7  C   UNL     1      -0.300  13.267  18.216  0.00  0.00    +0.000 C 
ATOM      8  N   UNL     1       0.986  13.080  18.917  0.00  0.00    +0.000 NA
ATOM      9  C   UNL     1       1.609  11.751  18.688  0.00  0.00    +0.000 C 
ATOM     10  C   UNL     1       1.287   9.261  18.924  0.00  0.00    +0.000 A 
ATOM     11  C   UNL     1       1.797   8.596  17.816  0.00  0.00    +0.000 A 
ATOM     12  C   UNL     1       2.426   7.362  18.009  0.00  0.00    +0.000 A 
ATOM     13  C   UNL     1       2.553   6.799  19.293  0.00  0.00    +0.000 A 
ATOM     14  C   UNL     1       2.006   7.452  20.395  0.00  0.00    +0.000 A 
ATOM     15  C   UNL     1       1.372   8.663  20.168  0.00  0.00    +0.000 A 
ENDROOT
BRANCH   8  16
ATOM     16  S   UNL     1       1.193  13.821  20.439  0.00  0.00    +0.000 S 
ATOM     17  O   UNL     1      -0.034  14.492  20.806  0.00  0.00    +0.000 OA
ATOM     18  O   UNL     1       1.862  12.896  21.329  0.00  0.00    +0.000 OA
BRANCH  16  19
ATOM     19  C   UNL     1       2.385  15.083  20.021  0.00  0.00    +0.000 A 
ATOM     20  C   UNL     1       2.313  15.731  18.785  0.00  0.00    +0.000 A 
ATOM     21  C   UNL     1       3.311  16.640  18.429  0.00  0.00    +0.000 A 
ATOM     22  C   UNL     1       4.352  16.919  19.316  0.00  0.00    +0.000 A 
ATOM     23  C   UNL     1       4.379  16.324  20.579  0.00  0.00    +0.000 A 
ATOM     24  C   UNL     1       3.390  15.408  20.938  0.00  0.00    +0.000 A 
ENDBRANCH  16  19
ENDBRANCH   8  16
TORSDOF 2
ENDMDL
MODEL 7
REMARK VINA RESULT:      -6.2     10.934     13.800
REMARK  Name = 
REMARK  2 active torsions:
REMARK  status: ('A' for Active; 'I' for Inactive)
REMARK    1  A    between atoms: N_8  and  S_9
REMARK    2  A    between atoms: S_9  and  C_12
REMARK                            x       y       z     vdW  Elec       q    Type
REMARK                         _______ _______ _______ _____ _____    ______ ____
ROOT
ATOM      1  O   UNL     1      -1.085  13.000  19.196  0.00  0.00    +0.000 OA
ATOM      2  C   UNL     1      -1.378  12.664  20.327  0.00  0.00    +0.000 C 
ATOM      3  O   UNL     1      -2.065  13.391  21.246  0.00  0.00    +0.000 OA
ATOM      4  C   UNL     1      -2.045  12.785  22.569  0.00  0.00    +0.000 C 
ATOM      5  C   UNL     1      -1.315  13.771  23.494  0.00  0.00    +0.000 C 
ATOM      6  C   UNL     1      -2.125  15.068  23.662  0.00  0.00    +0.000 C 
ATOM      7  C   UNL     1      -3.551  14.790  24.140  0.00  0.00    +0.000 C 
ATOM      8  N   UNL     1      -4.219  13.842  23.226  0.00  0.00    +0.000 NA
ATOM      9  C   UNL     1      -3.492  12.558  23.056  0.00  0.00    +0.000 C 
ATOM     10  C   UNL     1      -1.322  11.504  22.324  0.00  0.00    +0.000 A 
ATOM     11  C   UNL     1      -0.983  10.451  23.165  0.00  0.00    +0.000 A 
ATOM     12  C   UNL     1      -0.376   9.320  22.608  0.00  0.00    +0.000 A 
ATOM     13  C   UNL     1      -0.117   9.236  21.227  0.00  0.00    +0.000 A 
ATOM     14  C   UNL     1      -0.424  10.309  20.395  0.00  0.00    +0.000 A 
ATOM     15  C   UNL     1      -1.006  11.422  20.980  0.00  0.00    +0.000 A 
ENDROOT
BRANCH   8  16
ATOM     16  S   UNL     1      -5.077  14.471  21.894  0.00  0.00    +0.000 S 
ATOM     17  O   UNL     1      -6.053  15.426  22.372  0.00  0.00    +0.000 OA
ATOM     18  O   UNL     1      -4.143  14.788  20.835  0.00  0.00    +0.000 OA
BRANCH  16  19
ATOM     19  C   UNL     1      -5.969  13.015  21.372  0.00  0.00    +0.000 A 
ATOM     20  C   UNL     1      -5.603  12.354  20.197  0.00  0.00    +0.000 A 
ATOM     21  C   UNL     1      -6.372  11.281  19.746  0.00  0.00    +0.000 A 
ATOM     22  C   UNL     1      -7.479  10.855  20.483  0.00  0.00    +0.000 A 
ATOM     23  C   UNL     1      -7.798  11.472  21.693  0.00  0.00    +0.000 A 
ATOM     24  C   UNL     1      -7.039  12.552  22.146  0.00  0.00    +0.000 A 
ENDBRANCH  16  19
ENDBRANCH   8  16
TORSDOF 2
ENDMDL
MODEL 8
REMARK VINA RESULT:      -6.2      8.953     10.782
REMARK  Name = 
REMARK  2 active torsions:
REMARK  status: ('A' for Active; 'I' for Inactive)
REMARK    1  A    between atoms: N_8  and  S_9
REMARK    2  A    between atoms: S_9  and  C_12
REMARK                            x       y       z     vdW  Elec       q    Type
REMARK                         _______ _______ _______ _____ _____    ______ ____
ROOT
ATOM      1  O   UNL     1      -3.296  12.431  24.015  0.00  0.00    +0.000 OA
ATOM      2  C   UNL     1      -3.260  12.499  22.802  0.00  0.00    +0.000 C 
ATOM      3  O   UNL     1      -2.153  12.519  22.015  0.00  0.00    +0.000 OA
ATOM      4  C   UNL     1      -2.458  12.833  20.627  0.00  0.00    +0.000 C 
ATOM      5  C   UNL     1      -1.745  14.156  20.308  0.00  0.00    +0.000 C 
ATOM      6  C   UNL     1      -0.218  13.980  20.351  0.00  0.00    +0.000 C 
ATOM      7  C   UNL     1       0.250  12.848  19.435  0.00  0.00    +0.000 C 
ATOM      8  N   UNL     1      -0.454  11.595  19.773  0.00  0.00    +0.000 NA
ATOM      9  C   UNL     1      -1.935  11.703  19.713  0.00  0.00    +0.000 C 
ATOM     10  C   UNL     1      -3.948  12.910  20.635  0.00  0.00    +0.000 A 
ATOM     11  C   UNL     1      -4.873  13.156  19.628  0.00  0.00    +0.000 A 
ATOM     12  C   UNL     1      -6.235  13.066  19.936  0.00  0.00    +0.000 A 
ATOM     13  C   UNL     1      -6.671  12.728  21.231  0.00  0.00    +0.000 A 
ATOM     14  C   UNL     1      -5.740  12.520  22.245  0.00  0.00    +0.000 A 
ATOM     15  C   UNL     1      -4.400  12.635  21.913  0.00  0.00    +0.000 A 
ENDROOT
BRANCH   8  16
ATOM     16  S   UNL     1       0.238  10.569  20.944  0.00  0.00    +0.000 S 
ATOM     17  O   UNL     1       1.271  11.292  21.652  0.00  0.00    +0.000 OA
ATOM     18  O   UNL     1      -0.818   9.859  21.636  0.00  0.00    +0.000 OA
BRANCH  16  19
ATOM     19  C   UNL     1       1.049   9.379  19.889  0.00  0.00    +0.000 A 
ATOM     20  C   UNL     1       1.520   8.177  20.422  0.00  0.00    +0.000 A 
ATOM     21  C   UNL     1       2.243   7.303  19.609  0.00  0.00    +0.000 A 
ATOM     22  C   UNL     1       2.464   7.617  18.267  0.00  0.00    +0.000 A 
ATOM     23  C   UNL     1       1.928   8.784  17.720  0.00  0.00    +0.000 A 
ATOM     24  C   UNL     1       1.212   9.667  18.529  0.00  0.00    +0.000 A 
ENDBRANCH  16  19
ENDBRANCH   8  16
TORSDOF 2
ENDMDL
MODEL 9
REMARK VINA RESULT:      -6.2     11.105     13.494
REMARK  Name = 
REMARK  2 active torsions:
REMARK  status: ('A' for Active; 'I' for Inactive)
REMARK    1  A    between atoms: N_8  and  S_9
REMARK    2  A    between atoms: S_9  and  C_12
REMARK                            x       y       z     vdW  Elec       q    Type
REMARK                         _______ _______ _______ _____ _____    ______ ____
ROOT
ATOM      1  O   UNL     1      -2.632  17.706  19.324  0.00  0.00    +0.000 OA
ATOM      2  C   UNL     1      -1.520  17.231  19.199  0.00  0.00    +0.000 C 
ATOM      3  O   UNL     1      -0.930  16.306  20.000  0.00  0.00    +0.000 OA
ATOM      4  C   UNL     1       0.482  16.124  19.699  0.00  0.00    +0.000 C 
ATOM      5  C   UNL     1       1.258  16.553  20.954  0.00  0.00    +0.000 C 
ATOM      6  C   UNL     1       0.974  15.599  22.127  0.00  0.00    +0.000 C 
ATOM      7  C   UNL     1       1.255  14.143  21.756  0.00  0.00    +0.000 C 
ATOM      8  N   UNL     1       0.491  13.767  20.550  0.00  0.00    +0.000 NA
ATOM      9  C   UNL     1       0.756  14.639  19.376  0.00  0.00    +0.000 C 
ATOM     10  C   UNL     1       0.674  17.006  18.512  0.00  0.00    +0.000 A 
ATOM     11  C   UNL     1       1.784  17.276  17.722  0.00  0.00    +0.000 A 
ATOM     12  C   UNL     1       1.622  18.091  16.597  0.00  0.00    +0.000 A 
ATOM     13  C   UNL     1       0.365  18.627  16.258  0.00  0.00    +0.000 A 
ATOM     14  C   UNL     1      -0.736  18.384  17.074  0.00  0.00    +0.000 A 
ATOM     15  C   UNL     1      -0.539  17.589  18.191  0.00  0.00    +0.000 A 
ENDROOT
BRANCH   8  16
ATOM     16  S   UNL     1      -1.077  13.131  20.751  0.00  0.00    +0.000 S 
ATOM     17  O   UNL     1      -1.754  13.868  21.795  0.00  0.00    +0.000 OA
ATOM     18  O   UNL     1      -1.673  12.917  19.449  0.00  0.00    +0.000 OA
BRANCH  16  19
ATOM     19  C   UNL     1      -0.686  11.517  21.407  0.00  0.00    +0.000 A 
ATOM     20  C   UNL     1      -1.076  11.177  22.705  0.00  0.00    +0.000 A 
ATOM     21  C   UNL     1      -0.675   9.953  23.242  0.00  0.00    +0.000 A 
ATOM     22  C   UNL     1       0.084   9.067  22.474  0.00  0.00    +0.000 A 
ATOM     23  C   UNL     1       0.408   9.380  21.153  0.00  0.00    +0.000 A 
ATOM     24  C   UNL     1       0.017  10.606  20.613  0.00  0.00    +0.000 A 
ENDBRANCH  16  19
ENDBRANCH   8  16
TORSDOF 2
ENDMDL
