MODEL 1
REMARK VINA RESULT:      -6.8      0.000      0.000
REMARK  Name = 
REMARK  2 active torsions:
REMARK  status: ('A' for Active; 'I' for Inactive)
REMARK    1  A    between atoms: C_2  and  C_3
REMARK    2  A    between atoms: C_3  and  C_4
REMARK                            x       y       z     vdW  Elec       q    Type
REMARK                         _______ _______ _______ _____ _____    ______ ____
ROOT
ATOM      1  O   UNL     1       5.709   4.787  19.994  0.00  0.00    +0.000 OA
ATOM      2  C   UNL     1       5.203   4.322  18.967  0.00  0.00    +0.000 C 
ATOM      3  N   UNL     1       5.245   5.008  17.764  0.00  0.00    +0.000 N 
ATOM      4  C   UNL     1       6.019   6.251  17.673  0.00  0.00    +0.000 C 
ATOM      5  C   UNL     1       7.228   6.042  16.765  0.00  0.00    +0.000 C 
ATOM      6  N   UNL     1       6.814   5.343  15.562  0.00  0.00    +0.000 N 
ATOM      7  N   UNL     1       7.603   5.300  14.475  0.00  0.00    +0.000 NA
ATOM      8  C   UNL     1       6.903   4.560  13.611  0.00  0.00    +0.000 A 
ATOM      9  C   UNL     1       5.675   4.128  14.142  0.00  0.00    +0.000 A 
ATOM     10  C   UNL     1       5.645   4.644  15.422  0.00  0.00    +0.000 A 
ATOM     11  C   UNL     1       4.631   4.574  16.509  0.00  0.00    +0.000 C 
ENDROOT
BRANCH   2  12
ATOM     12  C   UNL     1       4.550   2.945  19.010  0.00  0.00    +0.000 C 
BRANCH  12  13
ATOM     13  C   UNL     1       3.219   2.942  19.701  0.00  0.00    +0.000 A 
ATOM     14  C   UNL     1       1.970   3.271  19.074  0.00  0.00    +0.000 A 
ATOM     15  C   UNL     1       0.910   3.243  19.953  0.00  0.00    +0.000 A 
ATOM     16  S   UNL     1       1.399   2.821  21.534  0.00  0.00    +0.000 S 
ATOM     17  C   UNL     1       3.030   2.673  21.045  0.00  0.00    +0.000 A 
ENDBRANCH  12  13
ENDBRANCH   2  12
TORSDOF 2
ENDMDL
MODEL 2
REMARK VINA RESULT:      -6.6      3.174      6.084
REMARK  Name = 
REMARK  2 active torsions:
REMARK  status: ('A' for Active; 'I' for Inactive)
REMARK    1  A    between atoms: C_2  and  C_3
REMARK    2  A    between atoms: C_3  and  C_4
REMARK                            x       y       z     vdW  Elec       q    Type
REMARK                         _______ _______ _______ _____ _____    ______ ____
ROOT
ATOM      1  O   UNL     1       5.001   3.659  16.049  0.00  0.00    +0.000 OA
ATOM      2  C   UNL     1       4.251   4.380  16.714  0.00  0.00    +0.000 C 
ATOM      3  N   UNL     1       3.120   3.873  17.332  0.00  0.00    +0.000 N 
ATOM      4  C   UNL     1       2.876   2.425  17.308  0.00  0.00    +0.000 C 
ATOM      5  C   UNL     1       3.018   1.854  18.716  0.00  0.00    +0.000 C 
ATOM      6  N   UNL     1       2.312   2.703  19.657  0.00  0.00    +0.000 N 
ATOM      7  N   UNL     1       2.022   2.278  20.898  0.00  0.00    +0.000 NA
ATOM      8  C   UNL     1       1.410   3.327  21.452  0.00  0.00    +0.000 A 
ATOM      9  C   UNL     1       1.311   4.420  20.574  0.00  0.00    +0.000 A 
ATOM     10  C   UNL     1       1.917   3.991  19.410  0.00  0.00    +0.000 A 
ATOM     11  C   UNL     1       2.139   4.647  18.093  0.00  0.00    +0.000 C 
ENDROOT
BRANCH   2  12
ATOM     12  C   UNL     1       4.592   5.855  16.895  0.00  0.00    +0.000 C 
BRANCH  12  13
ATOM     13  C   UNL     1       5.851   6.080  17.678  0.00  0.00    +0.000 A 
ATOM     14  C   UNL     1       6.837   7.079  17.377  0.00  0.00    +0.000 A 
ATOM     15  C   UNL     1       7.922   7.029  18.223  0.00  0.00    +0.000 A 
ATOM     16  S   UNL     1       7.770   5.789  19.387  0.00  0.00    +0.000 S 
ATOM     17  C   UNL     1       6.251   5.317  18.761  0.00  0.00    +0.000 A 
ENDBRANCH  12  13
ENDBRANCH   2  12
TORSDOF 2
ENDMDL
MODEL 3
REMARK VINA RESULT:      -6.6      0.839      1.021
REMARK  Name = 
REMARK  2 active torsions:
REMARK  status: ('A' for Active; 'I' for Inactive)
REMARK    1  A    between atoms: C_2  and  C_3
REMARK    2  A    between atoms: C_3  and  C_4
REMARK                            x       y       z     vdW  Elec       q    Type
REMARK                         _______ _______ _______ _____ _____    ______ ____
ROOT
ATOM      1  O   UNL     1       5.598   5.265  19.927  0.00  0.00    +0.000 OA
ATOM      2  C   UNL     1       5.171   4.637  18.952  0.00  0.00    +0.000 C 
ATOM      3  N   UNL     1       5.180   5.183  17.679  0.00  0.00    +0.000 N 
ATOM      4  C   UNL     1       5.829   6.481  17.458  0.00  0.00    +0.000 C 
ATOM      5  C   UNL     1       7.078   6.296  16.602  0.00  0.00    +0.000 C 
ATOM      6  N   UNL     1       6.772   5.425  15.481  0.00  0.00    +0.000 N 
ATOM      7  N   UNL     1       7.592   5.341  14.421  0.00  0.00    +0.000 NA
ATOM      8  C   UNL     1       6.995   4.440  13.636  0.00  0.00    +0.000 A 
ATOM      9  C   UNL     1       5.802   3.948  14.191  0.00  0.00    +0.000 A 
ATOM     10  C   UNL     1       5.683   4.599  15.403  0.00  0.00    +0.000 A 
ATOM     11  C   UNL     1       4.650   4.550  16.472  0.00  0.00    +0.000 C 
ENDROOT
BRANCH   2  12
ATOM     12  C   UNL     1       4.658   3.215  19.143  0.00  0.00    +0.000 C 
BRANCH  12  13
ATOM     13  C   UNL     1       3.167   3.136  19.286  0.00  0.00    +0.000 A 
ATOM     14  C   UNL     1       2.408   3.781  20.320  0.00  0.00    +0.000 A 
ATOM     15  C   UNL     1       1.063   3.495  20.250  0.00  0.00    +0.000 A 
ATOM     16  S   UNL     1       0.696   2.456  18.946  0.00  0.00    +0.000 S 
ATOM     17  C   UNL     1       2.337   2.388  18.471  0.00  0.00    +0.000 A 
ENDBRANCH  12  13
ENDBRANCH   2  12
TORSDOF 2
ENDMDL
MODEL 4
REMARK VINA RESULT:      -6.4      3.291      6.086
REMARK  Name = 
REMARK  2 active torsions:
REMARK  status: ('A' for Active; 'I' for Inactive)
REMARK    1  A    between atoms: C_2  and  C_3
REMARK    2  A    between atoms: C_3  and  C_4
REMARK                            x       y       z     vdW  Elec       q    Type
REMARK                         _______ _______ _______ _____ _____    ______ ____
ROOT
ATOM      1  O   UNL     1       5.351   3.468  16.059  0.00  0.00    +0.000 OA
ATOM      2  C   UNL     1       4.600   4.232  16.675  0.00  0.00    +0.000 C 
ATOM      3  N   UNL     1       3.542   3.753  17.429  0.00  0.00    +0.000 N 
ATOM      4  C   UNL     1       3.385   2.304  17.610  0.00  0.00    +0.000 C 
ATOM      5  C   UNL     1       3.647   1.933  19.066  0.00  0.00    +0.000 C 
ATOM      6  N   UNL     1       2.949   2.863  19.936  0.00  0.00    +0.000 N 
ATOM      7  N   UNL     1       2.762   2.592  21.238  0.00  0.00    +0.000 NA
ATOM      8  C   UNL     1       2.122   3.672  21.693  0.00  0.00    +0.000 A 
ATOM      9  C   UNL     1       1.904   4.632  20.689  0.00  0.00    +0.000 A 
ATOM     10  C   UNL     1       2.463   4.084  19.552  0.00  0.00    +0.000 A 
ATOM     11  C   UNL     1       2.564   4.569  18.149  0.00  0.00    +0.000 C 
ENDROOT
BRANCH   2  12
ATOM     12  C   UNL     1       4.862   5.733  16.640  0.00  0.00    +0.000 C 
BRANCH  12  13
ATOM     13  C   UNL     1       6.087   6.139  17.405  0.00  0.00    +0.000 A 
ATOM     14  C   UNL     1       6.680   5.377  18.467  0.00  0.00    +0.000 A 
ATOM     15  C   UNL     1       7.763   6.009  19.036  0.00  0.00    +0.000 A 
ATOM     16  S   UNL     1       8.082   7.517  18.302  0.00  0.00    +0.000 S 
ATOM     17  C   UNL     1       6.771   7.327  17.221  0.00  0.00    +0.000 A 
ENDBRANCH  12  13
ENDBRANCH   2  12
TORSDOF 2
ENDMDL
MODEL 5
REMARK VINA RESULT:      -6.4      3.220      6.212
REMARK  Name = 
REMARK  2 active torsions:
REMARK  status: ('A' for Active; 'I' for Inactive)
REMARK    1  A    between atoms: C_2  and  C_3
REMARK    2  A    between atoms: C_3  and  C_4
REMARK                            x       y       z     vdW  Elec       q    Type
REMARK                         _______ _______ _______ _____ _____    ______ ____
ROOT
ATOM      1  O   UNL     1       5.205   6.787  15.394  0.00  0.00    +0.000 OA
ATOM      2  C   UNL     1       5.671   5.968  16.194  0.00  0.00    +0.000 C 
ATOM      3  N   UNL     1       5.103   5.773  17.442  0.00  0.00    +0.000 N 
ATOM      4  C   UNL     1       3.846   6.453  17.774  0.00  0.00    +0.000 C 
ATOM      5  C   UNL     1       2.722   5.430  17.904  0.00  0.00    +0.000 C 
ATOM      6  N   UNL     1       3.181   4.304  18.697  0.00  0.00    +0.000 N 
ATOM      7  N   UNL     1       2.315   3.416  19.214  0.00  0.00    +0.000 NA
ATOM      8  C   UNL     1       3.104   2.538  19.838  0.00  0.00    +0.000 A 
ATOM      9  C   UNL     1       4.468   2.858  19.718  0.00  0.00    +0.000 A 
ATOM     10  C   UNL     1       4.493   4.011  18.959  0.00  0.00    +0.000 A 
ATOM     11  C   UNL     1       5.606   4.874  18.481  0.00  0.00    +0.000 C 
ENDROOT
BRANCH   2  12
ATOM     12  C   UNL     1       6.874   5.124  15.789  0.00  0.00    +0.000 C 
BRANCH  12  13
ATOM     13  C   UNL     1       6.792   4.612  14.382  0.00  0.00    +0.000 A 
ATOM     14  C   UNL     1       7.617   5.062  13.297  0.00  0.00    +0.000 A 
ATOM     15  C   UNL     1       7.293   4.467  12.098  0.00  0.00    +0.000 A 
ATOM     16  S   UNL     1       6.000   3.363  12.261  0.00  0.00    +0.000 S 
ATOM     17  C   UNL     1       5.873   3.679  13.936  0.00  0.00    +0.000 A 
ENDBRANCH  12  13
ENDBRANCH   2  12
TORSDOF 2
ENDMDL
MODEL 6
REMARK VINA RESULT:      -6.2      1.971      2.905
REMARK  Name = 
REMARK  2 active torsions:
REMARK  status: ('A' for Active; 'I' for Inactive)
REMARK    1  A    between atoms: C_2  and  C_3
REMARK    2  A    between atoms: C_3  and  C_4
REMARK                            x       y       z     vdW  Elec       q    Type
REMARK                         _______ _______ _______ _____ _____    ______ ____
ROOT
ATOM      1  O   UNL     1       3.235   3.492  16.612  0.00  0.00    +0.000 OA
ATOM      2  C   UNL     1       4.233   3.572  17.337  0.00  0.00    +0.000 C 
ATOM      3  N   UNL     1       5.375   4.237  16.924  0.00  0.00    +0.000 N 
ATOM      4  C   UNL     1       5.359   4.975  15.655  0.00  0.00    +0.000 C 
ATOM      5  C   UNL     1       5.459   6.473  15.927  0.00  0.00    +0.000 C 
ATOM      6  N   UNL     1       6.501   6.718  16.908  0.00  0.00    +0.000 N 
ATOM      7  N   UNL     1       7.001   7.951  17.101  0.00  0.00    +0.000 NA
ATOM      8  C   UNL     1       7.895   7.776  18.077  0.00  0.00    +0.000 A 
ATOM      9  C   UNL     1       7.966   6.440  18.510  0.00  0.00    +0.000 A 
ATOM     10  C   UNL     1       7.038   5.770  17.738  0.00  0.00    +0.000 A 
ATOM     11  C   UNL     1       6.624   4.342  17.678  0.00  0.00    +0.000 C 
ENDROOT
BRANCH   2  12
ATOM     12  C   UNL     1       4.197   2.960  18.732  0.00  0.00    +0.000 C 
BRANCH  12  13
ATOM     13  C   UNL     1       3.130   3.545  19.609  0.00  0.00    +0.000 A 
ATOM     14  C   UNL     1       2.046   2.803  20.187  0.00  0.00    +0.000 A 
ATOM     15  C   UNL     1       1.178   3.597  20.902  0.00  0.00    +0.000 A 
ATOM     16  S   UNL     1       1.652   5.237  20.889  0.00  0.00    +0.000 S 
ATOM     17  C   UNL     1       3.022   4.887  19.928  0.00  0.00    +0.000 A 
ENDBRANCH  12  13
ENDBRANCH   2  12
TORSDOF 2
ENDMDL
MODEL 7
REMARK VINA RESULT:      -6.2      2.544      3.442
REMARK  Name = 
REMARK  2 active torsions:
REMARK  status: ('A' for Active; 'I' for Inactive)
REMARK    1  A    between atoms: C_2  and  C_3
REMARK    2  A    between atoms: C_3  and  C_4
REMARK                            x       y       z     vdW  Elec       q    Type
REMARK                         _______ _______ _______ _____ _____    ______ ____
ROOT
ATOM      1  O   UNL     1       2.321   3.568  16.972  0.00  0.00    +0.000 OA
ATOM      2  C   UNL     1       3.136   3.847  17.857  0.00  0.00    +0.000 C 
ATOM      3  N   UNL     1       4.486   3.990  17.580  0.00  0.00    +0.000 N 
ATOM      4  C   UNL     1       4.942   3.940  16.185  0.00  0.00    +0.000 C 
ATOM      5  C   UNL     1       5.449   5.313  15.758  0.00  0.00    +0.000 C 
ATOM      6  N   UNL     1       6.308   5.857  16.794  0.00  0.00    +0.000 N 
ATOM      7  N   UNL     1       7.119   6.900  16.551  0.00  0.00    +0.000 NA
ATOM      8  C   UNL     1       7.711   7.116  17.728  0.00  0.00    +0.000 A 
ATOM      9  C   UNL     1       7.279   6.219  18.722  0.00  0.00    +0.000 A 
ATOM     10  C   UNL     1       6.355   5.413  18.089  0.00  0.00    +0.000 A 
ATOM     11  C   UNL     1       5.538   4.262  18.559  0.00  0.00    +0.000 C 
ENDROOT
BRANCH   2  12
ATOM     12  C   UNL     1       2.647   4.078  19.282  0.00  0.00    +0.000 C 
BRANCH  12  13
ATOM     13  C   UNL     1       2.295   5.508  19.563  0.00  0.00    +0.000 A 
ATOM     14  C   UNL     1       2.587   6.611  18.691  0.00  0.00    +0.000 A 
ATOM     15  C   UNL     1       2.206   7.824  19.220  0.00  0.00    +0.000 A 
ATOM     16  S   UNL     1       1.493   7.654  20.762  0.00  0.00    +0.000 S 
ATOM     17  C   UNL     1       1.693   5.957  20.725  0.00  0.00    +0.000 A 
ENDBRANCH  12  13
ENDBRANCH   2  12
TORSDOF 2
ENDMDL
MODEL 8
REMARK VINA RESULT:      -6.2      3.375      5.973
REMARK  Name = 
REMARK  2 active torsions:
REMARK  status: ('A' for Active; 'I' for Inactive)
REMARK    1  A    between atoms: C_2  and  C_3
REMARK    2  A    between atoms: C_3  and  C_4
REMARK                            x       y       z     vdW  Elec       q    Type
REMARK                         _______ _______ _______ _____ _____    ______ ____
ROOT
ATOM      1  O   UNL     1       5.735   6.950  16.294  0.00  0.00    +0.000 OA
ATOM      2  C   UNL     1       5.866   5.806  16.743  0.00  0.00    +0.000 C 
ATOM      3  N   UNL     1       5.023   5.314  17.726  0.00  0.00    +0.000 N 
ATOM      4  C   UNL     1       3.870   6.116  18.152  0.00  0.00    +0.000 C 
ATOM      5  C   UNL     1       2.577   5.433  17.719  0.00  0.00    +0.000 C 
ATOM      6  N   UNL     1       2.647   4.018  18.036  0.00  0.00    +0.000 N 
ATOM      7  N   UNL     1       1.545   3.249  18.040  0.00  0.00    +0.000 NA
ATOM      8  C   UNL     1       2.012   2.036  18.344  0.00  0.00    +0.000 A 
ATOM      9  C   UNL     1       3.406   2.025  18.529  0.00  0.00    +0.000 A 
ATOM     10  C   UNL     1       3.799   3.330  18.312  0.00  0.00    +0.000 A 
ATOM     11  C   UNL     1       5.126   4.001  18.363  0.00  0.00    +0.000 C 
ENDROOT
BRANCH   2  12
ATOM     12  C   UNL     1       6.952   4.898  16.178  0.00  0.00    +0.000 C 
BRANCH  12  13
ATOM     13  C   UNL     1       6.767   4.587  14.723  0.00  0.00    +0.000 A 
ATOM     14  C   UNL     1       5.744   3.731  14.191  0.00  0.00    +0.000 A 
ATOM     15  C   UNL     1       5.838   3.572  12.827  0.00  0.00    +0.000 A 
ATOM     16  S   UNL     1       7.149   4.447  12.169  0.00  0.00    +0.000 S 
ATOM     17  C   UNL     1       7.592   5.041  13.710  0.00  0.00    +0.000 A 
ENDBRANCH  12  13
ENDBRANCH   2  12
TORSDOF 2
ENDMDL
MODEL 9
REMARK VINA RESULT:      -6.1      1.916      2.898
REMARK  Name = 
REMARK  2 active torsions:
REMARK  status: ('A' for Active; 'I' for Inactive)
REMARK    1  A    between atoms: C_2  and  C_3
REMARK    2  A    between atoms: C_3  and  C_4
REMARK                            x       y       z     vdW  Elec       q    Type
REMARK                         _______ _______ _______ _____ _____    ______ ____
ROOT
ATOM      1  O   UNL     1       3.507   3.563  16.791  0.00  0.00    +0.000 OA
ATOM      2  C   UNL     1       4.525   3.687  17.481  0.00  0.00    +0.000 C 
ATOM      3  N   UNL     1       5.618   4.411  17.034  0.00  0.00    +0.000 N 
ATOM      4  C   UNL     1       5.520   5.157  15.774  0.00  0.00    +0.000 C 
ATOM      5  C   UNL     1       5.556   6.655  16.056  0.00  0.00    +0.000 C 
ATOM      6  N   UNL     1       6.620   6.944  17.001  0.00  0.00    +0.000 N 
ATOM      7  N   UNL     1       7.065   8.198  17.187  0.00  0.00    +0.000 NA
ATOM      8  C   UNL     1       8.001   8.060  18.129  0.00  0.00    +0.000 A 
ATOM      9  C   UNL     1       8.153   6.727  18.547  0.00  0.00    +0.000 A 
ATOM     10  C   UNL     1       7.231   6.018  17.803  0.00  0.00    +0.000 A 
ATOM     11  C   UNL     1       6.887   4.572  17.744  0.00  0.00    +0.000 C 
ENDROOT
BRANCH   2  12
ATOM     12  C   UNL     1       4.570   3.064  18.871  0.00  0.00    +0.000 C 
BRANCH  12  13
ATOM     13  C   UNL     1       3.356   3.370  19.697  0.00  0.00    +0.000 A 
ATOM     14  C   UNL     1       2.987   4.678  20.159  0.00  0.00    +0.000 A 
ATOM     15  C   UNL     1       1.858   4.666  20.947  0.00  0.00    +0.000 A 
ATOM     16  S   UNL     1       1.228   3.091  21.139  0.00  0.00    +0.000 S 
ATOM     17  C   UNL     1       2.465   2.422  20.167  0.00  0.00    +0.000 A 
ENDBRANCH  12  13
ENDBRANCH   2  12
TORSDOF 2
ENDMDL
