MODEL 1
REMARK VINA RESULT:      -8.3      0.000      0.000
REMARK  Name = 
REMARK  8 active torsions:
REMARK  status: ('A' for Active; 'I' for Inactive)
REMARK    1  A    between atoms: C_1  and  C_2
REMARK    2  A    between atoms: C_4  and  C_5
REMARK    3  A    between atoms: C_6  and  C_7
REMARK    4  A    between atoms: C_9  and  C_10
REMARK    5  A    between atoms: C_14  and  C_15
REMARK    6  A    between atoms: C_18  and  C_19
REMARK    7  A    between atoms: C_23  and  C_24
REMARK    8  A    between atoms: C_27  and  C_28
REMARK                            x       y       z     vdW  Elec       q    Type
REMARK                         _______ _______ _______ _____ _____    ______ ____
ROOT
ATOM      1  C   UNL     1       0.672   4.533  20.452  0.00  0.00    +0.000 C 
ATOM      2  C   UNL     1       1.832   4.575  19.497  0.00  0.00    +0.000 A 
ATOM      3  C   UNL     1       2.286   3.350  18.983  0.00  0.00    +0.000 A 
ATOM      4  C   UNL     1       3.371   3.255  18.093  0.00  0.00    +0.000 A 
ATOM      5  C   UNL     1       3.758   1.864  17.661  0.00  0.00    +0.000 C 
ATOM      6  C   UNL     1       4.025   4.434  17.676  0.00  0.00    +0.000 A 
ATOM      7  C   UNL     1       3.596   5.656  18.233  0.00  0.00    +0.000 A 
ATOM      8  C   UNL     1       2.503   5.749  19.122  0.00  0.00    +0.000 A 
ENDROOT
BRANCH   6   9
ATOM      9  C   UNL     1       5.106   4.446  16.673  0.00  0.00    +0.000 A 
ATOM     10  N   UNL     1       4.868   4.403  15.314  0.00  0.00    +0.000 N 
ATOM     11  C   UNL     1       6.053   4.424  14.637  0.00  0.00    +0.000 A 
ATOM     12  N   UNL     1       7.058   4.559  15.466  0.00  0.00    +0.000 NA
ATOM     13  C   UNL     1       6.487   4.591  16.722  0.00  0.00    +0.000 A 
ATOM     14  H   UNL     1       3.970   4.358  14.862  0.00  0.00    +0.000 HD
BRANCH  11  15
ATOM     15  C   UNL     1       6.211   4.308  13.133  0.00  0.00    +0.000 C 
ATOM     16  C   UNL     1       6.397   2.927  12.532  0.00  0.00    +0.000 C 
ATOM     17  C   UNL     1       5.121   3.660  12.305  0.00  0.00    +0.000 C 
ENDBRANCH  11  15
BRANCH  13  18
ATOM     18  C   UNL     1       7.322   4.787  17.870  0.00  0.00    +0.000 C 
ATOM     19  N   UNL     1       7.949   4.962  18.834  0.00  0.00    +0.000 NA
ENDBRANCH  13  18
ENDBRANCH   6   9
BRANCH   8  20
ATOM     20  C   UNL     1       2.141   7.101  19.677  0.00  0.00    +0.000 C 
ATOM     21  O   UNL     1       1.690   7.213  20.813  0.00  0.00    +0.000 OA
ATOM     22  N   UNL     1       2.397   8.196  18.866  0.00  0.00    +0.000 N 
ATOM     23  C   UNL     1       2.194   9.599  19.222  0.00  0.00    +0.000 C 
ATOM     24  C   UNL     1       1.405   9.767  17.912  0.00  0.00    +0.000 C 
ATOM     25  C   UNL     1       1.919   8.378  17.493  0.00  0.00    +0.000 C 
BRANCH  24  26
ATOM     26  C   UNL     1      -0.172   9.993  17.973  0.00  0.00    +0.000 A 
ATOM     27  C   UNL     1      -1.019   9.478  16.969  0.00  0.00    +0.000 A 
ATOM     28  C   UNL     1      -2.398   9.702  16.976  0.00  0.00    +0.000 A 
ATOM     29  C   UNL     1      -2.973  10.452  18.003  0.00  0.00    +0.000 A 
ATOM     30  C   UNL     1      -2.169  10.953  19.026  0.00  0.00    +0.000 A 
ATOM     31  C   UNL     1      -0.795  10.718  19.009  0.00  0.00    +0.000 A 
BRANCH  29  32
ATOM     32  C   UNL     1      -4.379  10.711  18.003  0.00  0.00    +0.000 C 
ATOM     33  N   UNL     1      -5.523  10.919  18.005  0.00  0.00    +0.000 NA
ENDBRANCH  29  32
ENDBRANCH  24  26
ENDBRANCH   8  20
TORSDOF 6
ENDMDL
MODEL 2
REMARK VINA RESULT:      -8.2      2.809      4.459
REMARK  Name = 
REMARK  8 active torsions:
REMARK  status: ('A' for Active; 'I' for Inactive)
REMARK    1  A    between atoms: C_1  and  C_2
REMARK    2  A    between atoms: C_4  and  C_5
REMARK    3  A    between atoms: C_6  and  C_7
REMARK    4  A    between atoms: C_9  and  C_10
REMARK    5  A    between atoms: C_14  and  C_15
REMARK    6  A    between atoms: C_18  and  C_19
REMARK    7  A    between atoms: C_23  and  C_24
REMARK    8  A    between atoms: C_27  and  C_28
REMARK                            x       y       z     vdW  Elec       q    Type
REMARK                         _______ _______ _______ _____ _____    ______ ____
ROOT
ATOM      1  C   UNL     1      -0.189   9.140  22.144  0.00  0.00    +0.000 C 
ATOM      2  C   UNL     1       0.669   8.442  21.125  0.00  0.00    +0.000 A 
ATOM      3  C   UNL     1       1.089   7.137  21.424  0.00  0.00    +0.000 A 
ATOM      4  C   UNL     1       1.905   6.385  20.560  0.00  0.00    +0.000 A 
ATOM      5  C   UNL     1       2.299   5.012  21.043  0.00  0.00    +0.000 C 
ATOM      6  C   UNL     1       2.308   6.947  19.329  0.00  0.00    +0.000 A 
ATOM      7  C   UNL     1       1.923   8.275  19.057  0.00  0.00    +0.000 A 
ATOM      8  C   UNL     1       1.099   9.026  19.923  0.00  0.00    +0.000 A 
ENDROOT
BRANCH   6   9
ATOM      9  C   UNL     1       3.079   6.203  18.316  0.00  0.00    +0.000 A 
ATOM     10  N   UNL     1       4.322   6.607  17.874  0.00  0.00    +0.000 N 
ATOM     11  C   UNL     1       4.789   5.728  16.941  0.00  0.00    +0.000 A 
ATOM     12  N   UNL     1       3.962   4.723  16.797  0.00  0.00    +0.000 NA
ATOM     13  C   UNL     1       2.913   4.994  17.652  0.00  0.00    +0.000 A 
ATOM     14  H   UNL     1       4.830   7.423  18.173  0.00  0.00    +0.000 HD
BRANCH  11  15
ATOM     15  C   UNL     1       6.082   5.873  16.163  0.00  0.00    +0.000 C 
ATOM     16  C   UNL     1       7.268   5.018  16.570  0.00  0.00    +0.000 C 
ATOM     17  C   UNL     1       6.570   4.739  15.285  0.00  0.00    +0.000 C 
ENDBRANCH  11  15
BRANCH  13  18
ATOM     18  C   UNL     1       1.844   4.047  17.777  0.00  0.00    +0.000 C 
ATOM     19  N   UNL     1       1.016   3.241  17.906  0.00  0.00    +0.000 NA
ENDBRANCH  13  18
ENDBRANCH   6   9
BRANCH   8  20
ATOM     20  C   UNL     1       0.766  10.446  19.548  0.00  0.00    +0.000 C 
ATOM     21  O   UNL     1       1.404  11.384  20.014  0.00  0.00    +0.000 OA
ATOM     22  N   UNL     1      -0.248  10.621  18.618  0.00  0.00    +0.000 N 
ATOM     23  C   UNL     1      -0.689  11.897  18.056  0.00  0.00    +0.000 C 
ATOM     24  C   UNL     1      -2.131  11.506  18.429  0.00  0.00    +0.000 C 
ATOM     25  C   UNL     1      -1.608  10.087  18.719  0.00  0.00    +0.000 C 
BRANCH  24  26
ATOM     26  C   UNL     1      -2.872  12.285  19.606  0.00  0.00    +0.000 A 
ATOM     27  C   UNL     1      -2.151  12.801  20.703  0.00  0.00    +0.000 A 
ATOM     28  C   UNL     1      -2.783  13.445  21.768  0.00  0.00    +0.000 A 
ATOM     29  C   UNL     1      -4.170  13.598  21.762  0.00  0.00    +0.000 A 
ATOM     30  C   UNL     1      -4.911  13.126  20.679  0.00  0.00    +0.000 A 
ATOM     31  C   UNL     1      -4.267  12.487  19.621  0.00  0.00    +0.000 A 
BRANCH  29  32
ATOM     32  C   UNL     1      -4.828  14.232  22.861  0.00  0.00    +0.000 C 
ATOM     33  N   UNL     1      -5.362  14.745  23.758  0.00  0.00    +0.000 NA
ENDBRANCH  29  32
ENDBRANCH  24  26
ENDBRANCH   8  20
TORSDOF 6
ENDMDL
MODEL 3
REMARK VINA RESULT:      -8.0      3.573     11.878
REMARK  Name = 
REMARK  8 active torsions:
REMARK  status: ('A' for Active; 'I' for Inactive)
REMARK    1  A    between atoms: C_1  and  C_2
REMARK    2  A    between atoms: C_4  and  C_5
REMARK    3  A    between atoms: C_6  and  C_7
REMARK    4  A    between atoms: C_9  and  C_10
REMARK    5  A    between atoms: C_14  and  C_15
REMARK    6  A    between atoms: C_18  and  C_19
REMARK    7  A    between atoms: C_23  and  C_24
REMARK    8  A    between atoms: C_27  and  C_28
REMARK                            x       y       z     vdW  Elec       q    Type
REMARK                         _______ _______ _______ _____ _____    ______ ____
ROOT
ATOM      1  C   UNL     1      -2.168   9.768  16.881  0.00  0.00    +0.000 C 
ATOM      2  C   UNL     1      -2.953  10.708  17.754  0.00  0.00    +0.000 A 
ATOM      3  C   UNL     1      -4.335  10.791  17.529  0.00  0.00    +0.000 A 
ATOM      4  C   UNL     1      -5.176  11.642  18.268  0.00  0.00    +0.000 A 
ATOM      5  C   UNL     1      -6.632  11.643  17.880  0.00  0.00    +0.000 C 
ATOM      6  C   UNL     1      -4.621  12.436  19.295  0.00  0.00    +0.000 A 
ATOM      7  C   UNL     1      -3.225  12.384  19.483  0.00  0.00    +0.000 A 
ATOM      8  C   UNL     1      -2.384  11.525  18.744  0.00  0.00    +0.000 A 
ENDROOT
BRANCH   6   9
ATOM      9  C   UNL     1      -5.433  13.285  20.187  0.00  0.00    +0.000 A 
ATOM     10  N   UNL     1      -5.452  13.129  21.558  0.00  0.00    +0.000 N 
ATOM     11  C   UNL     1      -6.290  14.049  22.116  0.00  0.00    +0.000 A 
ATOM     12  N   UNL     1      -6.767  14.856  21.202  0.00  0.00    +0.000 NA
ATOM     13  C   UNL     1      -6.233  14.407  20.011  0.00  0.00    +0.000 A 
ATOM     14  H   UNL     1      -4.939  12.447  22.092  0.00  0.00    +0.000 HD
BRANCH  11  15
ATOM     15  C   UNL     1      -6.640  14.144  23.588  0.00  0.00    +0.000 C 
ATOM     16  C   UNL     1      -7.915  13.477  24.071  0.00  0.00    +0.000 C 
ATOM     17  C   UNL     1      -6.596  12.906  24.460  0.00  0.00    +0.000 C 
ENDBRANCH  11  15
BRANCH  13  18
ATOM     18  C   UNL     1      -6.518  15.117  18.799  0.00  0.00    +0.000 C 
ATOM     19  N   UNL     1      -6.702  15.663  17.789  0.00  0.00    +0.000 NA
ENDBRANCH  13  18
ENDBRANCH   6   9
BRANCH   8  20
ATOM     20  C   UNL     1      -0.903  11.565  19.009  0.00  0.00    +0.000 C 
ATOM     21  O   UNL     1      -0.142  12.138  18.236  0.00  0.00    +0.000 OA
ATOM     22  N   UNL     1      -0.466  10.975  20.186  0.00  0.00    +0.000 N 
ATOM     23  C   UNL     1       0.910  10.957  20.680  0.00  0.00    +0.000 C 
ATOM     24  C   UNL     1       0.775   9.434  20.857  0.00  0.00    +0.000 C 
ATOM     25  C   UNL     1      -0.736   9.599  20.609  0.00  0.00    +0.000 C 
BRANCH  24  26
ATOM     26  C   UNL     1       1.588   8.460  19.893  0.00  0.00    +0.000 A 
ATOM     27  C   UNL     1       2.033   7.199  20.340  0.00  0.00    +0.000 A 
ATOM     28  C   UNL     1       2.786   6.347  19.530  0.00  0.00    +0.000 A 
ATOM     29  C   UNL     1       3.115   6.738  18.231  0.00  0.00    +0.000 A 
ATOM     30  C   UNL     1       2.667   7.966  17.746  0.00  0.00    +0.000 A 
ATOM     31  C   UNL     1       1.912   8.805  18.565  0.00  0.00    +0.000 A 
BRANCH  29  32
ATOM     32  C   UNL     1       3.910   5.886  17.403  0.00  0.00    +0.000 C 
ATOM     33  N   UNL     1       4.558   5.192  16.732  0.00  0.00    +0.000 NA
ENDBRANCH  29  32
ENDBRANCH  24  26
ENDBRANCH   8  20
TORSDOF 6
ENDMDL
MODEL 4
REMARK VINA RESULT:      -7.9      3.652     11.464
REMARK  Name = 
REMARK  8 active torsions:
REMARK  status: ('A' for Active; 'I' for Inactive)
REMARK    1  A    between atoms: C_1  and  C_2
REMARK    2  A    between atoms: C_4  and  C_5
REMARK    3  A    between atoms: C_6  and  C_7
REMARK    4  A    between atoms: C_9  and  C_10
REMARK    5  A    between atoms: C_14  and  C_15
REMARK    6  A    between atoms: C_18  and  C_19
REMARK    7  A    between atoms: C_23  and  C_24
REMARK    8  A    between atoms: C_27  and  C_28
REMARK                            x       y       z     vdW  Elec       q    Type
REMARK                         _______ _______ _______ _____ _____    ______ ____
ROOT
ATOM      1  C   UNL     1      -1.690   9.826  17.030  0.00  0.00    +0.000 C 
ATOM      2  C   UNL     1      -2.276  10.702  18.102  0.00  0.00    +0.000 A 
ATOM      3  C   UNL     1      -3.616  11.091  17.952  0.00  0.00    +0.000 A 
ATOM      4  C   UNL     1      -4.274  11.921  18.877  0.00  0.00    +0.000 A 
ATOM      5  C   UNL     1      -5.703  12.277  18.555  0.00  0.00    +0.000 C 
ATOM      6  C   UNL     1      -3.575  12.371  20.018  0.00  0.00    +0.000 A 
ATOM      7  C   UNL     1      -2.216  12.017  20.138  0.00  0.00    +0.000 A 
ATOM      8  C   UNL     1      -1.559  11.180  19.210  0.00  0.00    +0.000 A 
ENDROOT
BRANCH   6   9
ATOM      9  C   UNL     1      -4.206  13.161  21.092  0.00  0.00    +0.000 A 
ATOM     10  N   UNL     1      -5.039  12.605  22.042  0.00  0.00    +0.000 N 
ATOM     11  C   UNL     1      -5.472  13.574  22.900  0.00  0.00    +0.000 A 
ATOM     12  N   UNL     1      -4.912  14.724  22.620  0.00  0.00    +0.000 NA
ATOM     13  C   UNL     1      -4.116  14.480  21.520  0.00  0.00    +0.000 A 
ATOM     14  H   UNL     1      -5.307  11.638  22.113  0.00  0.00    +0.000 HD
BRANCH  11  15
ATOM     15  C   UNL     1      -6.465  13.372  24.027  0.00  0.00    +0.000 C 
ATOM     16  C   UNL     1      -7.916  13.744  23.785  0.00  0.00    +0.000 C 
ATOM     17  C   UNL     1      -7.538  12.309  23.911  0.00  0.00    +0.000 C 
ENDBRANCH  11  15
BRANCH  13  18
ATOM     18  C   UNL     1      -3.310  15.537  20.984  0.00  0.00    +0.000 C 
ATOM     19  N   UNL     1      -2.612  16.354  20.540  0.00  0.00    +0.000 NA
ENDBRANCH  13  18
ENDBRANCH   6   9
BRANCH   8  20
ATOM     20  C   UNL     1      -0.098  10.882  19.419  0.00  0.00    +0.000 C 
ATOM     21  O   UNL     1       0.738  11.229  18.591  0.00  0.00    +0.000 OA
ATOM     22  N   UNL     1       0.245  10.255  20.607  0.00  0.00    +0.000 N 
ATOM     23  C   UNL     1       1.600   9.935  21.052  0.00  0.00    +0.000 C 
ATOM     24  C   UNL     1       1.123   8.494  21.311  0.00  0.00    +0.000 C 
ATOM     25  C   UNL     1      -0.318   8.999  21.110  0.00  0.00    +0.000 C 
BRANCH  24  26
ATOM     26  C   UNL     1       1.641   7.318  20.367  0.00  0.00    +0.000 A 
ATOM     27  C   UNL     1       1.505   5.967  20.749  0.00  0.00    +0.000 A 
ATOM     28  C   UNL     1       1.993   4.922  19.962  0.00  0.00    +0.000 A 
ATOM     29  C   UNL     1       2.633   5.204  18.754  0.00  0.00    +0.000 A 
ATOM     30  C   UNL     1       2.759   6.527  18.332  0.00  0.00    +0.000 A 
ATOM     31  C   UNL     1       2.264   7.560  19.127  0.00  0.00    +0.000 A 
BRANCH  29  32
ATOM     32  C   UNL     1       3.160   4.142  17.955  0.00  0.00    +0.000 C 
ATOM     33  N   UNL     1       3.588   3.276  17.307  0.00  0.00    +0.000 NA
ENDBRANCH  29  32
ENDBRANCH  24  26
ENDBRANCH   8  20
TORSDOF 6
ENDMDL
MODEL 5
REMARK VINA RESULT:      -7.9      3.632     11.911
REMARK  Name = 
REMARK  8 active torsions:
REMARK  status: ('A' for Active; 'I' for Inactive)
REMARK    1  A    between atoms: C_1  and  C_2
REMARK    2  A    between atoms: C_4  and  C_5
REMARK    3  A    between atoms: C_6  and  C_7
REMARK    4  A    between atoms: C_9  and  C_10
REMARK    5  A    between atoms: C_14  and  C_15
REMARK    6  A    between atoms: C_18  and  C_19
REMARK    7  A    between atoms: C_23  and  C_24
REMARK    8  A    between atoms: C_27  and  C_28
REMARK                            x       y       z     vdW  Elec       q    Type
REMARK                         _______ _______ _______ _____ _____    ______ ____
ROOT
ATOM      1  C   UNL     1      -1.980   9.981  16.840  0.00  0.00    +0.000 C 
ATOM      2  C   UNL     1      -2.804  10.829  17.769  0.00  0.00    +0.000 A 
ATOM      3  C   UNL     1      -4.173  10.948  17.484  0.00  0.00    +0.000 A 
ATOM      4  C   UNL     1      -5.047  11.724  18.268  0.00  0.00    +0.000 A 
ATOM      5  C   UNL     1      -6.482  11.779  17.810  0.00  0.00    +0.000 C 
ATOM      6  C   UNL     1      -4.542  12.397  19.401  0.00  0.00    +0.000 A 
ATOM      7  C   UNL     1      -3.158  12.313  19.653  0.00  0.00    +0.000 A 
ATOM      8  C   UNL     1      -2.284  11.530  18.868  0.00  0.00    +0.000 A 
ENDROOT
BRANCH   6   9
ATOM      9  C   UNL     1      -5.395  13.152  20.338  0.00  0.00    +0.000 A 
ATOM     10  N   UNL     1      -5.290  14.517  20.515  0.00  0.00    +0.000 N 
ATOM     11  C   UNL     1      -6.202  14.934  21.440  0.00  0.00    +0.000 A 
ATOM     12  N   UNL     1      -6.958  13.937  21.828  0.00  0.00    +0.000 NA
ATOM     13  C   UNL     1      -6.483  12.838  21.143  0.00  0.00    +0.000 A 
ATOM     14  H   UNL     1      -4.646  15.135  20.049  0.00  0.00    +0.000 HD
BRANCH  11  15
ATOM     15  C   UNL     1      -6.341  16.350  21.964  0.00  0.00    +0.000 C 
ATOM     16  C   UNL     1      -7.553  17.160  21.542  0.00  0.00    +0.000 C 
ATOM     17  C   UNL     1      -7.440  16.689  22.950  0.00  0.00    +0.000 C 
ENDBRANCH  11  15
BRANCH  13  18
ATOM     18  C   UNL     1      -7.137  11.572  21.303  0.00  0.00    +0.000 C 
ATOM     19  N   UNL     1      -7.639  10.526  21.381  0.00  0.00    +0.000 NA
ENDBRANCH  13  18
ENDBRANCH   6   9
BRANCH   8  20
ATOM     20  C   UNL     1      -0.817  11.528  19.210  0.00  0.00    +0.000 C 
ATOM     21  O   UNL     1      -0.012  12.148  18.523  0.00  0.00    +0.000 OA
ATOM     22  N   UNL     1      -0.447  10.842  20.357  0.00  0.00    +0.000 N 
ATOM     23  C   UNL     1       0.901  10.765  20.917  0.00  0.00    +0.000 C 
ATOM     24  C   UNL     1       0.741   9.235  20.967  0.00  0.00    +0.000 C 
ATOM     25  C   UNL     1      -0.753   9.441  20.657  0.00  0.00    +0.000 C 
BRANCH  24  26
ATOM     26  C   UNL     1       1.592   8.328  19.970  0.00  0.00    +0.000 A 
ATOM     27  C   UNL     1       2.061   7.057  20.366  0.00  0.00    +0.000 A 
ATOM     28  C   UNL     1       2.848   6.264  19.528  0.00  0.00    +0.000 A 
ATOM     29  C   UNL     1       3.185   6.724  18.255  0.00  0.00    +0.000 A 
ATOM     30  C   UNL     1       2.715   7.962  17.820  0.00  0.00    +0.000 A 
ATOM     31  C   UNL     1       1.928   8.742  18.666  0.00  0.00    +0.000 A 
BRANCH  29  32
ATOM     32  C   UNL     1       4.014   5.931  17.400  0.00  0.00    +0.000 C 
ATOM     33  N   UNL     1       4.686   5.283  16.706  0.00  0.00    +0.000 NA
ENDBRANCH  29  32
ENDBRANCH  24  26
ENDBRANCH   8  20
TORSDOF 6
ENDMDL
MODEL 6
REMARK VINA RESULT:      -7.8      3.560     11.786
REMARK  Name = 
REMARK  8 active torsions:
REMARK  status: ('A' for Active; 'I' for Inactive)
REMARK    1  A    between atoms: C_1  and  C_2
REMARK    2  A    between atoms: C_4  and  C_5
REMARK    3  A    between atoms: C_6  and  C_7
REMARK    4  A    between atoms: C_9  and  C_10
REMARK    5  A    between atoms: C_14  and  C_15
REMARK    6  A    between atoms: C_18  and  C_19
REMARK    7  A    between atoms: C_23  and  C_24
REMARK    8  A    between atoms: C_27  and  C_28
REMARK                            x       y       z     vdW  Elec       q    Type
REMARK                         _______ _______ _______ _____ _____    ______ ____
ROOT
ATOM      1  C   UNL     1      -1.724   9.794  17.074  0.00  0.00    +0.000 C 
ATOM      2  C   UNL     1      -2.555  10.739  17.897  0.00  0.00    +0.000 A 
ATOM      3  C   UNL     1      -3.892  10.923  17.509  0.00  0.00    +0.000 A 
ATOM      4  C   UNL     1      -4.767  11.790  18.188  0.00  0.00    +0.000 A 
ATOM      5  C   UNL     1      -6.161  11.904  17.625  0.00  0.00    +0.000 C 
ATOM      6  C   UNL     1      -4.300  12.494  19.319  0.00  0.00    +0.000 A 
ATOM      7  C   UNL     1      -2.944  12.342  19.673  0.00  0.00    +0.000 A 
ATOM      8  C   UNL     1      -2.069  11.467  18.994  0.00  0.00    +0.000 A 
ENDROOT
BRANCH   6   9
ATOM      9  C   UNL     1      -5.167  13.348  20.152  0.00  0.00    +0.000 A 
ATOM     10  N   UNL     1      -5.061  14.724  20.180  0.00  0.00    +0.000 N 
ATOM     11  C   UNL     1      -5.987  15.241  21.038  0.00  0.00    +0.000 A 
ATOM     12  N   UNL     1      -6.752  14.293  21.520  0.00  0.00    +0.000 NA
ATOM     13  C   UNL     1      -6.269  13.125  20.968  0.00  0.00    +0.000 A 
ATOM     14  H   UNL     1      -4.407  15.286  19.661  0.00  0.00    +0.000 HD
BRANCH  11  15
ATOM     15  C   UNL     1      -6.130  16.706  21.402  0.00  0.00    +0.000 C 
ATOM     16  C   UNL     1      -6.616  17.669  20.334  0.00  0.00    +0.000 C 
ATOM     17  C   UNL     1      -7.505  17.336  21.481  0.00  0.00    +0.000 C 
ENDBRANCH  11  15
BRANCH  13  18
ATOM     18  C   UNL     1      -6.929  11.885  21.255  0.00  0.00    +0.000 C 
ATOM     19  N   UNL     1      -7.476  10.873  21.426  0.00  0.00    +0.000 NA
ENDBRANCH  13  18
ENDBRANCH   6   9
BRANCH   8  20
ATOM     20  C   UNL     1      -0.633  11.397  19.440  0.00  0.00    +0.000 C 
ATOM     21  O   UNL     1       0.238  12.030  18.852  0.00  0.00    +0.000 OA
ATOM     22  N   UNL     1      -0.368  10.634  20.567  0.00  0.00    +0.000 N 
ATOM     23  C   UNL     1       0.932  10.481  21.218  0.00  0.00    +0.000 C 
ATOM     24  C   UNL     1       0.726   8.957  21.163  0.00  0.00    +0.000 C 
ATOM     25  C   UNL     1      -0.735   9.229  20.759  0.00  0.00    +0.000 C 
BRANCH  24  26
ATOM     26  C   UNL     1       1.623   8.082  20.178  0.00  0.00    +0.000 A 
ATOM     27  C   UNL     1       1.979   8.562  18.900  0.00  0.00    +0.000 A 
ATOM     28  C   UNL     1       2.725   7.797  18.001  0.00  0.00    +0.000 A 
ATOM     29  C   UNL     1       3.144   6.516  18.364  0.00  0.00    +0.000 A 
ATOM     30  C   UNL     1       2.834   6.020  19.630  0.00  0.00    +0.000 A 
ATOM     31  C   UNL     1       2.092   6.798  20.518  0.00  0.00    +0.000 A 
BRANCH  29  32
ATOM     32  C   UNL     1       3.883   5.713  17.440  0.00  0.00    +0.000 C 
ATOM     33  N   UNL     1       4.482   5.060  16.687  0.00  0.00    +0.000 NA
ENDBRANCH  29  32
ENDBRANCH  24  26
ENDBRANCH   8  20
TORSDOF 6
ENDMDL
MODEL 7
REMARK VINA RESULT:      -7.7      3.431     11.495
REMARK  Name = 
REMARK  8 active torsions:
REMARK  status: ('A' for Active; 'I' for Inactive)
REMARK    1  A    between atoms: C_1  and  C_2
REMARK    2  A    between atoms: C_4  and  C_5
REMARK    3  A    between atoms: C_6  and  C_7
REMARK    4  A    between atoms: C_9  and  C_10
REMARK    5  A    between atoms: C_14  and  C_15
REMARK    6  A    between atoms: C_18  and  C_19
REMARK    7  A    between atoms: C_23  and  C_24
REMARK    8  A    between atoms: C_27  and  C_28
REMARK                            x       y       z     vdW  Elec       q    Type
REMARK                         _______ _______ _______ _____ _____    ______ ____
ROOT
ATOM      1  C   UNL     1      -1.244   9.630  17.174  0.00  0.00    +0.000 C 
ATOM      2  C   UNL     1      -2.018  10.572  18.053  0.00  0.00    +0.000 A 
ATOM      3  C   UNL     1      -3.303  10.942  17.624  0.00  0.00    +0.000 A 
ATOM      4  C   UNL     1      -4.120  11.827  18.350  0.00  0.00    +0.000 A 
ATOM      5  C   UNL     1      -5.458  12.153  17.738  0.00  0.00    +0.000 C 
ATOM      6  C   UNL     1      -3.649  12.356  19.572  0.00  0.00    +0.000 A 
ATOM      7  C   UNL     1      -2.340  12.018  19.972  0.00  0.00    +0.000 A 
ATOM      8  C   UNL     1      -1.523  11.126  19.244  0.00  0.00    +0.000 A 
ENDROOT
BRANCH   6   9
ATOM      9  C   UNL     1      -4.468  13.211  20.450  0.00  0.00    +0.000 A 
ATOM     10  N   UNL     1      -4.185  14.543  20.677  0.00  0.00    +0.000 N 
ATOM     11  C   UNL     1      -5.109  15.073  21.529  0.00  0.00    +0.000 A 
ATOM     12  N   UNL     1      -6.034  14.191  21.816  0.00  0.00    +0.000 NA
ATOM     13  C   UNL     1      -5.661  13.045  21.144  0.00  0.00    +0.000 A 
ATOM     14  H   UNL     1      -3.418  15.068  20.291  0.00  0.00    +0.000 HD
BRANCH  11  15
ATOM     15  C   UNL     1      -5.091  16.485  22.081  0.00  0.00    +0.000 C 
ATOM     16  C   UNL     1      -4.472  16.716  23.448  0.00  0.00    +0.000 C 
ATOM     17  C   UNL     1      -3.776  17.222  22.232  0.00  0.00    +0.000 C 
ENDBRANCH  11  15
BRANCH  13  18
ATOM     18  C   UNL     1      -6.502  11.886  21.206  0.00  0.00    +0.000 C 
ATOM     19  N   UNL     1      -7.191  10.949  21.194  0.00  0.00    +0.000 NA
ENDBRANCH  13  18
ENDBRANCH   6   9
BRANCH   8  20
ATOM     20  C   UNL     1      -0.132  10.851  19.748  0.00  0.00    +0.000 C 
ATOM     21  O   UNL     1       0.841  11.384  19.225  0.00  0.00    +0.000 OA
ATOM     22  N   UNL     1      -0.023  10.021  20.853  0.00  0.00    +0.000 N 
ATOM     23  C   UNL     1       1.214   9.675  21.552  0.00  0.00    +0.000 C 
ATOM     24  C   UNL     1       0.814   8.194  21.425  0.00  0.00    +0.000 C 
ATOM     25  C   UNL     1      -0.578   8.670  20.971  0.00  0.00    +0.000 C 
BRANCH  24  26
ATOM     26  C   UNL     1       1.636   7.244  20.444  0.00  0.00    +0.000 A 
ATOM     27  C   UNL     1       1.835   5.881  20.749  0.00  0.00    +0.000 A 
ATOM     28  C   UNL     1       2.590   5.040  19.929  0.00  0.00    +0.000 A 
ATOM     29  C   UNL     1       3.168   5.545  18.764  0.00  0.00    +0.000 A 
ATOM     30  C   UNL     1       2.969   6.880  18.416  0.00  0.00    +0.000 A 
ATOM     31  C   UNL     1       2.209   7.707  19.243  0.00  0.00    +0.000 A 
BRANCH  29  32
ATOM     32  C   UNL     1       3.967   4.698  17.933  0.00  0.00    +0.000 C 
ATOM     33  N   UNL     1       4.617   4.012  17.255  0.00  0.00    +0.000 NA
ENDBRANCH  29  32
ENDBRANCH  24  26
ENDBRANCH   8  20
TORSDOF 6
ENDMDL
MODEL 8
REMARK VINA RESULT:      -7.7      3.757     11.981
REMARK  Name = 
REMARK  8 active torsions:
REMARK  status: ('A' for Active; 'I' for Inactive)
REMARK    1  A    between atoms: C_1  and  C_2
REMARK    2  A    between atoms: C_4  and  C_5
REMARK    3  A    between atoms: C_6  and  C_7
REMARK    4  A    between atoms: C_9  and  C_10
REMARK    5  A    between atoms: C_14  and  C_15
REMARK    6  A    between atoms: C_18  and  C_19
REMARK    7  A    between atoms: C_23  and  C_24
REMARK    8  A    between atoms: C_27  and  C_28
REMARK                            x       y       z     vdW  Elec       q    Type
REMARK                         _______ _______ _______ _____ _____    ______ ____
ROOT
ATOM      1  C   UNL     1      -2.554  10.959  16.254  0.00  0.00    +0.000 C 
ATOM      2  C   UNL     1      -3.377  11.455  17.410  0.00  0.00    +0.000 A 
ATOM      3  C   UNL     1      -4.770  11.478  17.244  0.00  0.00    +0.000 A 
ATOM      4  C   UNL     1      -5.647  11.933  18.245  0.00  0.00    +0.000 A 
ATOM      5  C   UNL     1      -7.114  11.929  17.899  0.00  0.00    +0.000 C 
ATOM      6  C   UNL     1      -5.117  12.368  19.480  0.00  0.00    +0.000 A 
ATOM      7  C   UNL     1      -3.715  12.388  19.622  0.00  0.00    +0.000 A 
ATOM      8  C   UNL     1      -2.837  11.926  18.618  0.00  0.00    +0.000 A 
ENDROOT
BRANCH   6   9
ATOM      9  C   UNL     1      -5.958  12.769  20.623  0.00  0.00    +0.000 A 
ATOM     10  N   UNL     1      -5.969  14.052  21.133  0.00  0.00    +0.000 N 
ATOM     11  C   UNL     1      -6.838  14.124  22.182  0.00  0.00    +0.000 A 
ATOM     12  N   UNL     1      -7.462  12.984  22.347  0.00  0.00    +0.000 NA
ATOM     13  C   UNL     1      -6.942  12.147  21.381  0.00  0.00    +0.000 A 
ATOM     14  H   UNL     1      -5.427  14.833  20.804  0.00  0.00    +0.000 HD
BRANCH  11  15
ATOM     15  C   UNL     1      -7.066  15.343  23.054  0.00  0.00    +0.000 C 
ATOM     16  C   UNL     1      -5.882  15.924  23.806  0.00  0.00    +0.000 C 
ATOM     17  C   UNL     1      -6.467  16.678  22.663  0.00  0.00    +0.000 C 
ENDBRANCH  11  15
BRANCH  13  18
ATOM     18  C   UNL     1      -7.458  10.816  21.251  0.00  0.00    +0.000 C 
ATOM     19  N   UNL     1      -7.823   9.719  21.122  0.00  0.00    +0.000 NA
ENDBRANCH  13  18
ENDBRANCH   6   9
BRANCH   8  20
ATOM     20  C   UNL     1      -1.354  12.013  18.863  0.00  0.00    +0.000 C 
ATOM     21  O   UNL     1      -0.603  12.472  18.008  0.00  0.00    +0.000 OA
ATOM     22  N   UNL     1      -0.905  11.604  20.109  0.00  0.00    +0.000 N 
ATOM     23  C   UNL     1       0.474  11.666  20.590  0.00  0.00    +0.000 C 
ATOM     24  C   UNL     1       0.351  10.184  20.988  0.00  0.00    +0.000 C 
ATOM     25  C   UNL     1      -1.162  10.302  20.731  0.00  0.00    +0.000 C 
BRANCH  24  26
ATOM     26  C   UNL     1       1.165   9.085  20.169  0.00  0.00    +0.000 A 
ATOM     27  C   UNL     1       1.495   9.287  18.813  0.00  0.00    +0.000 A 
ATOM     28  C   UNL     1       2.166   8.320  18.061  0.00  0.00    +0.000 A 
ATOM     29  C   UNL     1       2.534   7.112  18.656  0.00  0.00    +0.000 A 
ATOM     30  C   UNL     1       2.249   6.891  20.003  0.00  0.00    +0.000 A 
ATOM     31  C   UNL     1       1.581   7.867  20.742  0.00  0.00    +0.000 A 
BRANCH  29  32
ATOM     32  C   UNL     1       3.196   6.105  17.888  0.00  0.00    +0.000 C 
ATOM     33  N   UNL     1       3.735   5.287  17.260  0.00  0.00    +0.000 NA
ENDBRANCH  29  32
ENDBRANCH  24  26
ENDBRANCH   8  20
TORSDOF 6
ENDMDL
MODEL 9
REMARK VINA RESULT:      -7.7      3.572     11.435
REMARK  Name = 
REMARK  8 active torsions:
REMARK  status: ('A' for Active; 'I' for Inactive)
REMARK    1  A    between atoms: C_1  and  C_2
REMARK    2  A    between atoms: C_4  and  C_5
REMARK    3  A    between atoms: C_6  and  C_7
REMARK    4  A    between atoms: C_9  and  C_10
REMARK    5  A    between atoms: C_14  and  C_15
REMARK    6  A    between atoms: C_18  and  C_19
REMARK    7  A    between atoms: C_23  and  C_24
REMARK    8  A    between atoms: C_27  and  C_28
REMARK                            x       y       z     vdW  Elec       q    Type
REMARK                         _______ _______ _______ _____ _____    ______ ____
ROOT
ATOM      1  C   UNL     1      -1.322   9.719  17.300  0.00  0.00    +0.000 C 
ATOM      2  C   UNL     1      -2.037  10.680  18.208  0.00  0.00    +0.000 A 
ATOM      3  C   UNL     1      -3.334  11.068  17.841  0.00  0.00    +0.000 A 
ATOM      4  C   UNL     1      -4.101  11.971  18.598  0.00  0.00    +0.000 A 
ATOM      5  C   UNL     1      -5.463  12.314  18.050  0.00  0.00    +0.000 C 
ATOM      6  C   UNL     1      -3.562  12.501  19.791  0.00  0.00    +0.000 A 
ATOM      7  C   UNL     1      -2.240  12.146  20.129  0.00  0.00    +0.000 A 
ATOM      8  C   UNL     1      -1.475  11.235  19.369  0.00  0.00    +0.000 A 
ENDROOT
BRANCH   6   9
ATOM      9  C   UNL     1      -4.323  13.376  20.701  0.00  0.00    +0.000 A 
ATOM     10  N   UNL     1      -5.409  12.937  21.431  0.00  0.00    +0.000 N 
ATOM     11  C   UNL     1      -5.909  13.962  22.179  0.00  0.00    +0.000 A 
ATOM     12  N   UNL     1      -5.169  15.035  22.047  0.00  0.00    +0.000 NA
ATOM     13  C   UNL     1      -4.179  14.683  21.154  0.00  0.00    +0.000 A 
ATOM     14  H   UNL     1      -5.798  12.008  21.429  0.00  0.00    +0.000 HD
BRANCH  11  15
ATOM     15  C   UNL     1      -7.149  13.896  23.049  0.00  0.00    +0.000 C 
ATOM     16  C   UNL     1      -7.916  12.587  23.111  0.00  0.00    +0.000 C 
ATOM     17  C   UNL     1      -7.149  13.045  24.303  0.00  0.00    +0.000 C 
ENDBRANCH  11  15
BRANCH  13  18
ATOM     18  C   UNL     1      -3.154  15.630  20.827  0.00  0.00    +0.000 C 
ATOM     19  N   UNL     1      -2.289  16.376  20.608  0.00  0.00    +0.000 NA
ENDBRANCH  13  18
ENDBRANCH   6   9
BRANCH   8  20
ATOM     20  C   UNL     1      -0.064  10.942  19.806  0.00  0.00    +0.000 C 
ATOM     21  O   UNL     1       0.890  11.468  19.241  0.00  0.00    +0.000 OA
ATOM     22  N   UNL     1       0.087  10.103  20.899  0.00  0.00    +0.000 N 
ATOM     23  C   UNL     1       1.351   9.739  21.538  0.00  0.00    +0.000 C 
ATOM     24  C   UNL     1       0.929   8.264  21.421  0.00  0.00    +0.000 C 
ATOM     25  C   UNL     1      -0.477   8.758  21.035  0.00  0.00    +0.000 C 
BRANCH  24  26
ATOM     26  C   UNL     1       1.693   7.311  20.397  0.00  0.00    +0.000 A 
ATOM     27  C   UNL     1       2.195   7.810  19.176  0.00  0.00    +0.000 A 
ATOM     28  C   UNL     1       2.827   6.987  18.242  0.00  0.00    +0.000 A 
ATOM     29  C   UNL     1       2.981   5.626  18.510  0.00  0.00    +0.000 A 
ATOM     30  C   UNL     1       2.522   5.104  19.719  0.00  0.00    +0.000 A 
ATOM     31  C   UNL     1       1.897   5.939  20.644  0.00  0.00    +0.000 A 
BRANCH  29  32
ATOM     32  C   UNL     1       3.601   4.769  17.548  0.00  0.00    +0.000 C 
ATOM     33  N   UNL     1       4.106   4.070  16.767  0.00  0.00    +0.000 NA
ENDBRANCH  29  32
ENDBRANCH  24  26
ENDBRANCH   8  20
TORSDOF 6
ENDMDL
