MODEL 1
REMARK VINA RESULT:      -7.0      0.000      0.000
REMARK  Name = 
REMARK  5 active torsions:
REMARK  status: ('A' for Active; 'I' for Inactive)
REMARK    1  A    between atoms: C_1  and  C_2
REMARK    2  A    between atoms: C_2  and  C_3
REMARK    3  A    between atoms: C_9  and  O_10
REMARK    4  A    between atoms: C_11  and  C_12
REMARK    5  A    between atoms: C_12  and  N_13
REMARK                            x       y       z     vdW  Elec       q    Type
REMARK                         _______ _______ _______ _____ _____    ______ ____
ROOT
ATOM      1  C   UNL     1       2.487  10.553  18.130  0.00  0.00    +0.000 C 
ATOM      2  C   UNL     1       1.555   9.369  18.445  0.00  0.00    +0.000 C 
ATOM      3  C   UNL     1       0.456   9.286  17.373  0.00  0.00    +0.000 C 
ATOM      4  O   UNL     1       2.385   8.201  18.253  0.00  0.00    +0.000 OA
ATOM      5  C   UNL     1       2.284   7.144  19.117  0.00  0.00    +0.000 A 
ATOM      6  C   UNL     1       1.656   7.276  20.368  0.00  0.00    +0.000 A 
ATOM      7  C   UNL     1       1.652   6.173  21.232  0.00  0.00    +0.000 A 
ATOM      8  C   UNL     1       2.263   4.975  20.874  0.00  0.00    +0.000 A 
ATOM      9  C   UNL     1       2.900   4.868  19.643  0.00  0.00    +0.000 A 
ATOM     10  C   UNL     1       2.919   5.935  18.730  0.00  0.00    +0.000 A 
ATOM     11  C   UNL     1       1.032   8.550  20.768  0.00  0.00    +0.000 C 
ATOM     12  C   UNL     1       0.943   9.522  19.836  0.00  0.00    +0.000 C 
ATOM     13  C   UNL     1       0.197  10.811  20.135  0.00  0.00    +0.000 C 
ATOM     14  C   UNL     1      -0.766  10.693  21.317  0.00  0.00    +0.000 C 
ATOM     15  C   UNL     1      -0.039  10.099  22.510  0.00  0.00    +0.000 C 
ATOM     16  C   UNL     1       0.490   8.705  22.173  0.00  0.00    +0.000 C 
ENDROOT
BRANCH   9  17
ATOM     17  O   UNL     1       3.553   3.703  19.344  0.00  0.00    +0.000 OA
ATOM     18  H   UNL     1       3.036   3.223  18.675  0.00  0.00    +0.000 HD
ENDBRANCH   9  17
BRANCH  10  19
ATOM     19  C   UNL     1       3.735   5.831  17.450  0.00  0.00    +0.000 C 
BRANCH  19  20
ATOM     20  N   UNL     1       5.007   5.100  17.405  0.00  0.00    +0.000 NA
ATOM     21  C   UNL     1       6.181   5.747  17.990  0.00  0.00    +0.000 C 
ATOM     22  C   UNL     1       7.053   6.541  17.004  0.00  0.00    +0.000 C 
ATOM     23  O   UNL     1       7.355   5.800  15.812  0.00  0.00    +0.000 OA
ATOM     24  C   UNL     1       6.151   5.335  15.186  0.00  0.00    +0.000 C 
ATOM     25  C   UNL     1       5.348   4.449  16.144  0.00  0.00    +0.000 C 
ENDBRANCH  19  20
ENDBRANCH  10  19
TORSDOF 3
ENDMDL
MODEL 2
REMARK VINA RESULT:      -6.7      2.364      4.294
REMARK  Name = 
REMARK  5 active torsions:
REMARK  status: ('A' for Active; 'I' for Inactive)
REMARK    1  A    between atoms: C_1  and  C_2
REMARK    2  A    between atoms: C_2  and  C_3
REMARK    3  A    between atoms: C_9  and  O_10
REMARK    4  A    between atoms: C_11  and  C_12
REMARK    5  A    between atoms: C_12  and  N_13
REMARK                            x       y       z     vdW  Elec       q    Type
REMARK                         _______ _______ _______ _____ _____    ______ ____
ROOT
ATOM      1  C   UNL     1      -0.685   8.517  22.306  0.00  0.00    +0.000 C 
ATOM      2  C   UNL     1       0.645   8.997  21.698  0.00  0.00    +0.000 C 
ATOM      3  C   UNL     1       1.629   9.337  22.830  0.00  0.00    +0.000 C 
ATOM      4  O   UNL     1       1.183   7.826  21.043  0.00  0.00    +0.000 OA
ATOM      5  C   UNL     1       1.798   7.948  19.827  0.00  0.00    +0.000 A 
ATOM      6  C   UNL     1       1.639   9.099  19.035  0.00  0.00    +0.000 A 
ATOM      7  C   UNL     1       2.240   9.126  17.770  0.00  0.00    +0.000 A 
ATOM      8  C   UNL     1       2.969   8.041  17.294  0.00  0.00    +0.000 A 
ATOM      9  C   UNL     1       3.098   6.902  18.080  0.00  0.00    +0.000 A 
ATOM     10  C   UNL     1       2.533   6.825  19.364  0.00  0.00    +0.000 A 
ATOM     11  C   UNL     1       0.843  10.242  19.519  0.00  0.00    +0.000 C 
ATOM     12  C   UNL     1       0.416  10.210  20.797  0.00  0.00    +0.000 C 
ATOM     13  C   UNL     1      -0.294  11.408  21.404  0.00  0.00    +0.000 C 
ATOM     14  C   UNL     1      -0.057  12.706  20.631  0.00  0.00    +0.000 C 
ATOM     15  C   UNL     1      -0.349  12.485  19.158  0.00  0.00    +0.000 C 
ATOM     16  C   UNL     1       0.572  11.406  18.589  0.00  0.00    +0.000 C 
ENDROOT
BRANCH   9  17
ATOM     17  O   UNL     1       3.761   5.822  17.562  0.00  0.00    +0.000 OA
ATOM     18  H   UNL     1       4.705   5.907  17.778  0.00  0.00    +0.000 HD
ENDBRANCH   9  17
BRANCH  10  19
ATOM     19  C   UNL     1       2.579   5.520  20.143  0.00  0.00    +0.000 C 
BRANCH  19  20
ATOM     20  N   UNL     1       1.499   4.530  20.052  0.00  0.00    +0.000 NA
ATOM     21  C   UNL     1       1.430   3.505  21.094  0.00  0.00    +0.000 C 
ATOM     22  C   UNL     1       2.141   2.182  20.761  0.00  0.00    +0.000 C 
ATOM     23  O   UNL     1       1.800   1.683  19.459  0.00  0.00    +0.000 OA
ATOM     24  C   UNL     1       2.051   2.677  18.455  0.00  0.00    +0.000 C 
ATOM     25  C   UNL     1       1.246   3.950  18.737  0.00  0.00    +0.000 C 
ENDBRANCH  19  20
ENDBRANCH  10  19
TORSDOF 3
ENDMDL
MODEL 3
REMARK VINA RESULT:      -6.7      0.617      1.084
REMARK  Name = 
REMARK  5 active torsions:
REMARK  status: ('A' for Active; 'I' for Inactive)
REMARK    1  A    between atoms: C_1  and  C_2
REMARK    2  A    between atoms: C_2  and  C_3
REMARK    3  A    between atoms: C_9  and  O_10
REMARK    4  A    between atoms: C_11  and  C_12
REMARK    5  A    between atoms: C_12  and  N_13
REMARK                            x       y       z     vdW  Elec       q    Type
REMARK                         _______ _______ _______ _____ _____    ______ ____
ROOT
ATOM      1  C   UNL     1       2.486  10.479  18.060  0.00  0.00    +0.000 C 
ATOM      2  C   UNL     1       1.574   9.287  18.402  0.00  0.00    +0.000 C 
ATOM      3  C   UNL     1       0.441   9.200  17.366  0.00  0.00    +0.000 C 
ATOM      4  O   UNL     1       2.405   8.125  18.178  0.00  0.00    +0.000 OA
ATOM      5  C   UNL     1       2.341   7.066  19.042  0.00  0.00    +0.000 A 
ATOM      6  C   UNL     1       1.753   7.189  20.314  0.00  0.00    +0.000 A 
ATOM      7  C   UNL     1       1.786   6.083  21.173  0.00  0.00    +0.000 A 
ATOM      8  C   UNL     1       2.393   4.891  20.792  0.00  0.00    +0.000 A 
ATOM      9  C   UNL     1       2.990   4.792  19.540  0.00  0.00    +0.000 A 
ATOM     10  C   UNL     1       2.971   5.862  18.630  0.00  0.00    +0.000 A 
ATOM     11  C   UNL     1       1.133   8.457  20.737  0.00  0.00    +0.000 C 
ATOM     12  C   UNL     1       1.007   9.431  19.813  0.00  0.00    +0.000 C 
ATOM     13  C   UNL     1       0.262  10.714  20.140  0.00  0.00    +0.000 C 
ATOM     14  C   UNL     1      -0.661  10.585  21.353  0.00  0.00    +0.000 C 
ATOM     15  C   UNL     1       0.110   9.993  22.520  0.00  0.00    +0.000 C 
ATOM     16  C   UNL     1       0.636   8.604  22.161  0.00  0.00    +0.000 C 
ENDROOT
BRANCH   9  17
ATOM     17  O   UNL     1       3.640   3.633  19.215  0.00  0.00    +0.000 OA
ATOM     18  H   UNL     1       4.533   3.662  19.600  0.00  0.00    +0.000 HD
ENDBRANCH   9  17
BRANCH  10  19
ATOM     19  C   UNL     1       3.745   5.768  17.324  0.00  0.00    +0.000 C 
BRANCH  19  20
ATOM     20  N   UNL     1       5.099   6.320  17.190  0.00  0.00    +0.000 NA
ATOM     21  C   UNL     1       5.708   6.303  15.860  0.00  0.00    +0.000 C 
ATOM     22  C   UNL     1       6.598   5.085  15.561  0.00  0.00    +0.000 C 
ATOM     23  O   UNL     1       7.536   4.814  16.613  0.00  0.00    +0.000 OA
ATOM     24  C   UNL     1       6.860   4.671  17.870  0.00  0.00    +0.000 C 
ATOM     25  C   UNL     1       6.070   5.939  18.210  0.00  0.00    +0.000 C 
ENDBRANCH  19  20
ENDBRANCH  10  19
TORSDOF 3
ENDMDL
MODEL 4
REMARK VINA RESULT:      -6.6      2.166      3.979
REMARK  Name = 
REMARK  5 active torsions:
REMARK  status: ('A' for Active; 'I' for Inactive)
REMARK    1  A    between atoms: C_1  and  C_2
REMARK    2  A    between atoms: C_2  and  C_3
REMARK    3  A    between atoms: C_9  and  O_10
REMARK    4  A    between atoms: C_11  and  C_12
REMARK    5  A    between atoms: C_12  and  N_13
REMARK                            x       y       z     vdW  Elec       q    Type
REMARK                         _______ _______ _______ _____ _____    ______ ____
ROOT
ATOM      1  C   UNL     1      -0.602   8.125  21.983  0.00  0.00    +0.000 C 
ATOM      2  C   UNL     1       0.747   8.614  21.426  0.00  0.00    +0.000 C 
ATOM      3  C   UNL     1       1.604   9.163  22.579  0.00  0.00    +0.000 C 
ATOM      4  O   UNL     1       1.408   7.408  20.981  0.00  0.00    +0.000 OA
ATOM      5  C   UNL     1       2.122   7.415  19.814  0.00  0.00    +0.000 A 
ATOM      6  C   UNL     1       1.969   8.441  18.864  0.00  0.00    +0.000 A 
ATOM      7  C   UNL     1       2.679   8.346  17.660  0.00  0.00    +0.000 A 
ATOM      8  C   UNL     1       3.509   7.262  17.395  0.00  0.00    +0.000 A 
ATOM      9  C   UNL     1       3.632   6.244  18.334  0.00  0.00    +0.000 A 
ATOM     10  C   UNL     1       2.960   6.295  19.566  0.00  0.00    +0.000 A 
ATOM     11  C   UNL     1       1.069   9.579  19.123  0.00  0.00    +0.000 C 
ATOM     12  C   UNL     1       0.531   9.682  20.356  0.00  0.00    +0.000 C 
ATOM     13  C   UNL     1      -0.299  10.897  20.736  0.00  0.00    +0.000 C 
ATOM     14  C   UNL     1      -0.069  12.098  19.819  0.00  0.00    +0.000 C 
ATOM     15  C   UNL     1      -0.214  11.669  18.370  0.00  0.00    +0.000 C 
ATOM     16  C   UNL     1       0.816  10.592  18.027  0.00  0.00    +0.000 C 
ENDROOT
BRANCH   9  17
ATOM     17  O   UNL     1       4.400   5.156  18.022  0.00  0.00    +0.000 OA
ATOM     18  H   UNL     1       4.932   4.920  18.800  0.00  0.00    +0.000 HD
ENDBRANCH   9  17
BRANCH  10  19
ATOM     19  C   UNL     1       3.011   5.107  20.515  0.00  0.00    +0.000 C 
BRANCH  19  20
ATOM     20  N   UNL     1       2.135   3.942  20.338  0.00  0.00    +0.000 NA
ATOM     21  C   UNL     1       2.764   2.621  20.310  0.00  0.00    +0.000 C 
ATOM     22  C   UNL     1       3.105   2.086  18.909  0.00  0.00    +0.000 C 
ATOM     23  O   UNL     1       2.010   2.207  17.988  0.00  0.00    +0.000 OA
ATOM     24  C   UNL     1       1.546   3.564  17.930  0.00  0.00    +0.000 C 
ATOM     25  C   UNL     1       1.099   4.045  19.315  0.00  0.00    +0.000 C 
ENDBRANCH  19  20
ENDBRANCH  10  19
TORSDOF 3
ENDMDL
MODEL 5
REMARK VINA RESULT:      -6.5      2.297      4.334
REMARK  Name = 
REMARK  5 active torsions:
REMARK  status: ('A' for Active; 'I' for Inactive)
REMARK    1  A    between atoms: C_1  and  C_2
REMARK    2  A    between atoms: C_2  and  C_3
REMARK    3  A    between atoms: C_9  and  O_10
REMARK    4  A    between atoms: C_11  and  C_12
REMARK    5  A    between atoms: C_12  and  N_13
REMARK                            x       y       z     vdW  Elec       q    Type
REMARK                         _______ _______ _______ _____ _____    ______ ____
ROOT
ATOM      1  C   UNL     1      -0.733   8.415  22.336  0.00  0.00    +0.000 C 
ATOM      2  C   UNL     1       0.524   9.043  21.708  0.00  0.00    +0.000 C 
ATOM      3  C   UNL     1       1.499   9.455  22.823  0.00  0.00    +0.000 C 
ATOM      4  O   UNL     1       1.160   7.948  21.011  0.00  0.00    +0.000 OA
ATOM      5  C   UNL     1       1.727   8.159  19.784  0.00  0.00    +0.000 A 
ATOM      6  C   UNL     1       1.431   9.306  19.025  0.00  0.00    +0.000 A 
ATOM      7  C   UNL     1       1.992   9.423  17.747  0.00  0.00    +0.000 A 
ATOM      8  C   UNL     1       2.813   8.429  17.226  0.00  0.00    +0.000 A 
ATOM      9  C   UNL     1       3.079   7.291  17.979  0.00  0.00    +0.000 A 
ATOM     10  C   UNL     1       2.559   7.128  19.274  0.00  0.00    +0.000 A 
ATOM     11  C   UNL     1       0.537  10.351  19.557  0.00  0.00    +0.000 C 
ATOM     12  C   UNL     1       0.150  10.246  20.844  0.00  0.00    +0.000 C 
ATOM     13  C   UNL     1      -0.662  11.352  21.498  0.00  0.00    +0.000 C 
ATOM     14  C   UNL     1      -0.578  12.684  20.753  0.00  0.00    +0.000 C 
ATOM     15  C   UNL     1      -0.886  12.468  19.283  0.00  0.00    +0.000 C 
ATOM     16  C   UNL     1       0.124  11.502  18.664  0.00  0.00    +0.000 C 
ENDROOT
BRANCH   9  17
ATOM     17  O   UNL     1       3.833   6.296  17.418  0.00  0.00    +0.000 OA
ATOM     18  H   UNL     1       4.767   6.566  17.443  0.00  0.00    +0.000 HD
ENDBRANCH   9  17
BRANCH  10  19
ATOM     19  C   UNL     1       2.758   5.817  20.019  0.00  0.00    +0.000 C 
BRANCH  19  20
ATOM     20  N   UNL     1       2.760   4.526  19.319  0.00  0.00    +0.000 NA
ATOM     21  C   UNL     1       1.467   3.981  18.902  0.00  0.00    +0.000 C 
ATOM     22  C   UNL     1       0.819   2.999  19.892  0.00  0.00    +0.000 C 
ATOM     23  O   UNL     1       1.732   1.992  20.351  0.00  0.00    +0.000 OA
ATOM     24  C   UNL     1       2.911   2.592  20.907  0.00  0.00    +0.000 C 
ATOM     25  C   UNL     1       3.611   3.477  19.871  0.00  0.00    +0.000 C 
ENDBRANCH  19  20
ENDBRANCH  10  19
TORSDOF 3
ENDMDL
MODEL 6
REMARK VINA RESULT:      -6.3      2.716      7.328
REMARK  Name = 
REMARK  5 active torsions:
REMARK  status: ('A' for Active; 'I' for Inactive)
REMARK    1  A    between atoms: C_1  and  C_2
REMARK    2  A    between atoms: C_2  and  C_3
REMARK    3  A    between atoms: C_9  and  O_10
REMARK    4  A    between atoms: C_11  and  C_12
REMARK    5  A    between atoms: C_12  and  N_13
REMARK                            x       y       z     vdW  Elec       q    Type
REMARK                         _______ _______ _______ _____ _____    ______ ____
ROOT
ATOM      1  C   UNL     1       2.626   3.876  21.751  0.00  0.00    +0.000 C 
ATOM      2  C   UNL     1       1.984   4.371  20.443  0.00  0.00    +0.000 C 
ATOM      3  C   UNL     1       0.522   3.898  20.383  0.00  0.00    +0.000 C 
ATOM      4  O   UNL     1       1.929   5.808  20.592  0.00  0.00    +0.000 OA
ATOM      5  C   UNL     1       2.211   6.615  19.524  0.00  0.00    +0.000 A 
ATOM      6  C   UNL     1       2.870   6.122  18.384  0.00  0.00    +0.000 A 
ATOM      7  C   UNL     1       3.191   7.020  17.358  0.00  0.00    +0.000 A 
ATOM      8  C   UNL     1       2.879   8.372  17.459  0.00  0.00    +0.000 A 
ATOM      9  C   UNL     1       2.247   8.848  18.602  0.00  0.00    +0.000 A 
ATOM     10  C   UNL     1       1.885   7.991  19.654  0.00  0.00    +0.000 A 
ATOM     11  C   UNL     1       3.231   4.696  18.281  0.00  0.00    +0.000 C 
ATOM     12  C   UNL     1       2.767   3.863  19.234  0.00  0.00    +0.000 C 
ATOM     13  C   UNL     1       2.987   2.364  19.122  0.00  0.00    +0.000 C 
ATOM     14  C   UNL     1       3.330   1.907  17.704  0.00  0.00    +0.000 C 
ATOM     15  C   UNL     1       4.468   2.749  17.157  0.00  0.00    +0.000 C 
ATOM     16  C   UNL     1       4.065   4.223  17.108  0.00  0.00    +0.000 C 
ENDROOT
BRANCH   9  17
ATOM     17  O   UNL     1       2.013  10.192  18.708  0.00  0.00    +0.000 OA
ATOM     18  H   UNL     1       1.308  10.332  19.362  0.00  0.00    +0.000 HD
ENDBRANCH   9  17
BRANCH  10  19
ATOM     19  C   UNL     1       1.317   8.561  20.945  0.00  0.00    +0.000 C 
BRANCH  19  20
ATOM     20  N   UNL     1      -0.094   8.950  21.058  0.00  0.00    +0.000 NA
ATOM     21  C   UNL     1      -0.505  10.203  20.423  0.00  0.00    +0.000 C 
ATOM     22  C   UNL     1      -0.496  11.437  21.340  0.00  0.00    +0.000 C 
ATOM     23  O   UNL     1      -1.156  11.200  22.593  0.00  0.00    +0.000 OA
ATOM     24  C   UNL     1      -0.593  10.056  23.252  0.00  0.00    +0.000 C 
ATOM     25  C   UNL     1      -0.714   8.808  22.372  0.00  0.00    +0.000 C 
ENDBRANCH  19  20
ENDBRANCH  10  19
TORSDOF 3
ENDMDL
MODEL 7
REMARK VINA RESULT:      -6.1      8.542      9.981
REMARK  Name = 
REMARK  5 active torsions:
REMARK  status: ('A' for Active; 'I' for Inactive)
REMARK    1  A    between atoms: C_1  and  C_2
REMARK    2  A    between atoms: C_2  and  C_3
REMARK    3  A    between atoms: C_9  and  O_10
REMARK    4  A    between atoms: C_11  and  C_12
REMARK    5  A    between atoms: C_12  and  N_13
REMARK                            x       y       z     vdW  Elec       q    Type
REMARK                         _______ _______ _______ _____ _____    ______ ____
ROOT
ATOM      1  C   UNL     1       7.906  16.163  21.992  0.00  0.00    +0.000 C 
ATOM      2  C   UNL     1       7.486  14.823  21.361  0.00  0.00    +0.000 C 
ATOM      3  C   UNL     1       6.104  14.980  20.705  0.00  0.00    +0.000 C 
ATOM      4  O   UNL     1       8.420  14.632  20.274  0.00  0.00    +0.000 OA
ATOM      5  C   UNL     1       8.926  13.386  20.022  0.00  0.00    +0.000 A 
ATOM      6  C   UNL     1       8.838  12.351  20.970  0.00  0.00    +0.000 A 
ATOM      7  C   UNL     1       9.440  11.122  20.674  0.00  0.00    +0.000 A 
ATOM      8  C   UNL     1      10.122  10.923  19.477  0.00  0.00    +0.000 A 
ATOM      9  C   UNL     1      10.220  11.962  18.560  0.00  0.00    +0.000 A 
ATOM     10  C   UNL     1       9.620  13.210  18.795  0.00  0.00    +0.000 A 
ATOM     11  C   UNL     1       8.143  12.563  22.253  0.00  0.00    +0.000 C 
ATOM     12  C   UNL     1       7.464  13.716  22.413  0.00  0.00    +0.000 C 
ATOM     13  C   UNL     1       6.617  13.947  23.654  0.00  0.00    +0.000 C 
ATOM     14  C   UNL     1       6.264  12.657  24.394  0.00  0.00    +0.000 C 
ATOM     15  C   UNL     1       7.525  11.847  24.638  0.00  0.00    +0.000 C 
ATOM     16  C   UNL     1       8.187  11.480  23.310  0.00  0.00    +0.000 C 
ENDROOT
BRANCH   9  17
ATOM     17  O   UNL     1      10.953  11.763  17.422  0.00  0.00    +0.000 OA
ATOM     18  H   UNL     1      11.243  12.628  17.086  0.00  0.00    +0.000 HD
ENDBRANCH   9  17
BRANCH  10  19
ATOM     19  C   UNL     1       9.856  14.366  17.835  0.00  0.00    +0.000 C 
BRANCH  19  20
ATOM     20  N   UNL     1      11.184  14.968  17.667  0.00  0.00    +0.000 NA
ATOM     21  C   UNL     1      11.994  15.166  18.869  0.00  0.00    +0.000 C 
ATOM     22  C   UNL     1      11.877  16.556  19.517  0.00  0.00    +0.000 C 
ATOM     23  O   UNL     1      12.012  17.623  18.567  0.00  0.00    +0.000 OA
ATOM     24  C   UNL     1      11.071  17.467  17.494  0.00  0.00    +0.000 C 
ATOM     25  C   UNL     1      11.276  16.126  16.783  0.00  0.00    +0.000 C 
ENDBRANCH  19  20
ENDBRANCH  10  19
TORSDOF 3
ENDMDL
MODEL 8
REMARK VINA RESULT:      -6.0      4.504      9.145
REMARK  Name = 
REMARK  5 active torsions:
REMARK  status: ('A' for Active; 'I' for Inactive)
REMARK    1  A    between atoms: C_1  and  C_2
REMARK    2  A    between atoms: C_2  and  C_3
REMARK    3  A    between atoms: C_9  and  O_10
REMARK    4  A    between atoms: C_11  and  C_12
REMARK    5  A    between atoms: C_12  and  N_13
REMARK                            x       y       z     vdW  Elec       q    Type
REMARK                         _______ _______ _______ _____ _____    ______ ____
ROOT
ATOM      1  C   UNL     1       1.642   9.195  22.686  0.00  0.00    +0.000 C 
ATOM      2  C   UNL     1       0.616   9.340  21.547  0.00  0.00    +0.000 C 
ATOM      3  C   UNL     1      -0.592   8.432  21.831  0.00  0.00    +0.000 C 
ATOM      4  O   UNL     1       0.130  10.696  21.674  0.00  0.00    +0.000 OA
ATOM      5  C   UNL     1      -0.094  11.446  20.552  0.00  0.00    +0.000 A 
ATOM      6  C   UNL     1       0.437  11.078  19.303  0.00  0.00    +0.000 A 
ATOM      7  C   UNL     1       0.228  11.931  18.212  0.00  0.00    +0.000 A 
ATOM      8  C   UNL     1      -0.478  13.121  18.352  0.00  0.00    +0.000 A 
ATOM      9  C   UNL     1      -0.978  13.482  19.598  0.00  0.00    +0.000 A 
ATOM     10  C   UNL     1      -0.815  12.658  20.723  0.00  0.00    +0.000 A 
ATOM     11  C   UNL     1       1.212   9.833  19.152  0.00  0.00    +0.000 C 
ATOM     12  C   UNL     1       1.252   8.990  20.204  0.00  0.00    +0.000 C 
ATOM     13  C   UNL     1       1.920   7.631  20.078  0.00  0.00    +0.000 C 
ATOM     14  C   UNL     1       2.090   7.172  18.629  0.00  0.00    +0.000 C 
ATOM     15  C   UNL     1       2.753   8.273  17.820  0.00  0.00    +0.000 C 
ATOM     16  C   UNL     1       1.891   9.535  17.831  0.00  0.00    +0.000 C 
ENDROOT
BRANCH   9  17
ATOM     17  O   UNL     1      -1.609  14.690  19.724  0.00  0.00    +0.000 OA
ATOM     18  H   UNL     1      -0.962  15.395  19.554  0.00  0.00    +0.000 HD
ENDBRANCH   9  17
BRANCH  10  19
ATOM     19  C   UNL     1      -1.257  13.141  22.096  0.00  0.00    +0.000 C 
BRANCH  19  20
ATOM     20  N   UNL     1      -2.610  13.660  22.331  0.00  0.00    +0.000 NA
ATOM     21  C   UNL     1      -2.746  14.825  23.206  0.00  0.00    +0.000 C 
ATOM     22  C   UNL     1      -3.034  14.507  24.682  0.00  0.00    +0.000 C 
ATOM     23  O   UNL     1      -4.095  13.554  24.846  0.00  0.00    +0.000 OA
ATOM     24  C   UNL     1      -3.823  12.360  24.098  0.00  0.00    +0.000 C 
ATOM     25  C   UNL     1      -3.653  12.678  22.610  0.00  0.00    +0.000 C 
ENDBRANCH  19  20
ENDBRANCH  10  19
TORSDOF 3
ENDMDL
MODEL 9
REMARK VINA RESULT:      -6.0      2.654      7.291
REMARK  Name = 
REMARK  5 active torsions:
REMARK  status: ('A' for Active; 'I' for Inactive)
REMARK    1  A    between atoms: C_1  and  C_2
REMARK    2  A    between atoms: C_2  and  C_3
REMARK    3  A    between atoms: C_9  and  O_10
REMARK    4  A    between atoms: C_11  and  C_12
REMARK    5  A    between atoms: C_12  and  N_13
REMARK                            x       y       z     vdW  Elec       q    Type
REMARK                         _______ _______ _______ _____ _____    ______ ____
ROOT
ATOM      1  C   UNL     1       2.559   4.368  21.578  0.00  0.00    +0.000 C 
ATOM      2  C   UNL     1       2.039   4.809  20.198  0.00  0.00    +0.000 C 
ATOM      3  C   UNL     1       0.751   4.036  19.869  0.00  0.00    +0.000 C 
ATOM      4  O   UNL     1       1.638   6.184  20.390  0.00  0.00    +0.000 OA
ATOM      5  C   UNL     1       1.897   7.111  19.418  0.00  0.00    +0.000 A 
ATOM      6  C   UNL     1       2.824   6.860  18.391  0.00  0.00    +0.000 A 
ATOM      7  C   UNL     1       3.093   7.881  17.470  0.00  0.00    +0.000 A 
ATOM      8  C   UNL     1       2.471   9.122  17.568  0.00  0.00    +0.000 A 
ATOM      9  C   UNL     1       1.574   9.362  18.601  0.00  0.00    +0.000 A 
ATOM     10  C   UNL     1       1.252   8.370  19.542  0.00  0.00    +0.000 A 
ATOM     11  C   UNL     1       3.510   5.558  18.298  0.00  0.00    +0.000 C 
ATOM     12  C   UNL     1       3.100   4.575  19.124  0.00  0.00    +0.000 C 
ATOM     13  C   UNL     1       3.669   3.172  18.996  0.00  0.00    +0.000 C 
ATOM     14  C   UNL     1       4.328   2.908  17.642  0.00  0.00    +0.000 C 
ATOM     15  C   UNL     1       5.319   4.016  17.332  0.00  0.00    +0.000 C 
ATOM     16  C   UNL     1       4.606   5.367  17.269  0.00  0.00    +0.000 C 
ENDROOT
BRANCH   9  17
ATOM     17  O   UNL     1       1.028  10.612  18.716  0.00  0.00    +0.000 OA
ATOM     18  H   UNL     1       1.747  11.252  18.848  0.00  0.00    +0.000 HD
ENDBRANCH   9  17
BRANCH  10  19
ATOM     19  C   UNL     1       0.370   8.705  20.736  0.00  0.00    +0.000 C 
BRANCH  19  20
ATOM     20  N   UNL     1       0.836   9.585  21.814  0.00  0.00    +0.000 NA
ATOM     21  C   UNL     1       0.202   9.442  23.126  0.00  0.00    +0.000 C 
ATOM     22  C   UNL     1      -0.977  10.392  23.391  0.00  0.00    +0.000 C 
ATOM     23  O   UNL     1      -0.676  11.755  23.058  0.00  0.00    +0.000 OA
ATOM     24  C   UNL     1      -0.220  11.856  21.701  0.00  0.00    +0.000 C 
ATOM     25  C   UNL     1       1.027  10.993  21.482  0.00  0.00    +0.000 C 
ENDBRANCH  19  20
ENDBRANCH  10  19
TORSDOF 3
ENDMDL
