MODEL 1
REMARK VINA RESULT:      -7.6      0.000      0.000
REMARK  Name = 
REMARK  4 active torsions:
REMARK  status: ('A' for Active; 'I' for Inactive)
REMARK    1  A    between atoms: C_1  and  C_2
REMARK    2  A    between atoms: C_2  and  N_3
REMARK    3  A    between atoms: N_12  and  S_13
REMARK    4  A    between atoms: S_13  and  C_16
REMARK                            x       y       z     vdW  Elec       q    Type
REMARK                         _______ _______ _______ _____ _____    ______ ____
ROOT
ATOM      1  N   UNL     1       0.603  11.446  19.224  0.00  0.00    +0.000 N 
ATOM      2  C   UNL     1       0.668  10.295  20.037  0.00  0.00    +0.000 A 
ATOM      3  C   UNL     1      -0.163  10.229  21.133  0.00  0.00    +0.000 A 
ATOM      4  C   UNL     1      -0.132   9.058  21.839  0.00  0.00    +0.000 A 
ATOM      5  N   UNL     1       0.605   8.001  21.476  0.00  0.00    +0.000 NA
ATOM      6  C   UNL     1       1.360   8.119  20.372  0.00  0.00    +0.000 A 
ATOM      7  N   UNL     1       2.018   7.010  19.910  0.00  0.00    +0.000 N 
ATOM      8  C   UNL     1       1.997   5.773  20.688  0.00  0.00    +0.000 C 
ATOM      9  C   UNL     1       1.784   4.556  19.762  0.00  0.00    +0.000 C 
ATOM     10  N   UNL     1       2.735   4.541  18.601  0.00  0.00    +0.000 NA
ATOM     11  C   UNL     1       2.572   5.835  17.833  0.00  0.00    +0.000 C 
ATOM     12  C   UNL     1       2.848   7.073  18.708  0.00  0.00    +0.000 C 
ATOM     13  N   UNL     1       1.417   9.253  19.656  0.00  0.00    +0.000 NA
ATOM     14  H   UNL     1      -0.191  11.305  18.603  0.00  0.00    +0.000 HD
ENDROOT
BRANCH  10  15
ATOM     15  S   UNL     1       4.358   4.129  18.970  0.00  0.00    +0.000 S 
ATOM     16  O   UNL     1       4.820   5.055  19.985  0.00  0.00    +0.000 OA
ATOM     17  O   UNL     1       4.445   2.708  19.176  0.00  0.00    +0.000 OA
BRANCH  15  18
ATOM     18  C   UNL     1       5.280   4.513  17.486  0.00  0.00    +0.000 A 
ATOM     19  C   UNL     1       6.284   5.487  17.522  0.00  0.00    +0.000 A 
ATOM     20  C   UNL     1       7.073   5.705  16.386  0.00  0.00    +0.000 A 
ATOM     21  C   UNL     1       6.868   4.939  15.241  0.00  0.00    +0.000 A 
ATOM     22  F   UNL     1       7.643   5.134  14.166  0.00  0.00    +0.000 F 
ATOM     23  C   UNL     1       5.882   3.958  15.204  0.00  0.00    +0.000 A 
ATOM     24  C   UNL     1       5.075   3.746  16.328  0.00  0.00    +0.000 A 
ENDBRANCH  15  18
ENDBRANCH  10  15
BRANCH   1  26
ATOM     25  C   UNL     1       2.235  13.147  18.616  0.00  0.00    +0.000 C 
ATOM     26  C   UNL     1       1.829  11.688  18.465  0.00  0.00    +0.000 C 
ENDBRANCH   1  26
TORSDOF 3
ENDMDL
MODEL 2
REMARK VINA RESULT:      -6.9      5.055      9.281
REMARK  Name = 
REMARK  4 active torsions:
REMARK  status: ('A' for Active; 'I' for Inactive)
REMARK    1  A    between atoms: C_1  and  C_2
REMARK    2  A    between atoms: C_2  and  N_3
REMARK    3  A    between atoms: N_12  and  S_13
REMARK    4  A    between atoms: S_13  and  C_16
REMARK                            x       y       z     vdW  Elec       q    Type
REMARK                         _______ _______ _______ _____ _____    ______ ____
ROOT
ATOM      1  N   UNL     1       2.825   3.429  19.805  0.00  0.00    +0.000 N 
ATOM      2  C   UNL     1       2.948   4.748  19.319  0.00  0.00    +0.000 A 
ATOM      3  C   UNL     1       3.558   4.933  18.099  0.00  0.00    +0.000 A 
ATOM      4  C   UNL     1       3.573   6.217  17.625  0.00  0.00    +0.000 A 
ATOM      5  N   UNL     1       2.985   7.239  18.259  0.00  0.00    +0.000 NA
ATOM      6  C   UNL     1       2.371   6.979  19.424  0.00  0.00    +0.000 A 
ATOM      7  N   UNL     1       1.654   7.982  20.021  0.00  0.00    +0.000 N 
ATOM      8  C   UNL     1       1.680   9.331  19.460  0.00  0.00    +0.000 C 
ATOM      9  C   UNL     1       0.264   9.946  19.467  0.00  0.00    +0.000 C 
ATOM     10  N   UNL     1      -0.402   9.847  20.809  0.00  0.00    +0.000 NA
ATOM     11  C   UNL     1      -0.449   8.389  21.212  0.00  0.00    +0.000 C 
ATOM     12  C   UNL     1       0.955   7.758  21.286  0.00  0.00    +0.000 C 
ATOM     13  N   UNL     1       2.357   5.755  19.973  0.00  0.00    +0.000 NA
ATOM     14  H   UNL     1       2.005   3.037  19.344  0.00  0.00    +0.000 HD
ENDROOT
BRANCH  10  15
ATOM     15  S   UNL     1       0.195  10.904  22.019  0.00  0.00    +0.000 S 
ATOM     16  O   UNL     1       0.376  10.121  23.226  0.00  0.00    +0.000 OA
ATOM     17  O   UNL     1       1.279  11.676  21.474  0.00  0.00    +0.000 OA
BRANCH  15  18
ATOM     18  C   UNL     1      -1.153  12.032  22.352  0.00  0.00    +0.000 A 
ATOM     19  C   UNL     1      -1.247  13.234  21.643  0.00  0.00    +0.000 A 
ATOM     20  C   UNL     1      -2.362  14.060  21.832  0.00  0.00    +0.000 A 
ATOM     21  C   UNL     1      -3.374  13.671  22.704  0.00  0.00    +0.000 A 
ATOM     22  F   UNL     1      -4.451  14.452  22.862  0.00  0.00    +0.000 F 
ATOM     23  C   UNL     1      -3.295  12.469  23.402  0.00  0.00    +0.000 A 
ATOM     24  C   UNL     1      -2.175  11.646  23.234  0.00  0.00    +0.000 A 
ENDBRANCH  15  18
ENDBRANCH  10  15
BRANCH   1  26
ATOM     25  C   UNL     1       1.357   2.733  21.617  0.00  0.00    +0.000 C 
ATOM     26  C   UNL     1       2.697   3.358  21.259  0.00  0.00    +0.000 C 
ENDBRANCH   1  26
TORSDOF 3
ENDMDL
MODEL 3
REMARK VINA RESULT:      -6.9      4.480      8.585
REMARK  Name = 
REMARK  4 active torsions:
REMARK  status: ('A' for Active; 'I' for Inactive)
REMARK    1  A    between atoms: C_1  and  C_2
REMARK    2  A    between atoms: C_2  and  N_3
REMARK    3  A    between atoms: N_12  and  S_13
REMARK    4  A    between atoms: S_13  and  C_16
REMARK                            x       y       z     vdW  Elec       q    Type
REMARK                         _______ _______ _______ _____ _____    ______ ____
ROOT
ATOM      1  N   UNL     1       6.003   3.011  11.076  0.00  0.00    +0.000 N 
ATOM      2  C   UNL     1       6.663   3.838  12.009  0.00  0.00    +0.000 A 
ATOM      3  C   UNL     1       7.596   4.732  11.535  0.00  0.00    +0.000 A 
ATOM      4  C   UNL     1       8.143   5.576  12.463  0.00  0.00    +0.000 A 
ATOM      5  N   UNL     1       7.768   5.595  13.748  0.00  0.00    +0.000 NA
ATOM      6  C   UNL     1       6.822   4.725  14.133  0.00  0.00    +0.000 A 
ATOM      7  N   UNL     1       6.332   4.817  15.409  0.00  0.00    +0.000 N 
ATOM      8  C   UNL     1       6.932   5.755  16.355  0.00  0.00    +0.000 C 
ATOM      9  C   UNL     1       5.836   6.481  17.165  0.00  0.00    +0.000 C 
ATOM     10  N   UNL     1       4.848   5.532  17.778  0.00  0.00    +0.000 NA
ATOM     11  C   UNL     1       4.235   4.701  16.671  0.00  0.00    +0.000 C 
ATOM     12  C   UNL     1       5.293   3.903  15.885  0.00  0.00    +0.000 C 
ATOM     13  N   UNL     1       6.275   3.835  13.291  0.00  0.00    +0.000 NA
ATOM     14  H   UNL     1       5.252   3.575  10.684  0.00  0.00    +0.000 HD
ENDROOT
BRANCH  10  15
ATOM     15  S   UNL     1       5.412   4.629  19.121  0.00  0.00    +0.000 S 
ATOM     16  O   UNL     1       6.104   3.466  18.601  0.00  0.00    +0.000 OA
ATOM     17  O   UNL     1       6.063   5.520  20.044  0.00  0.00    +0.000 OA
BRANCH  15  18
ATOM     18  C   UNL     1       3.934   4.017  19.920  0.00  0.00    +0.000 A 
ATOM     19  C   UNL     1       3.861   2.677  20.318  0.00  0.00    +0.000 A 
ATOM     20  C   UNL     1       2.745   2.232  21.038  0.00  0.00    +0.000 A 
ATOM     21  C   UNL     1       1.731   3.126  21.369  0.00  0.00    +0.000 A 
ATOM     22  F   UNL     1       0.678   2.701  22.080  0.00  0.00    +0.000 F 
ATOM     23  C   UNL     1       1.804   4.464  20.990  0.00  0.00    +0.000 A 
ATOM     24  C   UNL     1       2.907   4.913  20.253  0.00  0.00    +0.000 A 
ENDBRANCH  15  18
ENDBRANCH  10  15
BRANCH   1  26
ATOM     25  C   UNL     1       6.382   0.613  11.263  0.00  0.00    +0.000 C 
ATOM     26  C   UNL     1       5.485   1.776  11.662  0.00  0.00    +0.000 C 
ENDBRANCH   1  26
TORSDOF 3
ENDMDL
MODEL 4
REMARK VINA RESULT:      -6.9      5.155      9.436
REMARK  Name = 
REMARK  4 active torsions:
REMARK  status: ('A' for Active; 'I' for Inactive)
REMARK    1  A    between atoms: C_1  and  C_2
REMARK    2  A    between atoms: C_2  and  N_3
REMARK    3  A    between atoms: N_12  and  S_13
REMARK    4  A    between atoms: S_13  and  C_16
REMARK                            x       y       z     vdW  Elec       q    Type
REMARK                         _______ _______ _______ _____ _____    ______ ____
ROOT
ATOM      1  N   UNL     1       2.803   3.648  19.850  0.00  0.00    +0.000 N 
ATOM      2  C   UNL     1       2.911   4.965  19.357  0.00  0.00    +0.000 A 
ATOM      3  C   UNL     1       3.534   5.153  18.144  0.00  0.00    +0.000 A 
ATOM      4  C   UNL     1       3.535   6.434  17.663  0.00  0.00    +0.000 A 
ATOM      5  N   UNL     1       2.923   7.450  18.282  0.00  0.00    +0.000 NA
ATOM      6  C   UNL     1       2.299   7.188  19.441  0.00  0.00    +0.000 A 
ATOM      7  N   UNL     1       1.558   8.182  20.023  0.00  0.00    +0.000 N 
ATOM      8  C   UNL     1       1.570   9.529  19.455  0.00  0.00    +0.000 C 
ATOM      9  C   UNL     1       0.145  10.121  19.440  0.00  0.00    +0.000 C 
ATOM     10  N   UNL     1      -0.536  10.020  20.774  0.00  0.00    +0.000 NA
ATOM     11  C   UNL     1      -0.565   8.563  21.185  0.00  0.00    +0.000 C 
ATOM     12  C   UNL     1       0.847   7.955  21.281  0.00  0.00    +0.000 C 
ATOM     13  N   UNL     1       2.296   5.967  19.998  0.00  0.00    +0.000 NA
ATOM     14  H   UNL     1       1.995   3.240  19.382  0.00  0.00    +0.000 HD
ENDROOT
BRANCH  10  15
ATOM     15  S   UNL     1       0.028  11.093  21.985  0.00  0.00    +0.000 S 
ATOM     16  O   UNL     1       0.251  10.312  23.186  0.00  0.00    +0.000 OA
ATOM     17  O   UNL     1       1.076  11.911  21.435  0.00  0.00    +0.000 OA
BRANCH  15  18
ATOM     18  C   UNL     1      -1.360  12.165  22.336  0.00  0.00    +0.000 A 
ATOM     19  C   UNL     1      -2.339  11.761  23.251  0.00  0.00    +0.000 A 
ATOM     20  C   UNL     1      -3.363  12.648  23.602  0.00  0.00    +0.000 A 
ATOM     21  C   UNL     1      -3.389  13.929  23.056  0.00  0.00    +0.000 A 
ATOM     22  F   UNL     1      -4.357  14.783  23.414  0.00  0.00    +0.000 F 
ATOM     23  C   UNL     1      -2.410  14.343  22.157  0.00  0.00    +0.000 A 
ATOM     24  C   UNL     1      -1.393  13.455  21.786  0.00  0.00    +0.000 A 
ENDBRANCH  15  18
ENDBRANCH  10  15
BRANCH   1  26
ATOM     25  C   UNL     1       1.508   2.650  21.653  0.00  0.00    +0.000 C 
ATOM     26  C   UNL     1       2.658   3.583  21.303  0.00  0.00    +0.000 C 
ENDBRANCH   1  26
TORSDOF 3
ENDMDL
MODEL 5
REMARK VINA RESULT:      -6.8      4.420      8.519
REMARK  Name = 
REMARK  4 active torsions:
REMARK  status: ('A' for Active; 'I' for Inactive)
REMARK    1  A    between atoms: C_1  and  C_2
REMARK    2  A    between atoms: C_2  and  N_3
REMARK    3  A    between atoms: N_12  and  S_13
REMARK    4  A    between atoms: S_13  and  C_16
REMARK                            x       y       z     vdW  Elec       q    Type
REMARK                         _______ _______ _______ _____ _____    ______ ____
ROOT
ATOM      1  N   UNL     1       6.096   3.126  11.083  0.00  0.00    +0.000 N 
ATOM      2  C   UNL     1       6.760   3.940  12.023  0.00  0.00    +0.000 A 
ATOM      3  C   UNL     1       7.713   4.819  11.560  0.00  0.00    +0.000 A 
ATOM      4  C   UNL     1       8.265   5.652  12.495  0.00  0.00    +0.000 A 
ATOM      5  N   UNL     1       7.879   5.676  13.775  0.00  0.00    +0.000 NA
ATOM      6  C   UNL     1       6.914   4.821  14.151  0.00  0.00    +0.000 A 
ATOM      7  N   UNL     1       6.414   4.918  15.422  0.00  0.00    +0.000 N 
ATOM      8  C   UNL     1       7.021   5.845  16.376  0.00  0.00    +0.000 C 
ATOM      9  C   UNL     1       5.930   6.587  17.176  0.00  0.00    +0.000 C 
ATOM     10  N   UNL     1       4.920   5.654  17.779  0.00  0.00    +0.000 NA
ATOM     11  C   UNL     1       4.303   4.835  16.665  0.00  0.00    +0.000 C 
ATOM     12  C   UNL     1       5.356   4.022  15.887  0.00  0.00    +0.000 C 
ATOM     13  N   UNL     1       6.360   3.942  13.301  0.00  0.00    +0.000 NA
ATOM     14  H   UNL     1       5.357   3.703  10.685  0.00  0.00    +0.000 HD
ENDROOT
BRANCH  10  15
ATOM     15  S   UNL     1       5.457   4.740  19.125  0.00  0.00    +0.000 S 
ATOM     16  O   UNL     1       6.130   3.564  18.609  0.00  0.00    +0.000 OA
ATOM     17  O   UNL     1       6.117   5.618  20.054  0.00  0.00    +0.000 OA
BRANCH  15  18
ATOM     18  C   UNL     1       3.960   4.154  19.911  0.00  0.00    +0.000 A 
ATOM     19  C   UNL     1       2.953   5.062  20.256  0.00  0.00    +0.000 A 
ATOM     20  C   UNL     1       1.742   4.585  20.772  0.00  0.00    +0.000 A 
ATOM     21  C   UNL     1       1.542   3.215  20.916  0.00  0.00    +0.000 A 
ATOM     22  F   UNL     1       0.371   2.762  21.386  0.00  0.00    +0.000 F 
ATOM     23  C   UNL     1       2.533   2.305  20.560  0.00  0.00    +0.000 A 
ATOM     24  C   UNL     1       3.754   2.775  20.063  0.00  0.00    +0.000 A 
ENDBRANCH  15  18
ENDBRANCH  10  15
BRANCH   1  26
ATOM     25  C   UNL     1       6.314   0.702  11.114  0.00  0.00    +0.000 C 
ATOM     26  C   UNL     1       5.551   1.899  11.662  0.00  0.00    +0.000 C 
ENDBRANCH   1  26
TORSDOF 3
ENDMDL
MODEL 6
REMARK VINA RESULT:      -6.6      1.181      1.343
REMARK  Name = 
REMARK  4 active torsions:
REMARK  status: ('A' for Active; 'I' for Inactive)
REMARK    1  A    between atoms: C_1  and  C_2
REMARK    2  A    between atoms: C_2  and  N_3
REMARK    3  A    between atoms: N_12  and  S_13
REMARK    4  A    between atoms: S_13  and  C_16
REMARK                            x       y       z     vdW  Elec       q    Type
REMARK                         _______ _______ _______ _____ _____    ______ ____
ROOT
ATOM      1  N   UNL     1       1.090  10.771  19.038  0.00  0.00    +0.000 N 
ATOM      2  C   UNL     1       1.061   9.677  19.927  0.00  0.00    +0.000 A 
ATOM      3  C   UNL     1       0.353   9.814  21.099  0.00  0.00    +0.000 A 
ATOM      4  C   UNL     1       0.276   8.698  21.887  0.00  0.00    +0.000 A 
ATOM      5  N   UNL     1       0.796   7.516  21.537  0.00  0.00    +0.000 NA
ATOM      6  C   UNL     1       1.437   7.442  20.360  0.00  0.00    +0.000 A 
ATOM      7  N   UNL     1       1.861   6.215  19.923  0.00  0.00    +0.000 N 
ATOM      8  C   UNL     1       1.731   5.046  20.793  0.00  0.00    +0.000 C 
ATOM      9  C   UNL     1       1.232   3.827  19.988  0.00  0.00    +0.000 C 
ATOM     10  N   UNL     1       2.039   3.586  18.745  0.00  0.00    +0.000 NA
ATOM     11  C   UNL     1       1.998   4.841  17.899  0.00  0.00    +0.000 C 
ATOM     12  C   UNL     1       2.557   6.068  18.645  0.00  0.00    +0.000 C 
ATOM     13  N   UNL     1       1.594   8.505  19.557  0.00  0.00    +0.000 NA
ATOM     14  H   UNL     1       0.221  10.725  18.508  0.00  0.00    +0.000 HD
ENDROOT
BRANCH  10  15
ATOM     15  S   UNL     1       3.608   2.938  18.987  0.00  0.00    +0.000 S 
ATOM     16  O   UNL     1       3.878   2.977  20.411  0.00  0.00    +0.000 OA
ATOM     17  O   UNL     1       3.726   1.710  18.248  0.00  0.00    +0.000 OA
BRANCH  15  18
ATOM     18  C   UNL     1       4.717   4.124  18.236  0.00  0.00    +0.000 A 
ATOM     19  C   UNL     1       5.499   4.956  19.044  0.00  0.00    +0.000 A 
ATOM     20  C   UNL     1       6.442   5.804  18.452  0.00  0.00    +0.000 A 
ATOM     21  C   UNL     1       6.610   5.797  17.070  0.00  0.00    +0.000 A 
ATOM     22  F   UNL     1       7.532   6.592  16.510  0.00  0.00    +0.000 F 
ATOM     23  C   UNL     1       5.848   4.960  16.261  0.00  0.00    +0.000 A 
ATOM     24  C   UNL     1       4.888   4.123  16.843  0.00  0.00    +0.000 A 
ENDBRANCH  15  18
ENDBRANCH  10  15
BRANCH   1  26
ATOM     25  C   UNL     1       2.711  12.195  17.910  0.00  0.00    +0.000 C 
ATOM     26  C   UNL     1       2.250  10.764  18.148  0.00  0.00    +0.000 C 
ENDBRANCH   1  26
TORSDOF 3
ENDMDL
MODEL 7
REMARK VINA RESULT:      -6.6      3.019      4.708
REMARK  Name = 
REMARK  4 active torsions:
REMARK  status: ('A' for Active; 'I' for Inactive)
REMARK    1  A    between atoms: C_1  and  C_2
REMARK    2  A    between atoms: C_2  and  N_3
REMARK    3  A    between atoms: N_12  and  S_13
REMARK    4  A    between atoms: S_13  and  C_16
REMARK                            x       y       z     vdW  Elec       q    Type
REMARK                         _______ _______ _______ _____ _____    ______ ____
ROOT
ATOM      1  N   UNL     1       0.581  10.624  21.285  0.00  0.00    +0.000 N 
ATOM      2  C   UNL     1       1.032  10.241  20.005  0.00  0.00    +0.000 A 
ATOM      3  C   UNL     1       1.120  11.211  19.032  0.00  0.00    +0.000 A 
ATOM      4  C   UNL     1       1.649  10.813  17.835  0.00  0.00    +0.000 A 
ATOM      5  N   UNL     1       2.117   9.580  17.613  0.00  0.00    +0.000 NA
ATOM      6  C   UNL     1       2.040   8.695  18.620  0.00  0.00    +0.000 A 
ATOM      7  N   UNL     1       2.631   7.470  18.459  0.00  0.00    +0.000 N 
ATOM      8  C   UNL     1       3.207   7.102  17.166  0.00  0.00    +0.000 C 
ATOM      9  C   UNL     1       4.566   6.396  17.363  0.00  0.00    +0.000 C 
ATOM     10  N   UNL     1       4.493   5.268  18.350  0.00  0.00    +0.000 NA
ATOM     11  C   UNL     1       3.979   5.816  19.664  0.00  0.00    +0.000 C 
ATOM     12  C   UNL     1       2.589   6.466  19.522  0.00  0.00    +0.000 C 
ATOM     13  N   UNL     1       1.491   8.999  19.806  0.00  0.00    +0.000 NA
ATOM     14  H   UNL     1       1.391  11.017  21.761  0.00  0.00    +0.000 HD
ENDROOT
BRANCH  10  15
ATOM     15  S   UNL     1       3.697   3.850  17.807  0.00  0.00    +0.000 S 
ATOM     16  O   UNL     1       2.704   4.257  16.832  0.00  0.00    +0.000 OA
ATOM     17  O   UNL     1       4.683   2.855  17.481  0.00  0.00    +0.000 OA
BRANCH  15  18
ATOM     18  C   UNL     1       2.787   3.258  19.229  0.00  0.00    +0.000 A 
ATOM     19  C   UNL     1       3.477   2.811  20.361  0.00  0.00    +0.000 A 
ATOM     20  C   UNL     1       2.759   2.452  21.508  0.00  0.00    +0.000 A 
ATOM     21  C   UNL     1       1.371   2.562  21.521  0.00  0.00    +0.000 A 
ATOM     22  F   UNL     1       0.691   2.241  22.630  0.00  0.00    +0.000 F 
ATOM     23  C   UNL     1       0.680   3.021  20.404  0.00  0.00    +0.000 A 
ATOM     24  C   UNL     1       1.388   3.364  19.246  0.00  0.00    +0.000 A 
ENDBRANCH  15  18
ENDBRANCH  10  15
BRANCH   1  26
ATOM     25  C   UNL     1      -0.796  10.080  23.217  0.00  0.00    +0.000 C 
ATOM     26  C   UNL     1       0.004   9.520  22.050  0.00  0.00    +0.000 C 
ENDBRANCH   1  26
TORSDOF 3
ENDMDL
MODEL 8
REMARK VINA RESULT:      -6.4      5.396      9.598
REMARK  Name = 
REMARK  4 active torsions:
REMARK  status: ('A' for Active; 'I' for Inactive)
REMARK    1  A    between atoms: C_1  and  C_2
REMARK    2  A    between atoms: C_2  and  N_3
REMARK    3  A    between atoms: N_12  and  S_13
REMARK    4  A    between atoms: S_13  and  C_16
REMARK                            x       y       z     vdW  Elec       q    Type
REMARK                         _______ _______ _______ _____ _____    ______ ____
ROOT
ATOM      1  N   UNL     1       2.657   4.542  19.749  0.00  0.00    +0.000 N 
ATOM      2  C   UNL     1       2.823   5.829  19.197  0.00  0.00    +0.000 A 
ATOM      3  C   UNL     1       3.607   5.955  18.072  0.00  0.00    +0.000 A 
ATOM      4  C   UNL     1       3.665   7.205  17.519  0.00  0.00    +0.000 A 
ATOM      5  N   UNL     1       2.965   8.246  17.984  0.00  0.00    +0.000 NA
ATOM      6  C   UNL     1       2.186   8.043  19.059  0.00  0.00    +0.000 A 
ATOM      7  N   UNL     1       1.363   9.057  19.471  0.00  0.00    +0.000 N 
ATOM      8  C   UNL     1       1.444  10.368  18.828  0.00  0.00    +0.000 C 
ATOM      9  C   UNL     1       0.029  10.934  18.579  0.00  0.00    +0.000 C 
ATOM     10  N   UNL     1      -0.831  10.901  19.809  0.00  0.00    +0.000 NA
ATOM     11  C   UNL     1      -0.905   9.471  20.300  0.00  0.00    +0.000 C 
ATOM     12  C   UNL     1       0.485   8.893  20.629  0.00  0.00    +0.000 C 
ATOM     13  N   UNL     1       2.116   6.857  19.683  0.00  0.00    +0.000 NA
ATOM     14  H   UNL     1       1.927   4.093  19.199  0.00  0.00    +0.000 HD
ENDROOT
BRANCH  10  15
ATOM     15  S   UNL     1      -0.450  12.053  21.019  0.00  0.00    +0.000 S 
ATOM     16  O   UNL     1       0.390  11.391  21.998  0.00  0.00    +0.000 OA
ATOM     17  O   UNL     1      -0.022  13.272  20.387  0.00  0.00    +0.000 OA
BRANCH  15  18
ATOM     18  C   UNL     1      -2.003  12.391  21.840  0.00  0.00    +0.000 A 
ATOM     19  C   UNL     1      -2.198  11.976  23.162  0.00  0.00    +0.000 A 
ATOM     20  C   UNL     1      -3.373  12.338  23.832  0.00  0.00    +0.000 A 
ATOM     21  C   UNL     1      -4.325  13.123  23.187  0.00  0.00    +0.000 A 
ATOM     22  F   UNL     1      -5.436  13.488  23.841  0.00  0.00    +0.000 F 
ATOM     23  C   UNL     1      -4.131  13.553  21.878  0.00  0.00    +0.000 A 
ATOM     24  C   UNL     1      -2.968  13.179  21.194  0.00  0.00    +0.000 A 
ENDBRANCH  15  18
ENDBRANCH  10  15
BRANCH   1  26
ATOM     25  C   UNL     1       2.157   3.131  21.668  0.00  0.00    +0.000 C 
ATOM     26  C   UNL     1       2.311   4.561  21.168  0.00  0.00    +0.000 C 
ENDBRANCH   1  26
TORSDOF 3
ENDMDL
MODEL 9
REMARK VINA RESULT:      -6.4      5.288      9.500
REMARK  Name = 
REMARK  4 active torsions:
REMARK  status: ('A' for Active; 'I' for Inactive)
REMARK    1  A    between atoms: C_1  and  C_2
REMARK    2  A    between atoms: C_2  and  N_3
REMARK    3  A    between atoms: N_12  and  S_13
REMARK    4  A    between atoms: S_13  and  C_16
REMARK                            x       y       z     vdW  Elec       q    Type
REMARK                         _______ _______ _______ _____ _____    ______ ____
ROOT
ATOM      1  N   UNL     1       2.826   4.560  19.478  0.00  0.00    +0.000 N 
ATOM      2  C   UNL     1       2.960   5.854  18.933  0.00  0.00    +0.000 A 
ATOM      3  C   UNL     1       3.699   5.997  17.781  0.00  0.00    +0.000 A 
ATOM      4  C   UNL     1       3.725   7.253  17.238  0.00  0.00    +0.000 A 
ATOM      5  N   UNL     1       3.035   8.284  17.740  0.00  0.00    +0.000 NA
ATOM      6  C   UNL     1       2.300   8.063  18.842  0.00  0.00    +0.000 A 
ATOM      7  N   UNL     1       1.485   9.066  19.295  0.00  0.00    +0.000 N 
ATOM      8  C   UNL     1       1.530  10.384  18.663  0.00  0.00    +0.000 C 
ATOM      9  C   UNL     1       0.102  10.940  18.474  0.00  0.00    +0.000 C 
ATOM     10  N   UNL     1      -0.710  10.887  19.735  0.00  0.00    +0.000 NA
ATOM     11  C   UNL     1      -0.754   9.452  20.214  0.00  0.00    +0.000 C 
ATOM     12  C   UNL     1       0.653   8.883  20.484  0.00  0.00    +0.000 C 
ATOM     13  N   UNL     1       2.263   6.870  19.457  0.00  0.00    +0.000 NA
ATOM     14  H   UNL     1       2.079   4.110  18.952  0.00  0.00    +0.000 HD
ENDROOT
BRANCH  10  15
ATOM     15  S   UNL     1      -0.293  12.031  20.941  0.00  0.00    +0.000 S 
ATOM     16  O   UNL     1       0.505  11.340  21.936  0.00  0.00    +0.000 OA
ATOM     17  O   UNL     1       0.196  13.225  20.305  0.00  0.00    +0.000 OA
BRANCH  15  18
ATOM     18  C   UNL     1      -1.839  12.444  21.740  0.00  0.00    +0.000 A 
ATOM     19  C   UNL     1      -2.885  12.995  20.992  0.00  0.00    +0.000 A 
ATOM     20  C   UNL     1      -4.127  13.214  21.600  0.00  0.00    +0.000 A 
ATOM     21  C   UNL     1      -4.317  12.865  22.934  0.00  0.00    +0.000 A 
ATOM     22  F   UNL     1      -5.515  13.054  23.505  0.00  0.00    +0.000 F 
ATOM     23  C   UNL     1      -3.286  12.302  23.680  0.00  0.00    +0.000 A 
ATOM     24  C   UNL     1      -2.036  12.097  23.086  0.00  0.00    +0.000 A 
ENDBRANCH  15  18
ENDBRANCH  10  15
BRANCH   1  26
ATOM     25  C   UNL     1       1.636   3.379  21.243  0.00  0.00    +0.000 C 
ATOM     26  C   UNL     1       2.535   4.562  20.910  0.00  0.00    +0.000 C 
ENDBRANCH   1  26
TORSDOF 3
ENDMDL
