MODEL 1
REMARK VINA RESULT:      -6.8      0.000      0.000
REMARK  Name = 
REMARK  5 active torsions:
REMARK  status: ('A' for Active; 'I' for Inactive)
REMARK    1  A    between atoms: C_1  and  O_2
REMARK    2  A    between atoms: O_2  and  C_3
REMARK    3  A    between atoms: N_15  and  C_16
REMARK    4  A    between atoms: C_18  and  C_19
REMARK    5  A    between atoms: C_19  and  O_20
REMARK                            x       y       z     vdW  Elec       q    Type
REMARK                         _______ _______ _______ _____ _____    ______ ____
ROOT
ATOM      1  C   UNL     1       4.872   5.008  17.115  0.00  0.00    +0.000 A 
ATOM      2  C   UNL     1       4.873   6.147  16.315  0.00  0.00    +0.000 A 
ATOM      3  C   UNL     1       4.127   7.242  16.688  0.00  0.00    +0.000 A 
ATOM      4  C   UNL     1       3.356   7.207  17.856  0.00  0.00    +0.000 A 
ATOM      5  C   UNL     1       2.581   8.430  18.132  0.00  0.00    +0.000 A 
ATOM      6  O   UNL     1       2.656   9.401  17.386  0.00  0.00    +0.000 OA
ATOM      7  C   UNL     1       1.709   8.472  19.305  0.00  0.00    +0.000 A 
ATOM      8  C   UNL     1       0.952   9.640  19.514  0.00  0.00    +0.000 A 
ATOM      9  C   UNL     1       0.109   9.739  20.611  0.00  0.00    +0.000 A 
ATOM     10  C   UNL     1       0.029   8.669  21.485  0.00  0.00    +0.000 A 
ATOM     11  C   UNL     1       0.788   7.506  21.264  0.00  0.00    +0.000 A 
ATOM     12  C   UNL     1       1.659   7.362  20.161  0.00  0.00    +0.000 A 
ATOM     13  N   UNL     1       2.450   6.204  19.884  0.00  0.00    +0.000 N 
ATOM     14  C   UNL     1       2.344   5.100  20.838  0.00  0.00    +0.000 C 
ATOM     15  C   UNL     1       3.299   6.078  18.724  0.00  0.00    +0.000 A 
ATOM     16  C   UNL     1       4.100   4.937  18.325  0.00  0.00    +0.000 A 
ENDROOT
BRANCH   1  18
ATOM     17  C   UNL     1       6.128   3.892  15.412  0.00  0.00    +0.000 C 
ATOM     18  O   UNL     1       5.565   3.885  16.725  0.00  0.00    +0.000 OA
ENDBRANCH   1  18
BRANCH  16  19
ATOM     19  C   UNL     1       4.178   3.654  19.156  0.00  0.00    +0.000 C 
BRANCH  19  20
ATOM     20  O   UNL     1       5.436   3.042  19.426  0.00  0.00    +0.000 OA
ATOM     21  H   UNL     1       5.255   2.247  19.959  0.00  0.00    +0.000 HD
ENDBRANCH  19  20
ENDBRANCH  16  19
TORSDOF 3
ENDMDL
MODEL 2
REMARK VINA RESULT:      -6.5      2.613      4.494
REMARK  Name = 
REMARK  5 active torsions:
REMARK  status: ('A' for Active; 'I' for Inactive)
REMARK    1  A    between atoms: C_1  and  O_2
REMARK    2  A    between atoms: O_2  and  C_3
REMARK    3  A    between atoms: N_15  and  C_16
REMARK    4  A    between atoms: C_18  and  C_19
REMARK    5  A    between atoms: C_19  and  O_20
REMARK                            x       y       z     vdW  Elec       q    Type
REMARK                         _______ _______ _______ _____ _____    ______ ____
ROOT
ATOM      1  C   UNL     1       6.403   4.991  15.560  0.00  0.00    +0.000 A 
ATOM      2  C   UNL     1       6.263   3.617  15.383  0.00  0.00    +0.000 A 
ATOM      3  C   UNL     1       5.316   2.930  16.107  0.00  0.00    +0.000 A 
ATOM      4  C   UNL     1       4.508   3.604  17.031  0.00  0.00    +0.000 A 
ATOM      5  C   UNL     1       3.552   2.754  17.763  0.00  0.00    +0.000 A 
ATOM      6  O   UNL     1       3.476   1.552  17.530  0.00  0.00    +0.000 OA
ATOM      7  C   UNL     1       2.696   3.359  18.782  0.00  0.00    +0.000 A 
ATOM      8  C   UNL     1       1.824   2.510  19.491  0.00  0.00    +0.000 A 
ATOM      9  C   UNL     1       0.988   3.027  20.468  0.00  0.00    +0.000 A 
ATOM     10  C   UNL     1       1.031   4.385  20.730  0.00  0.00    +0.000 A 
ATOM     11  C   UNL     1       1.908   5.223  20.018  0.00  0.00    +0.000 A 
ATOM     12  C   UNL     1       2.777   4.740  19.015  0.00  0.00    +0.000 A 
ATOM     13  N   UNL     1       3.692   5.541  18.262  0.00  0.00    +0.000 N 
ATOM     14  C   UNL     1       3.699   6.974  18.562  0.00  0.00    +0.000 C 
ATOM     15  C   UNL     1       4.594   5.005  17.272  0.00  0.00    +0.000 A 
ATOM     16  C   UNL     1       5.587   5.719  16.492  0.00  0.00    +0.000 A 
ENDROOT
BRANCH   1  18
ATOM     17  C   UNL     1       7.684   5.256  13.556  0.00  0.00    +0.000 C 
ATOM     18  O   UNL     1       7.386   5.681  14.887  0.00  0.00    +0.000 OA
ENDBRANCH   1  18
BRANCH  16  19
ATOM     19  C   UNL     1       5.793   7.230  16.605  0.00  0.00    +0.000 C 
BRANCH  19  20
ATOM     20  O   UNL     1       7.064   7.762  16.973  0.00  0.00    +0.000 OA
ATOM     21  H   UNL     1       7.664   7.605  16.223  0.00  0.00    +0.000 HD
ENDBRANCH  19  20
ENDBRANCH  16  19
TORSDOF 3
ENDMDL
MODEL 3
REMARK VINA RESULT:      -6.2      3.513      4.381
REMARK  Name = 
REMARK  5 active torsions:
REMARK  status: ('A' for Active; 'I' for Inactive)
REMARK    1  A    between atoms: C_1  and  O_2
REMARK    2  A    between atoms: O_2  and  C_3
REMARK    3  A    between atoms: N_15  and  C_16
REMARK    4  A    between atoms: C_18  and  C_19
REMARK    5  A    between atoms: C_19  and  O_20
REMARK                            x       y       z     vdW  Elec       q    Type
REMARK                         _______ _______ _______ _____ _____    ______ ____
ROOT
ATOM      1  C   UNL     1       6.561   4.998  15.282  0.00  0.00    +0.000 A 
ATOM      2  C   UNL     1       5.669   4.214  14.556  0.00  0.00    +0.000 A 
ATOM      3  C   UNL     1       4.525   3.746  15.160  0.00  0.00    +0.000 A 
ATOM      4  C   UNL     1       4.266   4.040  16.505  0.00  0.00    +0.000 A 
ATOM      5  C   UNL     1       3.023   3.459  17.044  0.00  0.00    +0.000 A 
ATOM      6  O   UNL     1       2.278   2.796  16.328  0.00  0.00    +0.000 OA
ATOM      7  C   UNL     1       2.689   3.671  18.451  0.00  0.00    +0.000 A 
ATOM      8  C   UNL     1       1.516   3.067  18.943  0.00  0.00    +0.000 A 
ATOM      9  C   UNL     1       1.147   3.234  20.268  0.00  0.00    +0.000 A 
ATOM     10  C   UNL     1       1.954   4.001  21.091  0.00  0.00    +0.000 A 
ATOM     11  C   UNL     1       3.124   4.598  20.589  0.00  0.00    +0.000 A 
ATOM     12  C   UNL     1       3.538   4.454  19.247  0.00  0.00    +0.000 A 
ATOM     13  N   UNL     1       4.719   5.032  18.683  0.00  0.00    +0.000 N 
ATOM     14  C   UNL     1       5.538   5.845  19.583  0.00  0.00    +0.000 C 
ATOM     15  C   UNL     1       5.131   4.830  17.315  0.00  0.00    +0.000 A 
ATOM     16  C   UNL     1       6.326   5.327  16.661  0.00  0.00    +0.000 A 
ENDROOT
BRANCH   1  18
ATOM     17  C   UNL     1       7.874   5.247  13.298  0.00  0.00    +0.000 C 
ATOM     18  O   UNL     1       7.738   5.423  14.709  0.00  0.00    +0.000 OA
ENDBRANCH   1  18
BRANCH  16  19
ATOM     19  C   UNL     1       7.348   6.214  17.376  0.00  0.00    +0.000 C 
BRANCH  19  20
ATOM     20  O   UNL     1       7.680   7.499  16.855  0.00  0.00    +0.000 OA
ATOM     21  H   UNL     1       8.418   7.369  16.233  0.00  0.00    +0.000 HD
ENDBRANCH  19  20
ENDBRANCH  16  19
TORSDOF 3
ENDMDL
MODEL 4
REMARK VINA RESULT:      -6.1      7.930      9.772
REMARK  Name = 
REMARK  5 active torsions:
REMARK  status: ('A' for Active; 'I' for Inactive)
REMARK    1  A    between atoms: C_1  and  O_2
REMARK    2  A    between atoms: O_2  and  C_3
REMARK    3  A    between atoms: N_15  and  C_16
REMARK    4  A    between atoms: C_18  and  C_19
REMARK    5  A    between atoms: C_19  and  O_20
REMARK                            x       y       z     vdW  Elec       q    Type
REMARK                         _______ _______ _______ _____ _____    ______ ____
ROOT
ATOM      1  C   UNL     1      -3.494  11.382  16.969  0.00  0.00    +0.000 A 
ATOM      2  C   UNL     1      -4.848  11.148  16.744  0.00  0.00    +0.000 A 
ATOM      3  C   UNL     1      -5.756  11.379  17.753  0.00  0.00    +0.000 A 
ATOM      4  C   UNL     1      -5.321  11.828  19.005  0.00  0.00    +0.000 A 
ATOM      5  C   UNL     1      -6.385  12.010  20.009  0.00  0.00    +0.000 A 
ATOM      6  O   UNL     1      -7.560  11.803  19.722  0.00  0.00    +0.000 OA
ATOM      7  C   UNL     1      -6.024  12.432  21.361  0.00  0.00    +0.000 A 
ATOM      8  C   UNL     1      -7.061  12.556  22.305  0.00  0.00    +0.000 A 
ATOM      9  C   UNL     1      -6.781  12.954  23.603  0.00  0.00    +0.000 A 
ATOM     10  C   UNL     1      -5.467  13.223  23.946  0.00  0.00    +0.000 A 
ATOM     11  C   UNL     1      -4.439  13.093  22.996  0.00  0.00    +0.000 A 
ATOM     12  C   UNL     1      -4.679  12.690  21.663  0.00  0.00    +0.000 A 
ATOM     13  N   UNL     1      -3.675  12.537  20.656  0.00  0.00    +0.000 N 
ATOM     14  C   UNL     1      -2.301  12.841  21.057  0.00  0.00    +0.000 C 
ATOM     15  C   UNL     1      -3.954  12.085  19.315  0.00  0.00    +0.000 A 
ATOM     16  C   UNL     1      -3.010  11.850  18.239  0.00  0.00    +0.000 A 
ENDROOT
BRANCH   1  18
ATOM     17  C   UNL     1      -2.999  10.273  14.908  0.00  0.00    +0.000 C 
ATOM     18  O   UNL     1      -2.568  11.099  15.990  0.00  0.00    +0.000 OA
ENDBRANCH   1  18
BRANCH  16  19
ATOM     19  C   UNL     1      -1.509  12.103  18.390  0.00  0.00    +0.000 C 
BRANCH  19  20
ATOM     20  O   UNL     1      -0.836  13.009  17.520  0.00  0.00    +0.000 OA
ATOM     21  H   UNL     1      -1.171  12.839  16.621  0.00  0.00    +0.000 HD
ENDBRANCH  19  20
ENDBRANCH  16  19
TORSDOF 3
ENDMDL
MODEL 5
REMARK VINA RESULT:      -5.9      2.079      6.266
REMARK  Name = 
REMARK  5 active torsions:
REMARK  status: ('A' for Active; 'I' for Inactive)
REMARK    1  A    between atoms: C_1  and  O_2
REMARK    2  A    between atoms: O_2  and  C_3
REMARK    3  A    between atoms: N_15  and  C_16
REMARK    4  A    between atoms: C_18  and  C_19
REMARK    5  A    between atoms: C_19  and  O_20
REMARK                            x       y       z     vdW  Elec       q    Type
REMARK                         _______ _______ _______ _____ _____    ______ ____
ROOT
ATOM      1  C   UNL     1       1.329   8.891  20.106  0.00  0.00    +0.000 A 
ATOM      2  C   UNL     1       0.828   8.137  21.164  0.00  0.00    +0.000 A 
ATOM      3  C   UNL     1       1.100   6.790  21.229  0.00  0.00    +0.000 A 
ATOM      4  C   UNL     1       1.860   6.174  20.228  0.00  0.00    +0.000 A 
ATOM      5  C   UNL     1       2.058   4.723  20.396  0.00  0.00    +0.000 A 
ATOM      6  O   UNL     1       1.601   4.136  21.372  0.00  0.00    +0.000 OA
ATOM      7  C   UNL     1       2.800   3.982  19.377  0.00  0.00    +0.000 A 
ATOM      8  C   UNL     1       2.934   2.591  19.549  0.00  0.00    +0.000 A 
ATOM      9  C   UNL     1       3.628   1.836  18.617  0.00  0.00    +0.000 A 
ATOM     10  C   UNL     1       4.180   2.477  17.521  0.00  0.00    +0.000 A 
ATOM     11  C   UNL     1       4.037   3.866  17.358  0.00  0.00    +0.000 A 
ATOM     12  C   UNL     1       3.339   4.674  18.283  0.00  0.00    +0.000 A 
ATOM     13  N   UNL     1       3.158   6.088  18.168  0.00  0.00    +0.000 N 
ATOM     14  C   UNL     1       3.766   6.729  17.001  0.00  0.00    +0.000 C 
ATOM     15  C   UNL     1       2.403   6.874  19.113  0.00  0.00    +0.000 A 
ATOM     16  C   UNL     1       2.120   8.296  19.064  0.00  0.00    +0.000 A 
ENDROOT
BRANCH   1  18
ATOM     17  C   UNL     1      -0.357  10.587  20.152  0.00  0.00    +0.000 C 
ATOM     18  O   UNL     1       1.016  10.227  19.996  0.00  0.00    +0.000 OA
ENDBRANCH   1  18
BRANCH  16  19
ATOM     19  C   UNL     1       2.649   9.204  17.952  0.00  0.00    +0.000 C 
BRANCH  19  20
ATOM     20  O   UNL     1       1.802  10.182  17.353  0.00  0.00    +0.000 OA
ATOM     21  H   UNL     1       1.294  10.596  18.073  0.00  0.00    +0.000 HD
ENDBRANCH  19  20
ENDBRANCH  16  19
TORSDOF 3
ENDMDL
MODEL 6
REMARK VINA RESULT:      -5.9      1.597      3.328
REMARK  Name = 
REMARK  5 active torsions:
REMARK  status: ('A' for Active; 'I' for Inactive)
REMARK    1  A    between atoms: C_1  and  O_2
REMARK    2  A    between atoms: O_2  and  C_3
REMARK    3  A    between atoms: N_15  and  C_16
REMARK    4  A    between atoms: C_18  and  C_19
REMARK    5  A    between atoms: C_19  and  O_20
REMARK                            x       y       z     vdW  Elec       q    Type
REMARK                         _______ _______ _______ _____ _____    ______ ____
ROOT
ATOM      1  C   UNL     1       3.546   3.584  19.522  0.00  0.00    +0.000 A 
ATOM      2  C   UNL     1       2.736   3.658  20.653  0.00  0.00    +0.000 A 
ATOM      3  C   UNL     1       2.052   4.821  20.925  0.00  0.00    +0.000 A 
ATOM      4  C   UNL     1       2.182   5.931  20.083  0.00  0.00    +0.000 A 
ATOM      5  C   UNL     1       1.422   7.124  20.497  0.00  0.00    +0.000 A 
ATOM      6  O   UNL     1       0.711   7.099  21.497  0.00  0.00    +0.000 OA
ATOM      7  C   UNL     1       1.531   8.349  19.706  0.00  0.00    +0.000 A 
ATOM      8  C   UNL     1       0.823   9.481  20.154  0.00  0.00    +0.000 A 
ATOM      9  C   UNL     1       0.887  10.670  19.445  0.00  0.00    +0.000 A 
ATOM     10  C   UNL     1       1.657  10.718  18.296  0.00  0.00    +0.000 A 
ATOM     11  C   UNL     1       2.361   9.582  17.859  0.00  0.00    +0.000 A 
ATOM     12  C   UNL     1       2.326   8.350  18.551  0.00  0.00    +0.000 A 
ATOM     13  N   UNL     1       3.023   7.166  18.158  0.00  0.00    +0.000 N 
ATOM     14  C   UNL     1       3.818   7.255  16.932  0.00  0.00    +0.000 C 
ATOM     15  C   UNL     1       2.994   5.936  18.912  0.00  0.00    +0.000 A 
ATOM     16  C   UNL     1       3.699   4.700  18.630  0.00  0.00    +0.000 A 
ENDROOT
BRANCH   1  18
ATOM     17  C   UNL     1       3.606   1.365  18.632  0.00  0.00    +0.000 C 
ATOM     18  O   UNL     1       4.283   2.449  19.269  0.00  0.00    +0.000 OA
ENDBRANCH   1  18
BRANCH  16  19
ATOM     19  C   UNL     1       4.591   4.522  17.399  0.00  0.00    +0.000 C 
BRANCH  19  20
ATOM     20  O   UNL     1       5.888   3.944  17.523  0.00  0.00    +0.000 OA
ATOM     21  H   UNL     1       6.528   4.677  17.490  0.00  0.00    +0.000 HD
ENDBRANCH  19  20
ENDBRANCH  16  19
TORSDOF 3
ENDMDL
MODEL 7
REMARK VINA RESULT:      -5.8      1.581      3.101
REMARK  Name = 
REMARK  5 active torsions:
REMARK  status: ('A' for Active; 'I' for Inactive)
REMARK    1  A    between atoms: C_1  and  O_2
REMARK    2  A    between atoms: O_2  and  C_3
REMARK    3  A    between atoms: N_15  and  C_16
REMARK    4  A    between atoms: C_18  and  C_19
REMARK    5  A    between atoms: C_19  and  O_20
REMARK                            x       y       z     vdW  Elec       q    Type
REMARK                         _______ _______ _______ _____ _____    ______ ____
ROOT
ATOM      1  C   UNL     1       5.140   4.732  17.636  0.00  0.00    +0.000 A 
ATOM      2  C   UNL     1       4.768   3.877  18.671  0.00  0.00    +0.000 A 
ATOM      3  C   UNL     1       3.792   4.268  19.559  0.00  0.00    +0.000 A 
ATOM      4  C   UNL     1       3.189   5.526  19.438  0.00  0.00    +0.000 A 
ATOM      5  C   UNL     1       2.180   5.837  20.466  0.00  0.00    +0.000 A 
ATOM      6  O   UNL     1       1.893   5.017  21.333  0.00  0.00    +0.000 OA
ATOM      7  C   UNL     1       1.528   7.146  20.451  0.00  0.00    +0.000 A 
ATOM      8  C   UNL     1       0.600   7.425  21.473  0.00  0.00    +0.000 A 
ATOM      9  C   UNL     1      -0.052   8.648  21.509  0.00  0.00    +0.000 A 
ATOM     10  C   UNL     1       0.231   9.581  20.527  0.00  0.00    +0.000 A 
ATOM     11  C   UNL     1       1.162   9.292  19.513  0.00  0.00    +0.000 A 
ATOM     12  C   UNL     1       1.848   8.060  19.437  0.00  0.00    +0.000 A 
ATOM     13  N   UNL     1       2.806   7.712  18.434  0.00  0.00    +0.000 N 
ATOM     14  C   UNL     1       3.069   8.722  17.407  0.00  0.00    +0.000 C 
ATOM     15  C   UNL     1       3.518   6.457  18.412  0.00  0.00    +0.000 A 
ATOM     16  C   UNL     1       4.538   6.027  17.474  0.00  0.00    +0.000 A 
ENDROOT
BRANCH   1  18
ATOM     17  C   UNL     1       7.491   4.508  17.261  0.00  0.00    +0.000 C 
ATOM     18  O   UNL     1       6.155   4.380  16.775  0.00  0.00    +0.000 OA
ENDBRANCH   1  18
BRANCH  16  19
ATOM     19  C   UNL     1       4.991   6.891  16.296  0.00  0.00    +0.000 C 
BRANCH  19  20
ATOM     20  O   UNL     1       5.328   6.292  15.047  0.00  0.00    +0.000 OA
ATOM     21  H   UNL     1       4.736   6.680  14.378  0.00  0.00    +0.000 HD
ENDBRANCH  19  20
ENDBRANCH  16  19
TORSDOF 3
ENDMDL
MODEL 8
REMARK VINA RESULT:      -5.8      4.150      8.776
REMARK  Name = 
REMARK  5 active torsions:
REMARK  status: ('A' for Active; 'I' for Inactive)
REMARK    1  A    between atoms: C_1  and  O_2
REMARK    2  A    between atoms: O_2  and  C_3
REMARK    3  A    between atoms: N_15  and  C_16
REMARK    4  A    between atoms: C_18  and  C_19
REMARK    5  A    between atoms: C_19  and  O_20
REMARK                            x       y       z     vdW  Elec       q    Type
REMARK                         _______ _______ _______ _____ _____    ______ ____
ROOT
ATOM      1  C   UNL     1      -2.474  12.420  22.416  0.00  0.00    +0.000 A 
ATOM      2  C   UNL     1      -1.972  11.607  23.429  0.00  0.00    +0.000 A 
ATOM      3  C   UNL     1      -1.021  10.658  23.131  0.00  0.00    +0.000 A 
ATOM      4  C   UNL     1      -0.573  10.494  21.815  0.00  0.00    +0.000 A 
ATOM      5  C   UNL     1       0.424   9.427  21.621  0.00  0.00    +0.000 A 
ATOM      6  O   UNL     1       0.833   8.770  22.574  0.00  0.00    +0.000 OA
ATOM      7  C   UNL     1       0.918   9.149  20.274  0.00  0.00    +0.000 A 
ATOM      8  C   UNL     1       1.839   8.095  20.120  0.00  0.00    +0.000 A 
ATOM      9  C   UNL     1       2.344   7.786  18.866  0.00  0.00    +0.000 A 
ATOM     10  C   UNL     1       1.923   8.531  17.778  0.00  0.00    +0.000 A 
ATOM     11  C   UNL     1       1.001   9.580  17.944  0.00  0.00    +0.000 A 
ATOM     12  C   UNL     1       0.461   9.929  19.202  0.00  0.00    +0.000 A 
ATOM     13  N   UNL     1      -0.481  10.980  19.429  0.00  0.00    +0.000 N 
ATOM     14  C   UNL     1      -0.893  11.751  18.255  0.00  0.00    +0.000 C 
ATOM     15  C   UNL     1      -1.042  11.282  20.724  0.00  0.00    +0.000 A 
ATOM     16  C   UNL     1      -2.033  12.288  21.054  0.00  0.00    +0.000 A 
ENDROOT
BRANCH   1  18
ATOM     17  C   UNL     1      -4.134  13.214  23.944  0.00  0.00    +0.000 C 
ATOM     18  O   UNL     1      -3.468  13.333  22.686  0.00  0.00    +0.000 OA
ENDBRANCH   1  18
BRANCH  16  19
ATOM     19  C   UNL     1      -2.622  13.239  20.010  0.00  0.00    +0.000 C 
BRANCH  19  20
ATOM     20  O   UNL     1      -4.029  13.293  19.793  0.00  0.00    +0.000 OA
ATOM     21  H   UNL     1      -4.315  12.390  19.565  0.00  0.00    +0.000 HD
ENDBRANCH  19  20
ENDBRANCH  16  19
TORSDOF 3
ENDMDL
MODEL 9
REMARK VINA RESULT:      -5.8      3.477      6.311
REMARK  Name = 
REMARK  5 active torsions:
REMARK  status: ('A' for Active; 'I' for Inactive)
REMARK    1  A    between atoms: C_1  and  O_2
REMARK    2  A    between atoms: O_2  and  C_3
REMARK    3  A    between atoms: N_15  and  C_16
REMARK    4  A    between atoms: C_18  and  C_19
REMARK    5  A    between atoms: C_19  and  O_20
REMARK                            x       y       z     vdW  Elec       q    Type
REMARK                         _______ _______ _______ _____ _____    ______ ____
ROOT
ATOM      1  C   UNL     1       1.550   8.426  19.940  0.00  0.00    +0.000 A 
ATOM      2  C   UNL     1       1.512   8.153  21.305  0.00  0.00    +0.000 A 
ATOM      3  C   UNL     1       0.717   8.914  22.131  0.00  0.00    +0.000 A 
ATOM      4  C   UNL     1      -0.037   9.971  21.606  0.00  0.00    +0.000 A 
ATOM      5  C   UNL     1      -0.826  10.727  22.595  0.00  0.00    +0.000 A 
ATOM      6  O   UNL     1      -0.822  10.405  23.780  0.00  0.00    +0.000 OA
ATOM      7  C   UNL     1      -1.610  11.878  22.151  0.00  0.00    +0.000 A 
ATOM      8  C   UNL     1      -2.318  12.603  23.129  0.00  0.00    +0.000 A 
ATOM      9  C   UNL     1      -3.081  13.703  22.768  0.00  0.00    +0.000 A 
ATOM     10  C   UNL     1      -3.127  14.070  21.435  0.00  0.00    +0.000 A 
ATOM     11  C   UNL     1      -2.414  13.340  20.467  0.00  0.00    +0.000 A 
ATOM     12  C   UNL     1      -1.625  12.214  20.790  0.00  0.00    +0.000 A 
ATOM     13  N   UNL     1      -0.876  11.438  19.851  0.00  0.00    +0.000 N 
ATOM     14  C   UNL     1      -0.960  11.853  18.450  0.00  0.00    +0.000 C 
ATOM     15  C   UNL     1      -0.048  10.316  20.224  0.00  0.00    +0.000 A 
ATOM     16  C   UNL     1       0.785   9.497  19.364  0.00  0.00    +0.000 A 
ENDROOT
BRANCH   1  18
ATOM     17  C   UNL     1       2.673   6.364  19.484  0.00  0.00    +0.000 C 
ATOM     18  O   UNL     1       2.386   7.713  19.112  0.00  0.00    +0.000 OA
ENDBRANCH   1  18
BRANCH  16  19
ATOM     19  C   UNL     1       0.869   9.712  17.852  0.00  0.00    +0.000 C 
BRANCH  19  20
ATOM     20  O   UNL     1       2.099  10.096  17.243  0.00  0.00    +0.000 OA
ATOM     21  H   UNL     1       1.882  10.436  16.357  0.00  0.00    +0.000 HD
ENDBRANCH  19  20
ENDBRANCH  16  19
TORSDOF 3
ENDMDL
