MODEL 1
REMARK VINA RESULT:      -7.0      0.000      0.000
REMARK  Name = 
REMARK  9 active torsions:
REMARK  status: ('A' for Active; 'I' for Inactive)
REMARK    1  A    between atoms: C_1  and  C_2
REMARK    2  A    between atoms: C_2  and  N_3
REMARK    3  A    between atoms: N_3  and  C_4
REMARK    4  A    between atoms: N_3  and  S_10
REMARK    5  A    between atoms: S_10  and  C_13
REMARK    6  A    between atoms: C_15  and  O_16
REMARK    7  A    between atoms: O_16  and  C_17
REMARK    8  A    between atoms: C_20  and  O_21
REMARK    9  A    between atoms: O_21  and  C_22
REMARK                            x       y       z     vdW  Elec       q    Type
REMARK                         _______ _______ _______ _____ _____    ______ ____
ROOT
ATOM      1  S   UNL     1       5.465   4.725  18.875  0.00  0.00    +0.000 S 
ATOM      2  O   UNL     1       6.413   5.319  19.789  0.00  0.00    +0.000 OA
ATOM      3  O   UNL     1       5.155   3.308  18.977  0.00  0.00    +0.000 OA
ENDROOT
BRANCH   1   4
ATOM      4  C   UNL     1       6.046   5.033  17.214  0.00  0.00    +0.000 A 
ATOM      5  C   UNL     1       5.489   4.207  16.210  0.00  0.00    +0.000 A 
ATOM      6  C   UNL     1       5.982   4.197  14.901  0.00  0.00    +0.000 A 
ATOM      7  C   UNL     1       7.018   5.056  14.571  0.00  0.00    +0.000 A 
ATOM      8  C   UNL     1       7.567   5.885  15.551  0.00  0.00    +0.000 A 
ATOM      9  C   UNL     1       7.107   5.884  16.882  0.00  0.00    +0.000 A 
BRANCH   6  10
ATOM     10  O   UNL     1       5.395   3.292  14.064  0.00  0.00    +0.000 OA
ATOM     11  C   UNL     1       5.727   3.378  12.682  0.00  0.00    +0.000 C 
ENDBRANCH   6  10
BRANCH   9  12
ATOM     12  O   UNL     1       7.905   6.670  17.657  0.00  0.00    +0.000 OA
ATOM     13  C   UNL     1       7.747   8.072  17.610  0.00  0.00    +0.000 C 
ENDBRANCH   9  12
ENDBRANCH   1   4
BRANCH   1  14
ATOM     14  N   UNL     1       3.932   5.553  18.992  0.00  0.00    +0.000 N 
BRANCH  14  15
ATOM     15  C   UNL     1       2.838   4.633  19.274  0.00  0.00    +0.000 A 
ATOM     16  C   UNL     1       2.223   3.977  18.202  0.00  0.00    +0.000 A 
ATOM     17  C   UNL     1       1.155   3.103  18.406  0.00  0.00    +0.000 A 
ATOM     18  C   UNL     1       0.685   2.872  19.690  0.00  0.00    +0.000 A 
ATOM     19  C   UNL     1       1.265   3.542  20.768  0.00  0.00    +0.000 A 
ATOM     20  C   UNL     1       2.324   4.439  20.559  0.00  0.00    +0.000 A 
ENDBRANCH  14  15
BRANCH  14  22
ATOM     21  C   UNL     1       2.685   7.642  18.277  0.00  0.00    +0.000 C 
ATOM     22  C   UNL     1       3.728   6.587  17.929  0.00  0.00    +0.000 C 
ENDBRANCH  14  22
ENDBRANCH   1  14
TORSDOF 6
ENDMDL
MODEL 2
REMARK VINA RESULT:      -7.0      0.175      1.040
REMARK  Name = 
REMARK  9 active torsions:
REMARK  status: ('A' for Active; 'I' for Inactive)
REMARK    1  A    between atoms: C_1  and  C_2
REMARK    2  A    between atoms: C_2  and  N_3
REMARK    3  A    between atoms: N_3  and  C_4
REMARK    4  A    between atoms: N_3  and  S_10
REMARK    5  A    between atoms: S_10  and  C_13
REMARK    6  A    between atoms: C_15  and  O_16
REMARK    7  A    between atoms: O_16  and  C_17
REMARK    8  A    between atoms: C_20  and  O_21
REMARK    9  A    between atoms: O_21  and  C_22
REMARK                            x       y       z     vdW  Elec       q    Type
REMARK                         _______ _______ _______ _____ _____    ______ ____
ROOT
ATOM      1  S   UNL     1       5.415   4.682  18.965  0.00  0.00    +0.000 S 
ATOM      2  O   UNL     1       6.352   5.221  19.924  0.00  0.00    +0.000 OA
ATOM      3  O   UNL     1       5.080   3.268  19.000  0.00  0.00    +0.000 OA
ENDROOT
BRANCH   1   4
ATOM      4  C   UNL     1       6.038   5.051  17.332  0.00  0.00    +0.000 A 
ATOM      5  C   UNL     1       5.593   4.190  16.301  0.00  0.00    +0.000 A 
ATOM      6  C   UNL     1       6.140   4.232  15.015  0.00  0.00    +0.000 A 
ATOM      7  C   UNL     1       7.115   5.175  14.733  0.00  0.00    +0.000 A 
ATOM      8  C   UNL     1       7.553   6.037  15.739  0.00  0.00    +0.000 A 
ATOM      9  C   UNL     1       7.039   5.987  17.049  0.00  0.00    +0.000 A 
BRANCH   6  10
ATOM     10  O   UNL     1       5.664   3.288  14.149  0.00  0.00    +0.000 OA
ATOM     11  C   UNL     1       5.970   3.463  12.769  0.00  0.00    +0.000 C 
ENDBRANCH   6  10
BRANCH   9  12
ATOM     12  O   UNL     1       7.737   6.829  17.862  0.00  0.00    +0.000 OA
ATOM     13  C   UNL     1       7.734   8.214  17.586  0.00  0.00    +0.000 C 
ENDBRANCH   9  12
ENDBRANCH   1   4
BRANCH   1  14
ATOM     14  N   UNL     1       3.893   5.530  19.085  0.00  0.00    +0.000 N 
BRANCH  14  15
ATOM     15  C   UNL     1       2.777   4.618  19.295  0.00  0.00    +0.000 A 
ATOM     16  C   UNL     1       2.349   4.376  20.604  0.00  0.00    +0.000 A 
ATOM     17  C   UNL     1       1.300   3.494  20.871  0.00  0.00    +0.000 A 
ATOM     18  C   UNL     1       0.662   2.842  19.827  0.00  0.00    +0.000 A 
ATOM     19  C   UNL     1       1.096   3.048  18.516  0.00  0.00    +0.000 A 
ATOM     20  C   UNL     1       2.167   3.916  18.252  0.00  0.00    +0.000 A 
ENDBRANCH  14  15
BRANCH  14  22
ATOM     21  C   UNL     1       2.560   7.552  18.334  0.00  0.00    +0.000 C 
ATOM     22  C   UNL     1       3.733   6.617  18.067  0.00  0.00    +0.000 C 
ENDBRANCH  14  22
ENDBRANCH   1  14
TORSDOF 6
ENDMDL
MODEL 3
REMARK VINA RESULT:      -7.0      1.423      2.790
REMARK  Name = 
REMARK  9 active torsions:
REMARK  status: ('A' for Active; 'I' for Inactive)
REMARK    1  A    between atoms: C_1  and  C_2
REMARK    2  A    between atoms: C_2  and  N_3
REMARK    3  A    between atoms: N_3  and  C_4
REMARK    4  A    between atoms: N_3  and  S_10
REMARK    5  A    between atoms: S_10  and  C_13
REMARK    6  A    between atoms: C_15  and  O_16
REMARK    7  A    between atoms: O_16  and  C_17
REMARK    8  A    between atoms: C_20  and  O_21
REMARK    9  A    between atoms: O_21  and  C_22
REMARK                            x       y       z     vdW  Elec       q    Type
REMARK                         _______ _______ _______ _____ _____    ______ ____
ROOT
ATOM      1  S   UNL     1       3.879   3.129  18.530  0.00  0.00    +0.000 S 
ATOM      2  O   UNL     1       4.271   3.350  19.903  0.00  0.00    +0.000 OA
ATOM      3  O   UNL     1       3.798   1.772  18.013  0.00  0.00    +0.000 OA
ENDROOT
BRANCH   1   4
ATOM      4  C   UNL     1       5.009   4.039  17.489  0.00  0.00    +0.000 A 
ATOM      5  C   UNL     1       4.763   3.950  16.099  0.00  0.00    +0.000 A 
ATOM      6  C   UNL     1       5.668   4.446  15.154  0.00  0.00    +0.000 A 
ATOM      7  C   UNL     1       6.817   5.080  15.597  0.00  0.00    +0.000 A 
ATOM      8  C   UNL     1       7.063   5.184  16.967  0.00  0.00    +0.000 A 
ATOM      9  C   UNL     1       6.181   4.662  17.932  0.00  0.00    +0.000 A 
BRANCH   6  10
ATOM     10  O   UNL     1       5.330   4.218  13.850  0.00  0.00    +0.000 OA
ATOM     11  C   UNL     1       6.343   3.680  13.004  0.00  0.00    +0.000 C 
ENDBRANCH   6  10
BRANCH   9  12
ATOM     12  O   UNL     1       6.728   4.767  19.176  0.00  0.00    +0.000 OA
ATOM     13  C   UNL     1       7.778   5.686  19.392  0.00  0.00    +0.000 C 
ENDBRANCH   9  12
ENDBRANCH   1   4
BRANCH   1  14
ATOM     14  N   UNL     1       2.309   3.837  18.243  0.00  0.00    +0.000 N 
BRANCH  14  15
ATOM     15  C   UNL     1       2.200   5.171  18.819  0.00  0.00    +0.000 A 
ATOM     16  C   UNL     1       2.515   6.273  18.018  0.00  0.00    +0.000 A 
ATOM     17  C   UNL     1       2.452   7.574  18.520  0.00  0.00    +0.000 A 
ATOM     18  C   UNL     1       2.071   7.790  19.836  0.00  0.00    +0.000 A 
ATOM     19  C   UNL     1       1.783   6.700  20.659  0.00  0.00    +0.000 A 
ATOM     20  C   UNL     1       1.869   5.391  20.159  0.00  0.00    +0.000 A 
ENDBRANCH  14  15
BRANCH  14  22
ATOM     21  C   UNL     1       0.957   2.487  19.911  0.00  0.00    +0.000 C 
ATOM     22  C   UNL     1       1.174   2.883  18.456  0.00  0.00    +0.000 C 
ENDBRANCH  14  22
ENDBRANCH   1  14
TORSDOF 6
ENDMDL
MODEL 4
REMARK VINA RESULT:      -6.9      1.390      2.866
REMARK  Name = 
REMARK  9 active torsions:
REMARK  status: ('A' for Active; 'I' for Inactive)
REMARK    1  A    between atoms: C_1  and  C_2
REMARK    2  A    between atoms: C_2  and  N_3
REMARK    3  A    between atoms: N_3  and  C_4
REMARK    4  A    between atoms: N_3  and  S_10
REMARK    5  A    between atoms: S_10  and  C_13
REMARK    6  A    between atoms: C_15  and  O_16
REMARK    7  A    between atoms: O_16  and  C_17
REMARK    8  A    between atoms: C_20  and  O_21
REMARK    9  A    between atoms: O_21  and  C_22
REMARK                            x       y       z     vdW  Elec       q    Type
REMARK                         _______ _______ _______ _____ _____    ______ ____
ROOT
ATOM      1  S   UNL     1       4.011   3.298  18.484  0.00  0.00    +0.000 S 
ATOM      2  O   UNL     1       4.418   3.661  19.822  0.00  0.00    +0.000 OA
ATOM      3  O   UNL     1       3.883   1.895  18.125  0.00  0.00    +0.000 OA
ENDROOT
BRANCH   1   4
ATOM      4  C   UNL     1       5.167   4.044  17.345  0.00  0.00    +0.000 A 
ATOM      5  C   UNL     1       4.799   3.989  15.980  0.00  0.00    +0.000 A 
ATOM      6  C   UNL     1       5.684   4.355  14.960  0.00  0.00    +0.000 A 
ATOM      7  C   UNL     1       6.940   4.827  15.302  0.00  0.00    +0.000 A 
ATOM      8  C   UNL     1       7.309   4.897  16.646  0.00  0.00    +0.000 A 
ATOM      9  C   UNL     1       6.445   4.501  17.685  0.00  0.00    +0.000 A 
BRANCH   6  10
ATOM     10  O   UNL     1       5.214   4.174  13.690  0.00  0.00    +0.000 OA
ATOM     11  C   UNL     1       6.079   3.519  12.767  0.00  0.00    +0.000 C 
ENDBRANCH   6  10
BRANCH   9  12
ATOM     12  O   UNL     1       7.100   4.531  18.880  0.00  0.00    +0.000 OA
ATOM     13  C   UNL     1       7.502   5.775  19.415  0.00  0.00    +0.000 C 
ENDBRANCH   9  12
ENDBRANCH   1   4
BRANCH   1  14
ATOM     14  N   UNL     1       2.465   4.022  18.119  0.00  0.00    +0.000 N 
BRANCH  14  15
ATOM     15  C   UNL     1       2.335   5.351  18.702  0.00  0.00    +0.000 A 
ATOM     16  C   UNL     1       1.911   5.460  20.030  0.00  0.00    +0.000 A 
ATOM     17  C   UNL     1       1.745   6.706  20.636  0.00  0.00    +0.000 A 
ATOM     18  C   UNL     1       2.004   7.864  19.920  0.00  0.00    +0.000 A 
ATOM     19  C   UNL     1       2.399   7.776  18.584  0.00  0.00    +0.000 A 
ATOM     20  C   UNL     1       2.542   6.522  17.968  0.00  0.00    +0.000 A 
ENDBRANCH  14  15
BRANCH  14  22
ATOM     21  C   UNL     1       1.101   2.559  19.678  0.00  0.00    +0.000 C 
ATOM     22  C   UNL     1       1.313   3.075  18.261  0.00  0.00    +0.000 C 
ENDBRANCH  14  22
ENDBRANCH   1  14
TORSDOF 6
ENDMDL
MODEL 5
REMARK VINA RESULT:      -6.7      2.246      5.159
REMARK  Name = 
REMARK  9 active torsions:
REMARK  status: ('A' for Active; 'I' for Inactive)
REMARK    1  A    between atoms: C_1  and  C_2
REMARK    2  A    between atoms: C_2  and  N_3
REMARK    3  A    between atoms: N_3  and  C_4
REMARK    4  A    between atoms: N_3  and  S_10
REMARK    5  A    between atoms: S_10  and  C_13
REMARK    6  A    between atoms: C_15  and  O_16
REMARK    7  A    between atoms: O_16  and  C_17
REMARK    8  A    between atoms: C_20  and  O_21
REMARK    9  A    between atoms: O_21  and  C_22
REMARK                            x       y       z     vdW  Elec       q    Type
REMARK                         _______ _______ _______ _____ _____    ______ ____
ROOT
ATOM      1  S   UNL     1       5.083   5.832  17.649  0.00  0.00    +0.000 S 
ATOM      2  O   UNL     1       5.841   5.289  18.753  0.00  0.00    +0.000 OA
ATOM      3  O   UNL     1       5.715   6.766  16.731  0.00  0.00    +0.000 OA
ENDROOT
BRANCH   1   4
ATOM      4  C   UNL     1       3.636   6.632  18.326  0.00  0.00    +0.000 A 
ATOM      5  C   UNL     1       3.242   7.827  17.678  0.00  0.00    +0.000 A 
ATOM      6  C   UNL     1       2.253   8.662  18.206  0.00  0.00    +0.000 A 
ATOM      7  C   UNL     1       1.612   8.285  19.375  0.00  0.00    +0.000 A 
ATOM      8  C   UNL     1       1.985   7.102  20.016  0.00  0.00    +0.000 A 
ATOM      9  C   UNL     1       3.002   6.265  19.517  0.00  0.00    +0.000 A 
BRANCH   6  10
ATOM     10  O   UNL     1       2.035   9.818  17.511  0.00  0.00    +0.000 OA
ATOM     11  C   UNL     1       1.768  10.991  18.273  0.00  0.00    +0.000 C 
ENDBRANCH   6  10
BRANCH   9  12
ATOM     12  O   UNL     1       3.265   5.265  20.404  0.00  0.00    +0.000 OA
ATOM     13  C   UNL     1       2.200   4.695  21.137  0.00  0.00    +0.000 C 
ENDBRANCH   9  12
ENDBRANCH   1   4
BRANCH   1  14
ATOM     14  N   UNL     1       4.474   4.533  16.655  0.00  0.00    +0.000 N 
BRANCH  14  15
ATOM     15  C   UNL     1       3.512   3.705  17.370  0.00  0.00    +0.000 A 
ATOM     16  C   UNL     1       3.980   2.583  18.063  0.00  0.00    +0.000 A 
ATOM     17  C   UNL     1       3.105   1.739  18.747  0.00  0.00    +0.000 A 
ATOM     18  C   UNL     1       1.745   2.006  18.749  0.00  0.00    +0.000 A 
ATOM     19  C   UNL     1       1.256   3.103  18.038  0.00  0.00    +0.000 A 
ATOM     20  C   UNL     1       2.134   3.938  17.330  0.00  0.00    +0.000 A 
ENDBRANCH  14  15
BRANCH  14  22
ATOM     21  C   UNL     1       5.565   4.249  14.383  0.00  0.00    +0.000 C 
ATOM     22  C   UNL     1       5.535   3.846  15.852  0.00  0.00    +0.000 C 
ENDBRANCH  14  22
ENDBRANCH   1  14
TORSDOF 6
ENDMDL
MODEL 6
REMARK VINA RESULT:      -6.6      2.207      5.114
REMARK  Name = 
REMARK  9 active torsions:
REMARK  status: ('A' for Active; 'I' for Inactive)
REMARK    1  A    between atoms: C_1  and  C_2
REMARK    2  A    between atoms: C_2  and  N_3
REMARK    3  A    between atoms: N_3  and  C_4
REMARK    4  A    between atoms: N_3  and  S_10
REMARK    5  A    between atoms: S_10  and  C_13
REMARK    6  A    between atoms: C_15  and  O_16
REMARK    7  A    between atoms: O_16  and  C_17
REMARK    8  A    between atoms: C_20  and  O_21
REMARK    9  A    between atoms: O_21  and  C_22
REMARK                            x       y       z     vdW  Elec       q    Type
REMARK                         _______ _______ _______ _____ _____    ______ ____
ROOT
ATOM      1  S   UNL     1       5.145   5.732  17.673  0.00  0.00    +0.000 S 
ATOM      2  O   UNL     1       5.891   5.150  18.765  0.00  0.00    +0.000 OA
ATOM      3  O   UNL     1       5.790   6.691  16.791  0.00  0.00    +0.000 OA
ENDROOT
BRANCH   1   4
ATOM      4  C   UNL     1       3.698   6.520  18.363  0.00  0.00    +0.000 A 
ATOM      5  C   UNL     1       3.301   7.723  17.735  0.00  0.00    +0.000 A 
ATOM      6  C   UNL     1       2.311   8.549  18.276  0.00  0.00    +0.000 A 
ATOM      7  C   UNL     1       1.671   8.152  19.440  0.00  0.00    +0.000 A 
ATOM      8  C   UNL     1       2.047   6.960  20.061  0.00  0.00    +0.000 A 
ATOM      9  C   UNL     1       3.065   6.133  19.550  0.00  0.00    +0.000 A 
BRANCH   6  10
ATOM     10  O   UNL     1       2.090   9.715  17.599  0.00  0.00    +0.000 OA
ATOM     11  C   UNL     1       1.266  10.687  18.235  0.00  0.00    +0.000 C 
ENDBRANCH   6  10
BRANCH   9  12
ATOM     12  O   UNL     1       3.330   5.119  20.420  0.00  0.00    +0.000 OA
ATOM     13  C   UNL     1       2.273   4.560  21.170  0.00  0.00    +0.000 C 
ENDBRANCH   9  12
ENDBRANCH   1   4
BRANCH   1  14
ATOM     14  N   UNL     1       4.536   4.469  16.633  0.00  0.00    +0.000 N 
BRANCH  14  15
ATOM     15  C   UNL     1       3.584   3.608  17.322  0.00  0.00    +0.000 A 
ATOM     16  C   UNL     1       2.225   3.931  17.259  0.00  0.00    +0.000 A 
ATOM     17  C   UNL     1       1.267   3.158  17.918  0.00  0.00    +0.000 A 
ATOM     18  C   UNL     1       1.658   2.048  18.650  0.00  0.00    +0.000 A 
ATOM     19  C   UNL     1       3.013   1.729  18.750  0.00  0.00    +0.000 A 
ATOM     20  C   UNL     1       3.977   2.521  18.107  0.00  0.00    +0.000 A 
ENDBRANCH  14  15
BRANCH  14  22
ATOM     21  C   UNL     1       5.575   4.234  14.331  0.00  0.00    +0.000 C 
ATOM     22  C   UNL     1       5.596   3.820  15.797  0.00  0.00    +0.000 C 
ENDBRANCH  14  22
ENDBRANCH   1  14
TORSDOF 6
ENDMDL
MODEL 7
REMARK VINA RESULT:      -6.6      1.626      3.097
REMARK  Name = 
REMARK  9 active torsions:
REMARK  status: ('A' for Active; 'I' for Inactive)
REMARK    1  A    between atoms: C_1  and  C_2
REMARK    2  A    between atoms: C_2  and  N_3
REMARK    3  A    between atoms: N_3  and  C_4
REMARK    4  A    between atoms: N_3  and  S_10
REMARK    5  A    between atoms: S_10  and  C_13
REMARK    6  A    between atoms: C_15  and  O_16
REMARK    7  A    between atoms: O_16  and  C_17
REMARK    8  A    between atoms: C_20  and  O_21
REMARK    9  A    between atoms: O_21  and  C_22
REMARK                            x       y       z     vdW  Elec       q    Type
REMARK                         _______ _______ _______ _____ _____    ______ ____
ROOT
ATOM      1  S   UNL     1       4.154   2.743  18.988  0.00  0.00    +0.000 S 
ATOM      2  O   UNL     1       5.098   2.375  20.019  0.00  0.00    +0.000 OA
ATOM      3  O   UNL     1       3.621   1.721  18.101  0.00  0.00    +0.000 OA
ENDROOT
BRANCH   1   4
ATOM      4  C   UNL     1       4.920   3.996  17.972  0.00  0.00    +0.000 A 
ATOM      5  C   UNL     1       4.708   3.866  16.580  0.00  0.00    +0.000 A 
ATOM      6  C   UNL     1       5.396   4.652  15.650  0.00  0.00    +0.000 A 
ATOM      7  C   UNL     1       6.278   5.615  16.111  0.00  0.00    +0.000 A 
ATOM      8  C   UNL     1       6.486   5.760  17.483  0.00  0.00    +0.000 A 
ATOM      9  C   UNL     1       5.828   4.956  18.433  0.00  0.00    +0.000 A 
BRANCH   6  10
ATOM     10  O   UNL     1       5.144   4.358  14.339  0.00  0.00    +0.000 OA
ATOM     11  C   UNL     1       6.234   3.870  13.564  0.00  0.00    +0.000 C 
ENDBRANCH   6  10
BRANCH   9  12
ATOM     12  O   UNL     1       6.318   5.203  19.680  0.00  0.00    +0.000 OA
ATOM     13  C   UNL     1       7.650   5.651  19.822  0.00  0.00    +0.000 C 
ENDBRANCH   9  12
ENDBRANCH   1   4
BRANCH   1  14
ATOM     14  N   UNL     1       2.763   3.514  19.709  0.00  0.00    +0.000 N 
BRANCH  14  15
ATOM     15  C   UNL     1       2.591   4.880  19.234  0.00  0.00    +0.000 A 
ATOM     16  C   UNL     1       2.758   5.930  20.143  0.00  0.00    +0.000 A 
ATOM     17  C   UNL     1       2.584   7.259  19.753  0.00  0.00    +0.000 A 
ATOM     18  C   UNL     1       2.240   7.557  18.444  0.00  0.00    +0.000 A 
ATOM     19  C   UNL     1       2.038   6.520  17.530  0.00  0.00    +0.000 A 
ATOM     20  C   UNL     1       2.190   5.183  17.929  0.00  0.00    +0.000 A 
ENDBRANCH  14  15
BRANCH  14  22
ATOM     21  C   UNL     1       1.297   2.645  21.587  0.00  0.00    +0.000 C 
ATOM     22  C   UNL     1       2.631   3.257  21.178  0.00  0.00    +0.000 C 
ENDBRANCH  14  22
ENDBRANCH   1  14
TORSDOF 6
ENDMDL
MODEL 8
REMARK VINA RESULT:      -6.5      1.012      2.500
REMARK  Name = 
REMARK  9 active torsions:
REMARK  status: ('A' for Active; 'I' for Inactive)
REMARK    1  A    between atoms: C_1  and  C_2
REMARK    2  A    between atoms: C_2  and  N_3
REMARK    3  A    between atoms: N_3  and  C_4
REMARK    4  A    between atoms: N_3  and  S_10
REMARK    5  A    between atoms: S_10  and  C_13
REMARK    6  A    between atoms: C_15  and  O_16
REMARK    7  A    between atoms: O_16  and  C_17
REMARK    8  A    between atoms: C_20  and  O_21
REMARK    9  A    between atoms: O_21  and  C_22
REMARK                            x       y       z     vdW  Elec       q    Type
REMARK                         _______ _______ _______ _____ _____    ______ ____
ROOT
ATOM      1  S   UNL     1       4.907   4.492  18.839  0.00  0.00    +0.000 S 
ATOM      2  O   UNL     1       5.308   5.492  19.801  0.00  0.00    +0.000 OA
ATOM      3  O   UNL     1       5.166   3.087  19.110  0.00  0.00    +0.000 OA
ENDROOT
BRANCH   1   4
ATOM      4  C   UNL     1       5.681   4.895  17.281  0.00  0.00    +0.000 A 
ATOM      5  C   UNL     1       5.162   4.222  16.150  0.00  0.00    +0.000 A 
ATOM      6  C   UNL     1       5.785   4.286  14.900  0.00  0.00    +0.000 A 
ATOM      7  C   UNL     1       6.920   5.068  14.758  0.00  0.00    +0.000 A 
ATOM      8  C   UNL     1       7.434   5.746  15.864  0.00  0.00    +0.000 A 
ATOM      9  C   UNL     1       6.840   5.667  17.138  0.00  0.00    +0.000 A 
BRANCH   6  10
ATOM     10  O   UNL     1       5.211   3.522  13.923  0.00  0.00    +0.000 OA
ATOM     11  C   UNL     1       5.896   3.446  12.676  0.00  0.00    +0.000 C 
ENDBRANCH   6  10
BRANCH   9  12
ATOM     12  O   UNL     1       7.618   6.297  18.061  0.00  0.00    +0.000 OA
ATOM     13  C   UNL     1       7.888   7.675  17.911  0.00  0.00    +0.000 C 
ENDBRANCH   9  12
ENDBRANCH   1   4
BRANCH   1  14
ATOM     14  N   UNL     1       3.189   4.607  18.549  0.00  0.00    +0.000 N 
BRANCH  14  15
ATOM     15  C   UNL     1       2.668   5.926  18.882  0.00  0.00    +0.000 A 
ATOM     16  C   UNL     1       2.796   6.953  17.941  0.00  0.00    +0.000 A 
ATOM     17  C   UNL     1       2.338   8.243  18.212  0.00  0.00    +0.000 A 
ATOM     18  C   UNL     1       1.742   8.525  19.431  0.00  0.00    +0.000 A 
ATOM     19  C   UNL     1       1.634   7.520  20.394  0.00  0.00    +0.000 A 
ATOM     20  C   UNL     1       2.116   6.229  20.130  0.00  0.00    +0.000 A 
ENDBRANCH  14  15
BRANCH  14  22
ATOM     21  C   UNL     1       2.148   2.380  17.924  0.00  0.00    +0.000 C 
ATOM     22  C   UNL     1       2.422   3.408  19.015  0.00  0.00    +0.000 C 
ENDBRANCH  14  22
ENDBRANCH   1  14
TORSDOF 6
ENDMDL
MODEL 9
REMARK VINA RESULT:      -6.5      1.811      5.910
REMARK  Name = 
REMARK  9 active torsions:
REMARK  status: ('A' for Active; 'I' for Inactive)
REMARK    1  A    between atoms: C_1  and  C_2
REMARK    2  A    between atoms: C_2  and  N_3
REMARK    3  A    between atoms: N_3  and  C_4
REMARK    4  A    between atoms: N_3  and  S_10
REMARK    5  A    between atoms: S_10  and  C_13
REMARK    6  A    between atoms: C_15  and  O_16
REMARK    7  A    between atoms: O_16  and  C_17
REMARK    8  A    between atoms: C_20  and  O_21
REMARK    9  A    between atoms: O_21  and  C_22
REMARK                            x       y       z     vdW  Elec       q    Type
REMARK                         _______ _______ _______ _____ _____    ______ ____
ROOT
ATOM      1  S   UNL     1       5.790   4.803  18.990  0.00  0.00    +0.000 S 
ATOM      2  O   UNL     1       5.807   3.465  18.444  0.00  0.00    +0.000 OA
ATOM      3  O   UNL     1       6.595   5.114  20.160  0.00  0.00    +0.000 OA
ENDROOT
BRANCH   1   4
ATOM      4  C   UNL     1       4.093   5.209  19.377  0.00  0.00    +0.000 A 
ATOM      5  C   UNL     1       3.689   6.521  19.038  0.00  0.00    +0.000 A 
ATOM      6  C   UNL     1       2.460   7.046  19.450  0.00  0.00    +0.000 A 
ATOM      7  C   UNL     1       1.596   6.239  20.173  0.00  0.00    +0.000 A 
ATOM      8  C   UNL     1       1.981   4.938  20.502  0.00  0.00    +0.000 A 
ATOM      9  C   UNL     1       3.228   4.404  20.126  0.00  0.00    +0.000 A 
BRANCH   6  10
ATOM     10  O   UNL     1       2.242   8.352  19.113  0.00  0.00    +0.000 OA
ATOM     11  C   UNL     1       1.974   8.630  17.742  0.00  0.00    +0.000 C 
ENDBRANCH   6  10
BRANCH   9  12
ATOM     12  O   UNL     1       3.407   3.180  20.696  0.00  0.00    +0.000 OA
ATOM     13  C   UNL     1       2.376   2.630  21.489  0.00  0.00    +0.000 C 
ENDBRANCH   9  12
ENDBRANCH   1   4
BRANCH   1  14
ATOM     14  N   UNL     1       6.275   5.948  17.766  0.00  0.00    +0.000 N 
BRANCH  14  15
ATOM     15  C   UNL     1       6.211   5.375  16.428  0.00  0.00    +0.000 A 
ATOM     16  C   UNL     1       4.955   5.104  15.876  0.00  0.00    +0.000 A 
ATOM     17  C   UNL     1       4.830   4.533  14.609  0.00  0.00    +0.000 A 
ATOM     18  C   UNL     1       5.964   4.225  13.873  0.00  0.00    +0.000 A 
ATOM     19  C   UNL     1       7.226   4.460  14.420  0.00  0.00    +0.000 A 
ATOM     20  C   UNL     1       7.351   5.012  15.705  0.00  0.00    +0.000 A 
ENDBRANCH  14  15
BRANCH  14  22
ATOM     21  C   UNL     1       7.565   8.113  17.479  0.00  0.00    +0.000 C 
ATOM     22  C   UNL     1       7.491   6.740  18.135  0.00  0.00    +0.000 C 
ENDBRANCH  14  22
ENDBRANCH   1  14
TORSDOF 6
ENDMDL
