MODEL 1
REMARK VINA RESULT:      -6.5      0.000      0.000
REMARK  Name = 
REMARK  5 active torsions:
REMARK  status: ('A' for Active; 'I' for Inactive)
REMARK    1  A    between atoms: C_2  and  O_3
REMARK    2  A    between atoms: C_2  and  C_4
REMARK    3  A    between atoms: C_7  and  O_8
REMARK    4  A    between atoms: O_8  and  C_9
REMARK    5  A    between atoms: C_9  and  C_10
REMARK                            x       y       z     vdW  Elec       q    Type
REMARK                         _______ _______ _______ _____ _____    ______ ____
ROOT
ATOM      1  C   UNL     1       5.599   4.600  16.978  0.00  0.00    +0.000 A 
ATOM      2  C   UNL     1       4.361   4.009  16.730  0.00  0.00    +0.000 A 
ATOM      3  C   UNL     1       3.680   3.379  17.773  0.00  0.00    +0.000 A 
ATOM      4  C   UNL     1       4.257   3.366  19.035  0.00  0.00    +0.000 A 
ATOM      5  N   UNL     1       5.450   3.944  19.298  0.00  0.00    +0.000 NA
ATOM      6  C   UNL     1       6.085   4.565  18.274  0.00  0.00    +0.000 A 
ENDROOT
BRANCH   1   8
ATOM      7  O   UNL     1       5.801   6.116  15.178  0.00  0.00    +0.000 OA
ATOM      8  C   UNL     1       6.322   5.264  15.879  0.00  0.00    +0.000 C 
BRANCH   8   9
ATOM      9  O   UNL     1       7.578   4.813  15.686  0.00  0.00    +0.000 OA
ATOM     10  H   UNL     1       7.796   4.494  14.791  0.00  0.00    +0.000 HD
ENDBRANCH   8   9
ENDBRANCH   1   8
BRANCH   4  11
ATOM     11  O   UNL     1       3.729   2.703  20.105  0.00  0.00    +0.000 OA
BRANCH  11  12
ATOM     12  C   UNL     1       2.315   2.486  20.054  0.00  0.00    +0.000 C 
BRANCH  12  13
ATOM     13  C   UNL     1       1.581   3.353  21.074  0.00  0.00    +0.000 C 
ATOM     14  F   UNL     1       2.372   4.278  21.656  0.00  0.00    +0.000 F 
ATOM     15  F   UNL     1       0.547   4.006  20.495  0.00  0.00    +0.000 F 
ATOM     16  F   UNL     1       1.062   2.584  22.063  0.00  0.00    +0.000 F 
ENDBRANCH  12  13
ENDBRANCH  11  12
ENDBRANCH   4  11
TORSDOF 5
ENDMDL
MODEL 2
REMARK VINA RESULT:      -6.4      0.817      1.346
REMARK  Name = 
REMARK  5 active torsions:
REMARK  status: ('A' for Active; 'I' for Inactive)
REMARK    1  A    between atoms: C_2  and  O_3
REMARK    2  A    between atoms: C_2  and  C_4
REMARK    3  A    between atoms: C_7  and  O_8
REMARK    4  A    between atoms: O_8  and  C_9
REMARK    5  A    between atoms: C_9  and  C_10
REMARK                            x       y       z     vdW  Elec       q    Type
REMARK                         _______ _______ _______ _____ _____    ______ ____
ROOT
ATOM      1  C   UNL     1       5.939   4.304  16.508  0.00  0.00    +0.000 A 
ATOM      2  C   UNL     1       4.581   4.004  16.413  0.00  0.00    +0.000 A 
ATOM      3  C   UNL     1       3.839   3.804  17.577  0.00  0.00    +0.000 A 
ATOM      4  C   UNL     1       4.478   3.918  18.804  0.00  0.00    +0.000 A 
ATOM      5  N   UNL     1       5.790   4.220  18.918  0.00  0.00    +0.000 NA
ATOM      6  C   UNL     1       6.487   4.427  17.774  0.00  0.00    +0.000 A 
ENDROOT
BRANCH   1   8
ATOM      7  O   UNL     1       7.522   5.430  15.167  0.00  0.00    +0.000 OA
ATOM      8  C   UNL     1       6.727   4.514  15.280  0.00  0.00    +0.000 C 
BRANCH   8   9
ATOM      9  O   UNL     1       6.451   3.643  14.287  0.00  0.00    +0.000 OA
ATOM     10  H   UNL     1       6.849   3.833  13.417  0.00  0.00    +0.000 HD
ENDBRANCH   8   9
ENDBRANCH   1   8
BRANCH   4  11
ATOM     11  O   UNL     1       3.877   3.655  20.001  0.00  0.00    +0.000 OA
BRANCH  11  12
ATOM     12  C   UNL     1       2.588   3.037  19.917  0.00  0.00    +0.000 C 
BRANCH  12  13
ATOM     13  C   UNL     1       1.619   3.631  20.936  0.00  0.00    +0.000 C 
ATOM     14  F   UNL     1       0.518   4.172  20.374  0.00  0.00    +0.000 F 
ATOM     15  F   UNL     1       1.208   2.688  21.815  0.00  0.00    +0.000 F 
ATOM     16  F   UNL     1       2.226   4.606  21.655  0.00  0.00    +0.000 F 
ENDBRANCH  12  13
ENDBRANCH  11  12
ENDBRANCH   4  11
TORSDOF 5
ENDMDL
MODEL 3
REMARK VINA RESULT:      -6.4      1.724      1.975
REMARK  Name = 
REMARK  5 active torsions:
REMARK  status: ('A' for Active; 'I' for Inactive)
REMARK    1  A    between atoms: C_2  and  O_3
REMARK    2  A    between atoms: C_2  and  C_4
REMARK    3  A    between atoms: C_7  and  O_8
REMARK    4  A    between atoms: O_8  and  C_9
REMARK    5  A    between atoms: C_9  and  C_10
REMARK                            x       y       z     vdW  Elec       q    Type
REMARK                         _______ _______ _______ _____ _____    ______ ____
ROOT
ATOM      1  C   UNL     1       5.713   4.965  17.085  0.00  0.00    +0.000 A 
ATOM      2  C   UNL     1       4.974   3.854  16.681  0.00  0.00    +0.000 A 
ATOM      3  C   UNL     1       3.640   3.737  17.077  0.00  0.00    +0.000 A 
ATOM      4  C   UNL     1       3.085   4.742  17.857  0.00  0.00    +0.000 A 
ATOM      5  N   UNL     1       3.781   5.832  18.247  0.00  0.00    +0.000 NA
ATOM      6  C   UNL     1       5.069   5.933  17.838  0.00  0.00    +0.000 A 
ENDROOT
BRANCH   1   8
ATOM      7  O   UNL     1       7.500   5.961  15.906  0.00  0.00    +0.000 OA
ATOM      8  C   UNL     1       7.122   5.091  16.672  0.00  0.00    +0.000 C 
BRANCH   8   9
ATOM      9  O   UNL     1       7.935   4.136  17.169  0.00  0.00    +0.000 OA
ATOM     10  H   UNL     1       7.777   3.866  18.093  0.00  0.00    +0.000 HD
ENDBRANCH   8   9
ENDBRANCH   1   8
BRANCH   4  11
ATOM     11  O   UNL     1       1.823   4.690  18.377  0.00  0.00    +0.000 OA
BRANCH  11  12
ATOM     12  C   UNL     1       1.750   4.425  19.782  0.00  0.00    +0.000 C 
BRANCH  12  13
ATOM     13  C   UNL     1       1.331   2.983  20.055  0.00  0.00    +0.000 C 
ATOM     14  F   UNL     1       2.332   2.094  19.887  0.00  0.00    +0.000 F 
ATOM     15  F   UNL     1       0.873   2.847  21.322  0.00  0.00    +0.000 F 
ATOM     16  F   UNL     1       0.322   2.617  19.227  0.00  0.00    +0.000 F 
ENDBRANCH  12  13
ENDBRANCH  11  12
ENDBRANCH   4  11
TORSDOF 5
ENDMDL
MODEL 4
REMARK VINA RESULT:      -6.4      0.311      1.255
REMARK  Name = 
REMARK  5 active torsions:
REMARK  status: ('A' for Active; 'I' for Inactive)
REMARK    1  A    between atoms: C_2  and  O_3
REMARK    2  A    between atoms: C_2  and  C_4
REMARK    3  A    between atoms: C_7  and  O_8
REMARK    4  A    between atoms: O_8  and  C_9
REMARK    5  A    between atoms: C_9  and  C_10
REMARK                            x       y       z     vdW  Elec       q    Type
REMARK                         _______ _______ _______ _____ _____    ______ ____
ROOT
ATOM      1  C   UNL     1       5.746   4.618  17.138  0.00  0.00    +0.000 A 
ATOM      2  C   UNL     1       4.577   3.971  16.742  0.00  0.00    +0.000 A 
ATOM      3  C   UNL     1       3.811   3.296  17.693  0.00  0.00    +0.000 A 
ATOM      4  C   UNL     1       4.235   3.297  19.015  0.00  0.00    +0.000 A 
ATOM      5  N   UNL     1       5.358   3.928  19.420  0.00  0.00    +0.000 NA
ATOM      6  C   UNL     1       6.078   4.592  18.482  0.00  0.00    +0.000 A 
ENDROOT
BRANCH   1   8
ATOM      7  O   UNL     1       7.525   4.816  15.598  0.00  0.00    +0.000 OA
ATOM      8  C   UNL     1       6.559   5.330  16.136  0.00  0.00    +0.000 C 
BRANCH   8   9
ATOM      9  O   UNL     1       6.176   6.604  15.911  0.00  0.00    +0.000 OA
ATOM     10  H   UNL     1       6.082   7.177  16.695  0.00  0.00    +0.000 HD
ENDBRANCH   8   9
ENDBRANCH   1   8
BRANCH   4  11
ATOM     11  O   UNL     1       3.618   2.596  20.011  0.00  0.00    +0.000 OA
BRANCH  11  12
ATOM     12  C   UNL     1       2.193   2.508  19.906  0.00  0.00    +0.000 C 
BRANCH  12  13
ATOM     13  C   UNL     1       1.503   3.346  20.980  0.00  0.00    +0.000 C 
ATOM     14  F   UNL     1       0.565   4.180  20.486  0.00  0.00    +0.000 F 
ATOM     15  F   UNL     1       0.903   2.552  21.897  0.00  0.00    +0.000 F 
ATOM     16  F   UNL     1       2.410   4.105  21.644  0.00  0.00    +0.000 F 
ENDBRANCH  12  13
ENDBRANCH  11  12
ENDBRANCH   4  11
TORSDOF 5
ENDMDL
MODEL 5
REMARK VINA RESULT:      -6.3      1.638      2.139
REMARK  Name = 
REMARK  5 active torsions:
REMARK  status: ('A' for Active; 'I' for Inactive)
REMARK    1  A    between atoms: C_2  and  O_3
REMARK    2  A    between atoms: C_2  and  C_4
REMARK    3  A    between atoms: C_7  and  O_8
REMARK    4  A    between atoms: O_8  and  C_9
REMARK    5  A    between atoms: C_9  and  C_10
REMARK                            x       y       z     vdW  Elec       q    Type
REMARK                         _______ _______ _______ _____ _____    ______ ____
ROOT
ATOM      1  C   UNL     1       5.847   4.928  17.476  0.00  0.00    +0.000 A 
ATOM      2  C   UNL     1       5.761   5.259  18.827  0.00  0.00    +0.000 A 
ATOM      3  C   UNL     1       4.516   5.248  19.458  0.00  0.00    +0.000 A 
ATOM      4  C   UNL     1       3.395   4.897  18.717  0.00  0.00    +0.000 A 
ATOM      5  N   UNL     1       3.461   4.561  17.410  0.00  0.00    +0.000 NA
ATOM      6  C   UNL     1       4.682   4.562  16.822  0.00  0.00    +0.000 A 
ENDROOT
BRANCH   1   8
ATOM      7  O   UNL     1       7.373   5.607  15.806  0.00  0.00    +0.000 OA
ATOM      8  C   UNL     1       7.160   4.941  16.805  0.00  0.00    +0.000 C 
BRANCH   8   9
ATOM      9  O   UNL     1       8.075   4.119  17.358  0.00  0.00    +0.000 OA
ATOM     10  H   UNL     1       9.010   4.310  17.161  0.00  0.00    +0.000 HD
ENDBRANCH   8   9
ENDBRANCH   1   8
BRANCH   4  11
ATOM     11  O   UNL     1       2.120   4.940  19.202  0.00  0.00    +0.000 OA
BRANCH  11  12
ATOM     12  C   UNL     1       1.956   4.451  20.538  0.00  0.00    +0.000 C 
BRANCH  12  13
ATOM     13  C   UNL     1       1.407   3.027  20.546  0.00  0.00    +0.000 C 
ATOM     14  F   UNL     1       2.311   2.103  20.162  0.00  0.00    +0.000 F 
ATOM     15  F   UNL     1       0.973   2.686  21.782  0.00  0.00    +0.000 F 
ATOM     16  F   UNL     1       0.344   2.925  19.710  0.00  0.00    +0.000 F 
ENDBRANCH  12  13
ENDBRANCH  11  12
ENDBRANCH   4  11
TORSDOF 5
ENDMDL
MODEL 6
REMARK VINA RESULT:      -6.3      1.738      2.113
REMARK  Name = 
REMARK  5 active torsions:
REMARK  status: ('A' for Active; 'I' for Inactive)
REMARK    1  A    between atoms: C_2  and  O_3
REMARK    2  A    between atoms: C_2  and  C_4
REMARK    3  A    between atoms: C_7  and  O_8
REMARK    4  A    between atoms: O_8  and  C_9
REMARK    5  A    between atoms: C_9  and  C_10
REMARK                            x       y       z     vdW  Elec       q    Type
REMARK                         _______ _______ _______ _____ _____    ______ ____
ROOT
ATOM      1  C   UNL     1       5.737   4.928  16.795  0.00  0.00    +0.000 A 
ATOM      2  C   UNL     1       5.266   6.089  17.406  0.00  0.00    +0.000 A 
ATOM      3  C   UNL     1       3.957   6.128  17.887  0.00  0.00    +0.000 A 
ATOM      4  C   UNL     1       3.161   4.998  17.749  0.00  0.00    +0.000 A 
ATOM      5  N   UNL     1       3.604   3.860  17.172  0.00  0.00    +0.000 NA
ATOM      6  C   UNL     1       4.884   3.839  16.726  0.00  0.00    +0.000 A 
ENDROOT
BRANCH   1   8
ATOM      7  O   UNL     1       7.442   5.419  15.236  0.00  0.00    +0.000 OA
ATOM      8  C   UNL     1       7.119   4.884  16.283  0.00  0.00    +0.000 C 
BRANCH   8   9
ATOM      9  O   UNL     1       7.970   4.161  17.040  0.00  0.00    +0.000 OA
ATOM     10  H   UNL     1       8.073   3.220  16.805  0.00  0.00    +0.000 HD
ENDBRANCH   8   9
ENDBRANCH   1   8
BRANCH   4  11
ATOM     11  O   UNL     1       1.842   4.952  18.098  0.00  0.00    +0.000 OA
BRANCH  11  12
ATOM     12  C   UNL     1       1.457   3.820  18.886  0.00  0.00    +0.000 C 
BRANCH  12  13
ATOM     13  C   UNL     1       1.521   4.134  20.379  0.00  0.00    +0.000 C 
ATOM     14  F   UNL     1       1.056   5.362  20.688  0.00  0.00    +0.000 F 
ATOM     15  F   UNL     1       0.802   3.234  21.090  0.00  0.00    +0.000 F 
ATOM     16  F   UNL     1       2.799   4.061  20.824  0.00  0.00    +0.000 F 
ENDBRANCH  12  13
ENDBRANCH  11  12
ENDBRANCH   4  11
TORSDOF 5
ENDMDL
MODEL 7
REMARK VINA RESULT:      -6.3      1.589      2.018
REMARK  Name = 
REMARK  5 active torsions:
REMARK  status: ('A' for Active; 'I' for Inactive)
REMARK    1  A    between atoms: C_2  and  O_3
REMARK    2  A    between atoms: C_2  and  C_4
REMARK    3  A    between atoms: C_7  and  O_8
REMARK    4  A    between atoms: O_8  and  C_9
REMARK    5  A    between atoms: C_9  and  C_10
REMARK                            x       y       z     vdW  Elec       q    Type
REMARK                         _______ _______ _______ _____ _____    ______ ____
ROOT
ATOM      1  C   UNL     1       5.836   4.884  17.613  0.00  0.00    +0.000 A 
ATOM      2  C   UNL     1       5.555   5.492  18.836  0.00  0.00    +0.000 A 
ATOM      3  C   UNL     1       4.302   5.306  19.423  0.00  0.00    +0.000 A 
ATOM      4  C   UNL     1       3.371   4.509  18.771  0.00  0.00    +0.000 A 
ATOM      5  N   UNL     1       3.629   3.901  17.592  0.00  0.00    +0.000 NA
ATOM      6  C   UNL     1       4.858   4.083  17.048  0.00  0.00    +0.000 A 
ENDROOT
BRANCH   1   8
ATOM      7  O   UNL     1       7.392   6.021  16.248  0.00  0.00    +0.000 OA
ATOM      8  C   UNL     1       7.156   5.081  16.988  0.00  0.00    +0.000 C 
BRANCH   8   9
ATOM      9  O   UNL     1       8.051   4.110  17.264  0.00  0.00    +0.000 OA
ATOM     10  H   UNL     1       7.913   3.609  18.089  0.00  0.00    +0.000 HD
ENDBRANCH   8   9
ENDBRANCH   1   8
BRANCH   4  11
ATOM     11  O   UNL     1       2.089   4.330  19.203  0.00  0.00    +0.000 OA
BRANCH  11  12
ATOM     12  C   UNL     1       1.926   4.252  20.623  0.00  0.00    +0.000 C 
BRANCH  12  13
ATOM     13  C   UNL     1       1.930   2.802  21.104  0.00  0.00    +0.000 C 
ATOM     14  F   UNL     1       1.072   2.575  22.120  0.00  0.00    +0.000 F 
ATOM     15  F   UNL     1       1.604   1.960  20.097  0.00  0.00    +0.000 F 
ATOM     16  F   UNL     1       3.167   2.449  21.533  0.00  0.00    +0.000 F 
ENDBRANCH  12  13
ENDBRANCH  11  12
ENDBRANCH   4  11
TORSDOF 5
ENDMDL
MODEL 8
REMARK VINA RESULT:      -6.2      0.876      1.083
REMARK  Name = 
REMARK  5 active torsions:
REMARK  status: ('A' for Active; 'I' for Inactive)
REMARK    1  A    between atoms: C_2  and  O_3
REMARK    2  A    between atoms: C_2  and  C_4
REMARK    3  A    between atoms: C_7  and  O_8
REMARK    4  A    between atoms: O_8  and  C_9
REMARK    5  A    between atoms: C_9  and  C_10
REMARK                            x       y       z     vdW  Elec       q    Type
REMARK                         _______ _______ _______ _____ _____    ______ ____
ROOT
ATOM      1  C   UNL     1       5.424   5.053  17.228  0.00  0.00    +0.000 A 
ATOM      2  C   UNL     1       4.183   4.506  16.907  0.00  0.00    +0.000 A 
ATOM      3  C   UNL     1       3.579   3.608  17.789  0.00  0.00    +0.000 A 
ATOM      4  C   UNL     1       4.235   3.292  18.971  0.00  0.00    +0.000 A 
ATOM      5  N   UNL     1       5.431   3.822  19.306  0.00  0.00    +0.000 NA
ATOM      6  C   UNL     1       5.991   4.704  18.442  0.00  0.00    +0.000 A 
ENDROOT
BRANCH   1   8
ATOM      7  O   UNL     1       5.438   6.587  15.433  0.00  0.00    +0.000 OA
ATOM      8  C   UNL     1       6.065   5.999  16.297  0.00  0.00    +0.000 C 
BRANCH   8   9
ATOM      9  O   UNL     1       7.401   6.112  16.452  0.00  0.00    +0.000 OA
ATOM     10  H   UNL     1       7.952   5.464  15.974  0.00  0.00    +0.000 HD
ENDBRANCH   8   9
ENDBRANCH   1   8
BRANCH   4  11
ATOM     11  O   UNL     1       3.785   2.361  19.863  0.00  0.00    +0.000 OA
BRANCH  11  12
ATOM     12  C   UNL     1       3.114   2.888  21.013  0.00  0.00    +0.000 C 
BRANCH  12  13
ATOM     13  C   UNL     1       1.601   2.916  20.809  0.00  0.00    +0.000 C 
ATOM     14  F   UNL     1       0.908   2.521  21.897  0.00  0.00    +0.000 F 
ATOM     15  F   UNL     1       1.182   4.162  20.488  0.00  0.00    +0.000 F 
ATOM     16  F   UNL     1       1.246   2.101  19.785  0.00  0.00    +0.000 F 
ENDBRANCH  12  13
ENDBRANCH  11  12
ENDBRANCH   4  11
TORSDOF 5
ENDMDL
MODEL 9
REMARK VINA RESULT:      -6.2      1.412      1.953
REMARK  Name = 
REMARK  5 active torsions:
REMARK  status: ('A' for Active; 'I' for Inactive)
REMARK    1  A    between atoms: C_2  and  O_3
REMARK    2  A    between atoms: C_2  and  C_4
REMARK    3  A    between atoms: C_7  and  O_8
REMARK    4  A    between atoms: O_8  and  C_9
REMARK    5  A    between atoms: C_9  and  C_10
REMARK                            x       y       z     vdW  Elec       q    Type
REMARK                         _______ _______ _______ _____ _____    ______ ____
ROOT
ATOM      1  C   UNL     1       5.932   4.606  17.749  0.00  0.00    +0.000 A 
ATOM      2  C   UNL     1       4.892   4.096  16.974  0.00  0.00    +0.000 A 
ATOM      3  C   UNL     1       3.585   4.149  17.460  0.00  0.00    +0.000 A 
ATOM      4  C   UNL     1       3.357   4.721  18.704  0.00  0.00    +0.000 A 
ATOM      5  N   UNL     1       4.350   5.232  19.464  0.00  0.00    +0.000 NA
ATOM      6  C   UNL     1       5.610   5.185  18.966  0.00  0.00    +0.000 A 
ENDROOT
BRANCH   1   8
ATOM      7  O   UNL     1       8.265   4.316  17.968  0.00  0.00    +0.000 OA
ATOM      8  C   UNL     1       7.315   4.550  17.241  0.00  0.00    +0.000 C 
BRANCH   8   9
ATOM      9  O   UNL     1       7.436   4.830  15.928  0.00  0.00    +0.000 OA
ATOM     10  H   UNL     1       7.629   4.079  15.336  0.00  0.00    +0.000 HD
ENDBRANCH   8   9
ENDBRANCH   1   8
BRANCH   4  11
ATOM     11  O   UNL     1       2.138   4.745  19.317  0.00  0.00    +0.000 OA
BRANCH  11  12
ATOM     12  C   UNL     1       1.643   3.472  19.747  0.00  0.00    +0.000 C 
BRANCH  12  13
ATOM     13  C   UNL     1       1.998   3.201  21.207  0.00  0.00    +0.000 C 
ATOM     14  F   UNL     1       1.008   2.593  21.893  0.00  0.00    +0.000 F 
ATOM     15  F   UNL     1       3.098   2.418  21.296  0.00  0.00    +0.000 F 
ATOM     16  F   UNL     1       2.283   4.361  21.849  0.00  0.00    +0.000 F 
ENDBRANCH  12  13
ENDBRANCH  11  12
ENDBRANCH   4  11
TORSDOF 5
ENDMDL
