MODEL 1
REMARK VINA RESULT:      -7.6      0.000      0.000
REMARK  Name = 
REMARK  7 active torsions:
REMARK  status: ('A' for Active; 'I' for Inactive)
REMARK    1  A    between atoms: C_2  and  C_3
REMARK    2  A    between atoms: C_3  and  C_4
REMARK    3  A    between atoms: C_4  and  N_5
REMARK    4  A    between atoms: C_7  and  C_8
REMARK    5  A    between atoms: N_12  and  C_13
REMARK    6  A    between atoms: N_23  and  C_24
REMARK    7  A    between atoms: C_24  and  C_25
REMARK                            x       y       z     vdW  Elec       q    Type
REMARK                         _______ _______ _______ _____ _____    ______ ____
ROOT
ATOM      1  N   UNL     1      -1.120  11.422  18.884  0.00  0.00    +0.000 N 
ATOM      2  C   UNL     1      -2.101  11.001  18.021  0.00  0.00    +0.000 A 
ATOM      3  C   UNL     1      -3.270  11.655  18.371  0.00  0.00    +0.000 A 
ATOM      4  C   UNL     1      -2.895  12.458  19.487  0.00  0.00    +0.000 A 
ATOM      5  N   UNL     1      -3.803  13.116  20.261  0.00  0.00    +0.000 N 
ATOM      6  N   UNL     1      -1.572  12.407  19.684  0.00  0.00    +0.000 NA
ATOM      7  H   UNL     1      -4.777  13.031  19.985  0.00  0.00    +0.000 HD
ENDROOT
BRANCH   5   8
ATOM      8  C   UNL     1      -3.713  13.473  21.634  0.00  0.00    +0.000 A 
ATOM      9  C   UNL     1      -3.219  14.736  21.981  0.00  0.00    +0.000 A 
ATOM     10  C   UNL     1      -3.110  15.073  23.324  0.00  0.00    +0.000 A 
ATOM     11  N   UNL     1      -3.445  14.251  24.338  0.00  0.00    +0.000 NA
ATOM     12  C   UNL     1      -3.891  13.031  23.981  0.00  0.00    +0.000 A 
ATOM     13  F   UNL     1      -4.237  12.189  24.967  0.00  0.00    +0.000 F 
ATOM     14  C   UNL     1      -4.030  12.603  22.676  0.00  0.00    +0.000 A 
ENDBRANCH   5   8
BRANCH   1  15
ATOM     15  C   UNL     1       0.105  10.666  19.278  0.00  0.00    +0.000 C 
ATOM     16  C   UNL     1      -0.159   9.639  20.424  0.00  0.00    +0.000 C 
ATOM     17  C   UNL     1       1.038   8.692  20.635  0.00  0.00    +0.000 C 
ATOM     18  N   UNL     1       1.414   7.985  19.403  0.00  0.00    +0.000 NA
ATOM     19  C   UNL     1       1.622   8.870  18.254  0.00  0.00    +0.000 C 
ATOM     20  C   UNL     1       0.471   9.829  18.032  0.00  0.00    +0.000 C 
BRANCH  15  21
ATOM     21  C   UNL     1       1.221  11.590  19.846  0.00  0.00    +0.000 C 
BRANCH  21  23
ATOM     22  N   UNL     1       2.381  13.340  18.021  0.00  0.00    +0.000 NA
ATOM     23  C   UNL     1       1.855  12.547  18.849  0.00  0.00    +0.000 C 
ENDBRANCH  21  23
ENDBRANCH  15  21
BRANCH  18  24
ATOM     24  C   UNL     1       2.649   7.175  19.580  0.00  0.00    +0.000 C 
BRANCH  24  25
ATOM     25  C   UNL     1       2.444   5.677  19.510  0.00  0.00    +0.000 A 
ATOM     26  C   UNL     1       2.293   5.045  18.275  0.00  0.00    +0.000 A 
ATOM     27  C   UNL     1       2.000   3.684  18.250  0.00  0.00    +0.000 A 
ATOM     28  C   UNL     1       1.891   3.001  19.450  0.00  0.00    +0.000 A 
ATOM     29  F   UNL     1       1.583   1.698  19.460  0.00  0.00    +0.000 F 
ATOM     30  C   UNL     1       2.085   3.688  20.634  0.00  0.00    +0.000 A 
ATOM     31  N   UNL     1       2.353   5.013  20.694  0.00  0.00    +0.000 NA
ENDBRANCH  24  25
ENDBRANCH  18  24
ENDBRANCH   1  15
BRANCH   3  32
ATOM     32  C   UNL     1      -4.568  11.390  17.781  0.00  0.00    +0.000 C 
ATOM     33  N   UNL     1      -4.591  11.228  16.420  0.00  0.00    +0.000 N 
ATOM     34  O   UNL     1      -5.599  11.266  18.432  0.00  0.00    +0.000 OA
ATOM     35  H   UNL     1      -3.759  10.874  15.965  0.00  0.00    +0.000 HD
ATOM     36  H   UNL     1      -5.475  10.867  16.066  0.00  0.00    +0.000 HD
ENDBRANCH   3  32
TORSDOF 7
ENDMDL
MODEL 2
REMARK VINA RESULT:      -7.5      0.972      1.040
REMARK  Name = 
REMARK  7 active torsions:
REMARK  status: ('A' for Active; 'I' for Inactive)
REMARK    1  A    between atoms: C_2  and  C_3
REMARK    2  A    between atoms: C_3  and  C_4
REMARK    3  A    between atoms: C_4  and  N_5
REMARK    4  A    between atoms: C_7  and  C_8
REMARK    5  A    between atoms: N_12  and  C_13
REMARK    6  A    between atoms: N_23  and  C_24
REMARK    7  A    between atoms: C_24  and  C_25
REMARK                            x       y       z     vdW  Elec       q    Type
REMARK                         _______ _______ _______ _____ _____    ______ ____
ROOT
ATOM      1  N   UNL     1      -1.125  11.502  19.073  0.00  0.00    +0.000 N 
ATOM      2  C   UNL     1      -1.905  11.285  17.965  0.00  0.00    +0.000 A 
ATOM      3  C   UNL     1      -3.170  11.777  18.245  0.00  0.00    +0.000 A 
ATOM      4  C   UNL     1      -3.060  12.270  19.577  0.00  0.00    +0.000 A 
ATOM      5  N   UNL     1      -4.141  12.663  20.309  0.00  0.00    +0.000 N 
ATOM      6  N   UNL     1      -1.791  12.222  19.998  0.00  0.00    +0.000 NA
ATOM      7  H   UNL     1      -5.043  12.616  19.844  0.00  0.00    +0.000 HD
ENDROOT
BRANCH   5   8
ATOM      8  C   UNL     1      -4.315  12.648  21.719  0.00  0.00    +0.000 A 
ATOM      9  C   UNL     1      -3.223  12.349  22.542  0.00  0.00    +0.000 A 
ATOM     10  C   UNL     1      -3.403  12.312  23.918  0.00  0.00    +0.000 A 
ATOM     11  N   UNL     1      -4.581  12.541  24.532  0.00  0.00    +0.000 NA
ATOM     12  C   UNL     1      -5.624  12.801  23.720  0.00  0.00    +0.000 A 
ATOM     13  F   UNL     1      -6.812  13.038  24.300  0.00  0.00    +0.000 F 
ATOM     14  C   UNL     1      -5.546  12.854  22.343  0.00  0.00    +0.000 A 
ENDBRANCH   5   8
BRANCH   1  15
ATOM     15  C   UNL     1       0.076  10.719  19.485  0.00  0.00    +0.000 C 
ATOM     16  C   UNL     1      -0.238   9.665  20.593  0.00  0.00    +0.000 C 
ATOM     17  C   UNL     1       0.939   8.695  20.815  0.00  0.00    +0.000 C 
ATOM     18  N   UNL     1       1.345   8.017  19.576  0.00  0.00    +0.000 NA
ATOM     19  C   UNL     1       1.601   8.930  18.460  0.00  0.00    +0.000 C 
ATOM     20  C   UNL     1       0.471   9.911  18.229  0.00  0.00    +0.000 C 
BRANCH  15  21
ATOM     21  C   UNL     1       1.186  11.611  20.114  0.00  0.00    +0.000 C 
BRANCH  21  23
ATOM     22  N   UNL     1       2.343  13.475  18.405  0.00  0.00    +0.000 NA
ATOM     23  C   UNL     1       1.819  12.630  19.180  0.00  0.00    +0.000 C 
ENDBRANCH  21  23
ENDBRANCH  15  21
BRANCH  18  24
ATOM     24  C   UNL     1       2.563   7.185  19.770  0.00  0.00    +0.000 C 
BRANCH  24  25
ATOM     25  C   UNL     1       2.342   5.693  19.643  0.00  0.00    +0.000 A 
ATOM     26  C   UNL     1       2.153   5.114  18.387  0.00  0.00    +0.000 A 
ATOM     27  C   UNL     1       1.846   3.758  18.313  0.00  0.00    +0.000 A 
ATOM     28  C   UNL     1       1.762   3.026  19.486  0.00  0.00    +0.000 A 
ATOM     29  F   UNL     1       1.442   1.727  19.451  0.00  0.00    +0.000 F 
ATOM     30  C   UNL     1       1.994   3.662  20.692  0.00  0.00    +0.000 A 
ATOM     31  N   UNL     1       2.276   4.980  20.801  0.00  0.00    +0.000 NA
ENDBRANCH  24  25
ENDBRANCH  18  24
ENDBRANCH   1  15
BRANCH   3  32
ATOM     32  C   UNL     1      -4.321  11.625  17.376  0.00  0.00    +0.000 C 
ATOM     33  N   UNL     1      -4.052  11.465  16.041  0.00  0.00    +0.000 N 
ATOM     34  O   UNL     1      -5.478  11.591  17.778  0.00  0.00    +0.000 OA
ATOM     35  H   UNL     1      -3.173  11.040  15.776  0.00  0.00    +0.000 HD
ATOM     36  H   UNL     1      -4.863  11.182  15.492  0.00  0.00    +0.000 HD
ENDBRANCH   3  32
TORSDOF 7
ENDMDL
MODEL 3
REMARK VINA RESULT:      -7.5      1.088      1.432
REMARK  Name = 
REMARK  7 active torsions:
REMARK  status: ('A' for Active; 'I' for Inactive)
REMARK    1  A    between atoms: C_2  and  C_3
REMARK    2  A    between atoms: C_3  and  C_4
REMARK    3  A    between atoms: C_4  and  N_5
REMARK    4  A    between atoms: C_7  and  C_8
REMARK    5  A    between atoms: N_12  and  C_13
REMARK    6  A    between atoms: N_23  and  C_24
REMARK    7  A    between atoms: C_24  and  C_25
REMARK                            x       y       z     vdW  Elec       q    Type
REMARK                         _______ _______ _______ _____ _____    ______ ____
ROOT
ATOM      1  N   UNL     1      -1.076  11.397  18.731  0.00  0.00    +0.000 N 
ATOM      2  C   UNL     1      -1.728  11.115  17.557  0.00  0.00    +0.000 A 
ATOM      3  C   UNL     1      -3.020  11.599  17.673  0.00  0.00    +0.000 A 
ATOM      4  C   UNL     1      -3.062  12.159  18.982  0.00  0.00    +0.000 A 
ATOM      5  N   UNL     1      -4.220  12.570  19.572  0.00  0.00    +0.000 N 
ATOM      6  N   UNL     1      -1.846  12.151  19.541  0.00  0.00    +0.000 NA
ATOM      7  H   UNL     1      -5.065  12.486  19.015  0.00  0.00    +0.000 HD
ENDROOT
BRANCH   5   8
ATOM      8  C   UNL     1      -4.548  12.622  20.954  0.00  0.00    +0.000 A 
ATOM      9  C   UNL     1      -5.893  12.672  21.337  0.00  0.00    +0.000 A 
ATOM     10  C   UNL     1      -6.209  12.746  22.688  0.00  0.00    +0.000 A 
ATOM     11  N   UNL     1      -5.293  12.781  23.676  0.00  0.00    +0.000 NA
ATOM     12  C   UNL     1      -4.005  12.760  23.283  0.00  0.00    +0.000 A 
ATOM     13  F   UNL     1      -3.067  12.790  24.243  0.00  0.00    +0.000 F 
ATOM     14  C   UNL     1      -3.593  12.692  21.967  0.00  0.00    +0.000 A 
ENDBRANCH   5   8
BRANCH   1  15
ATOM     15  C   UNL     1       0.081  10.654  19.310  0.00  0.00    +0.000 C 
ATOM     16  C   UNL     1      -0.333   9.696  20.471  0.00  0.00    +0.000 C 
ATOM     17  C   UNL     1       0.815   8.751  20.875  0.00  0.00    +0.000 C 
ATOM     18  N   UNL     1       1.323   7.972  19.737  0.00  0.00    +0.000 NA
ATOM     19  C   UNL     1       1.679   8.788  18.575  0.00  0.00    +0.000 C 
ATOM     20  C   UNL     1       0.579   9.744  18.165  0.00  0.00    +0.000 C 
BRANCH  15  21
ATOM     21  C   UNL     1       1.137  11.598  19.956  0.00  0.00    +0.000 C 
BRANCH  21  23
ATOM     22  N   UNL     1       2.513  13.250  18.192  0.00  0.00    +0.000 NA
ATOM     23  C   UNL     1       1.889  12.501  18.991  0.00  0.00    +0.000 C 
ENDBRANCH  21  23
ENDBRANCH  15  21
BRANCH  18  24
ATOM     24  C   UNL     1       2.515   7.162  20.105  0.00  0.00    +0.000 C 
BRANCH  24  25
ATOM     25  C   UNL     1       2.373   5.674  19.865  0.00  0.00    +0.000 A 
ATOM     26  C   UNL     1       1.422   4.935  20.571  0.00  0.00    +0.000 A 
ATOM     27  C   UNL     1       1.389   3.553  20.406  0.00  0.00    +0.000 A 
ATOM     28  C   UNL     1       2.285   2.963  19.529  0.00  0.00    +0.000 A 
ATOM     29  F   UNL     1       2.297   1.634  19.369  0.00  0.00    +0.000 F 
ATOM     30  C   UNL     1       3.176   3.763  18.839  0.00  0.00    +0.000 A 
ATOM     31  N   UNL     1       3.247   5.106  18.991  0.00  0.00    +0.000 NA
ENDBRANCH  24  25
ENDBRANCH  18  24
ENDBRANCH   1  15
BRANCH   3  32
ATOM     32  C   UNL     1      -4.068  11.388  16.693  0.00  0.00    +0.000 C 
ATOM     33  N   UNL     1      -3.662  10.937  15.463  0.00  0.00    +0.000 N 
ATOM     34  O   UNL     1      -5.261  11.547  16.925  0.00  0.00    +0.000 OA
ATOM     35  H   UNL     1      -2.816  10.385  15.409  0.00  0.00    +0.000 HD
ATOM     36  H   UNL     1      -4.429  10.629  14.867  0.00  0.00    +0.000 HD
ENDBRANCH   3  32
TORSDOF 7
ENDMDL
MODEL 4
REMARK VINA RESULT:      -7.3      2.853      3.802
REMARK  Name = 
REMARK  7 active torsions:
REMARK  status: ('A' for Active; 'I' for Inactive)
REMARK    1  A    between atoms: C_2  and  C_3
REMARK    2  A    between atoms: C_3  and  C_4
REMARK    3  A    between atoms: C_4  and  N_5
REMARK    4  A    between atoms: C_7  and  C_8
REMARK    5  A    between atoms: N_12  and  C_13
REMARK    6  A    between atoms: N_23  and  C_24
REMARK    7  A    between atoms: C_24  and  C_25
REMARK                            x       y       z     vdW  Elec       q    Type
REMARK                         _______ _______ _______ _____ _____    ______ ____
ROOT
ATOM      1  N   UNL     1       0.587  11.751  20.126  0.00  0.00    +0.000 N 
ATOM      2  C   UNL     1       0.990  12.911  19.513  0.00  0.00    +0.000 A 
ATOM      3  C   UNL     1       0.278  13.952  20.085  0.00  0.00    +0.000 A 
ATOM      4  C   UNL     1      -0.556  13.311  21.046  0.00  0.00    +0.000 A 
ATOM      5  N   UNL     1      -1.562  13.959  21.698  0.00  0.00    +0.000 N 
ATOM      6  N   UNL     1      -0.250  12.012  21.150  0.00  0.00    +0.000 NA
ATOM      7  H   UNL     1      -1.676  14.946  21.487  0.00  0.00    +0.000 HD
ENDROOT
BRANCH   5   8
ATOM      8  C   UNL     1      -2.773  13.429  22.221  0.00  0.00    +0.000 A 
ATOM      9  C   UNL     1      -3.866  13.246  21.367  0.00  0.00    +0.000 A 
ATOM     10  C   UNL     1      -5.055  12.750  21.886  0.00  0.00    +0.000 A 
ATOM     11  N   UNL     1      -5.237  12.431  23.183  0.00  0.00    +0.000 NA
ATOM     12  C   UNL     1      -4.181  12.641  23.992  0.00  0.00    +0.000 A 
ATOM     13  F   UNL     1      -4.327  12.330  25.290  0.00  0.00    +0.000 F 
ATOM     14  C   UNL     1      -2.962  13.134  23.571  0.00  0.00    +0.000 A 
ENDBRANCH   5   8
BRANCH   1  15
ATOM     15  C   UNL     1       0.623  10.376  19.546  0.00  0.00    +0.000 C 
ATOM     16  C   UNL     1       1.536  10.275  18.284  0.00  0.00    +0.000 C 
ATOM     17  C   UNL     1       1.769   8.812  17.859  0.00  0.00    +0.000 C 
ATOM     18  N   UNL     1       2.324   7.996  18.949  0.00  0.00    +0.000 NA
ATOM     19  C   UNL     1       1.562   8.081  20.197  0.00  0.00    +0.000 C 
ATOM     20  C   UNL     1       1.296   9.507  20.631  0.00  0.00    +0.000 C 
BRANCH  15  21
ATOM     21  C   UNL     1      -0.773   9.902  19.044  0.00  0.00    +0.000 C 
BRANCH  21  23
ATOM     22  N   UNL     1      -2.091  11.646  17.324  0.00  0.00    +0.000 NA
ATOM     23  C   UNL     1      -1.493  10.855  18.104  0.00  0.00    +0.000 C 
ENDBRANCH  21  23
ENDBRANCH  15  21
BRANCH  18  24
ATOM     24  C   UNL     1       2.423   6.560  18.575  0.00  0.00    +0.000 C 
BRANCH  24  25
ATOM     25  C   UNL     1       3.832   6.060  18.335  0.00  0.00    +0.000 A 
ATOM     26  C   UNL     1       4.520   5.386  19.344  0.00  0.00    +0.000 A 
ATOM     27  C   UNL     1       5.850   5.034  19.129  0.00  0.00    +0.000 A 
ATOM     28  C   UNL     1       6.435   5.344  17.912  0.00  0.00    +0.000 A 
ATOM     29  F   UNL     1       7.720   5.043  17.684  0.00  0.00    +0.000 F 
ATOM     30  C   UNL     1       5.680   5.983  16.947  0.00  0.00    +0.000 A 
ATOM     31  N   UNL     1       4.392   6.356  17.131  0.00  0.00    +0.000 NA
ENDBRANCH  24  25
ENDBRANCH  18  24
ENDBRANCH   1  15
BRANCH   3  32
ATOM     32  C   UNL     1       0.322  15.327  19.627  0.00  0.00    +0.000 C 
ATOM     33  N   UNL     1      -0.628  15.686  18.705  0.00  0.00    +0.000 N 
ATOM     34  O   UNL     1       1.115  16.161  20.048  0.00  0.00    +0.000 OA
ATOM     35  H   UNL     1      -1.512  15.195  18.711  0.00  0.00    +0.000 HD
ATOM     36  H   UNL     1      -0.683  16.691  18.546  0.00  0.00    +0.000 HD
ENDBRANCH   3  32
TORSDOF 7
ENDMDL
MODEL 5
REMARK VINA RESULT:      -7.2      0.790      1.125
REMARK  Name = 
REMARK  7 active torsions:
REMARK  status: ('A' for Active; 'I' for Inactive)
REMARK    1  A    between atoms: C_2  and  C_3
REMARK    2  A    between atoms: C_3  and  C_4
REMARK    3  A    between atoms: C_4  and  N_5
REMARK    4  A    between atoms: C_7  and  C_8
REMARK    5  A    between atoms: N_12  and  C_13
REMARK    6  A    between atoms: N_23  and  C_24
REMARK    7  A    between atoms: C_24  and  C_25
REMARK                            x       y       z     vdW  Elec       q    Type
REMARK                         _______ _______ _______ _____ _____    ______ ____
ROOT
ATOM      1  N   UNL     1      -1.066  11.551  19.015  0.00  0.00    +0.000 N 
ATOM      2  C   UNL     1      -2.047  11.182  18.129  0.00  0.00    +0.000 A 
ATOM      3  C   UNL     1      -3.206  11.847  18.494  0.00  0.00    +0.000 A 
ATOM      4  C   UNL     1      -2.824  12.600  19.641  0.00  0.00    +0.000 A 
ATOM      5  N   UNL     1      -3.727  13.248  20.431  0.00  0.00    +0.000 N 
ATOM      6  N   UNL     1      -1.505  12.515  19.848  0.00  0.00    +0.000 NA
ATOM      7  H   UNL     1      -4.700  13.194  20.145  0.00  0.00    +0.000 HD
ENDROOT
BRANCH   5   8
ATOM      8  C   UNL     1      -3.641  13.553  21.817  0.00  0.00    +0.000 A 
ATOM      9  C   UNL     1      -3.805  12.527  22.755  0.00  0.00    +0.000 A 
ATOM     10  C   UNL     1      -3.745  12.833  24.109  0.00  0.00    +0.000 A 
ATOM     11  N   UNL     1      -3.543  14.074  24.594  0.00  0.00    +0.000 NA
ATOM     12  C   UNL     1      -3.415  15.049  23.674  0.00  0.00    +0.000 A 
ATOM     13  F   UNL     1      -3.209  16.297  24.124  0.00  0.00    +0.000 F 
ATOM     14  C   UNL     1      -3.466  14.845  22.309  0.00  0.00    +0.000 A 
ENDBRANCH   5   8
BRANCH   1  15
ATOM     15  C   UNL     1       0.140  10.756  19.392  0.00  0.00    +0.000 C 
ATOM     16  C   UNL     1      -0.135   9.751  20.555  0.00  0.00    +0.000 C 
ATOM     17  C   UNL     1       1.032   8.764  20.750  0.00  0.00    +0.000 C 
ATOM     18  N   UNL     1       1.356   8.031  19.518  0.00  0.00    +0.000 NA
ATOM     19  C   UNL     1       1.569   8.896  18.356  0.00  0.00    +0.000 C 
ATOM     20  C   UNL     1       0.449   9.894  18.148  0.00  0.00    +0.000 C 
BRANCH  15  21
ATOM     21  C   UNL     1       1.301  11.646  19.926  0.00  0.00    +0.000 C 
BRANCH  21  23
ATOM     22  N   UNL     1       2.509  13.303  18.047  0.00  0.00    +0.000 NA
ATOM     23  C   UNL     1       1.961  12.551  18.899  0.00  0.00    +0.000 C 
ENDBRANCH  21  23
ENDBRANCH  15  21
BRANCH  18  24
ATOM     24  C   UNL     1       2.565   7.180  19.678  0.00  0.00    +0.000 C 
BRANCH  24  25
ATOM     25  C   UNL     1       2.319   5.693  19.540  0.00  0.00    +0.000 A 
ATOM     26  C   UNL     1       2.373   5.084  18.285  0.00  0.00    +0.000 A 
ATOM     27  C   UNL     1       2.038   3.738  18.177  0.00  0.00    +0.000 A 
ATOM     28  C   UNL     1       1.685   3.043  19.322  0.00  0.00    +0.000 A 
ATOM     29  F   UNL     1       1.331   1.754  19.249  0.00  0.00    +0.000 F 
ATOM     30  C   UNL     1       1.686   3.704  20.537  0.00  0.00    +0.000 A 
ATOM     31  N   UNL     1       1.988   5.016  20.673  0.00  0.00    +0.000 NA
ENDBRANCH  24  25
ENDBRANCH  18  24
ENDBRANCH   1  15
BRANCH   3  32
ATOM     32  C   UNL     1      -4.504  11.631  17.884  0.00  0.00    +0.000 C 
ATOM     33  N   UNL     1      -4.498  11.304  16.552  0.00  0.00    +0.000 N 
ATOM     34  O   UNL     1      -5.563  11.683  18.498  0.00  0.00    +0.000 OA
ATOM     35  H   UNL     1      -3.690  10.822  16.180  0.00  0.00    +0.000 HD
ATOM     36  H   UNL     1      -5.401  10.984  16.206  0.00  0.00    +0.000 HD
ENDBRANCH   3  32
TORSDOF 7
ENDMDL
MODEL 6
REMARK VINA RESULT:      -7.2      1.092      1.414
REMARK  Name = 
REMARK  7 active torsions:
REMARK  status: ('A' for Active; 'I' for Inactive)
REMARK    1  A    between atoms: C_2  and  C_3
REMARK    2  A    between atoms: C_3  and  C_4
REMARK    3  A    between atoms: C_4  and  N_5
REMARK    4  A    between atoms: C_7  and  C_8
REMARK    5  A    between atoms: N_12  and  C_13
REMARK    6  A    between atoms: N_23  and  C_24
REMARK    7  A    between atoms: C_24  and  C_25
REMARK                            x       y       z     vdW  Elec       q    Type
REMARK                         _______ _______ _______ _____ _____    ______ ____
ROOT
ATOM      1  N   UNL     1      -1.122  11.300  18.909  0.00  0.00    +0.000 N 
ATOM      2  C   UNL     1      -2.062  10.896  17.994  0.00  0.00    +0.000 A 
ATOM      3  C   UNL     1      -3.258  11.506  18.331  0.00  0.00    +0.000 A 
ATOM      4  C   UNL     1      -2.941  12.265  19.494  0.00  0.00    +0.000 A 
ATOM      5  N   UNL     1      -3.892  12.866  20.264  0.00  0.00    +0.000 N 
ATOM      6  N   UNL     1      -1.626  12.237  19.736  0.00  0.00    +0.000 NA
ATOM      7  H   UNL     1      -4.854  12.772  19.950  0.00  0.00    +0.000 HD
ENDROOT
BRANCH   5   8
ATOM      8  C   UNL     1      -3.858  13.163  21.654  0.00  0.00    +0.000 A 
ATOM      9  C   UNL     1      -3.257  12.256  22.533  0.00  0.00    +0.000 A 
ATOM     10  C   UNL     1      -3.246  12.538  23.893  0.00  0.00    +0.000 A 
ATOM     11  N   UNL     1      -3.791  13.642  24.439  0.00  0.00    +0.000 NA
ATOM     12  C   UNL     1      -4.389  14.488  23.578  0.00  0.00    +0.000 A 
ATOM     13  F   UNL     1      -4.939  15.601  24.088  0.00  0.00    +0.000 F 
ATOM     14  C   UNL     1      -4.455  14.293  22.212  0.00  0.00    +0.000 A 
ENDBRANCH   5   8
BRANCH   1  15
ATOM     15  C   UNL     1       0.107  10.556  19.313  0.00  0.00    +0.000 C 
ATOM     16  C   UNL     1      -0.153   9.535  20.465  0.00  0.00    +0.000 C 
ATOM     17  C   UNL     1       1.050   8.598  20.686  0.00  0.00    +0.000 C 
ATOM     18  N   UNL     1       1.435   7.885  19.460  0.00  0.00    +0.000 NA
ATOM     19  C   UNL     1       1.640   8.763  18.306  0.00  0.00    +0.000 C 
ATOM     20  C   UNL     1       0.483   9.713  18.074  0.00  0.00    +0.000 C 
BRANCH  15  21
ATOM     21  C   UNL     1       1.215  11.492  19.877  0.00  0.00    +0.000 C 
BRANCH  21  23
ATOM     22  N   UNL     1       2.347  13.257  18.051  0.00  0.00    +0.000 NA
ATOM     23  C   UNL     1       1.833  12.457  18.879  0.00  0.00    +0.000 C 
ENDBRANCH  21  23
ENDBRANCH  15  21
BRANCH  18  24
ATOM     24  C   UNL     1       2.675   7.085  19.647  0.00  0.00    +0.000 C 
BRANCH  24  25
ATOM     25  C   UNL     1       2.644   5.707  19.022  0.00  0.00    +0.000 A 
ATOM     26  C   UNL     1       1.834   4.708  19.562  0.00  0.00    +0.000 A 
ATOM     27  C   UNL     1       1.908   3.424  19.030  0.00  0.00    +0.000 A 
ATOM     28  C   UNL     1       2.768   3.187  17.970  0.00  0.00    +0.000 A 
ATOM     29  F   UNL     1       2.884   1.958  17.454  0.00  0.00    +0.000 F 
ATOM     30  C   UNL     1       3.517   4.235  17.466  0.00  0.00    +0.000 A 
ATOM     31  N   UNL     1       3.481   5.490  17.971  0.00  0.00    +0.000 NA
ENDBRANCH  24  25
ENDBRANCH  18  24
ENDBRANCH   1  15
BRANCH   3  32
ATOM     32  C   UNL     1      -4.528  11.238  17.684  0.00  0.00    +0.000 C 
ATOM     33  N   UNL     1      -4.499  11.131  16.317  0.00  0.00    +0.000 N 
ATOM     34  O   UNL     1      -5.579  11.066  18.291  0.00  0.00    +0.000 OA
ATOM     35  H   UNL     1      -3.644  10.813  15.879  0.00  0.00    +0.000 HD
ATOM     36  H   UNL     1      -5.362  10.766  15.917  0.00  0.00    +0.000 HD
ENDBRANCH   3  32
TORSDOF 7
ENDMDL
MODEL 7
REMARK VINA RESULT:      -7.1      1.553      1.790
REMARK  Name = 
REMARK  7 active torsions:
REMARK  status: ('A' for Active; 'I' for Inactive)
REMARK    1  A    between atoms: C_2  and  C_3
REMARK    2  A    between atoms: C_3  and  C_4
REMARK    3  A    between atoms: C_4  and  N_5
REMARK    4  A    between atoms: C_7  and  C_8
REMARK    5  A    between atoms: N_12  and  C_13
REMARK    6  A    between atoms: N_23  and  C_24
REMARK    7  A    between atoms: C_24  and  C_25
REMARK                            x       y       z     vdW  Elec       q    Type
REMARK                         _______ _______ _______ _____ _____    ______ ____
ROOT
ATOM      1  N   UNL     1      -0.965  11.410  18.825  0.00  0.00    +0.000 N 
ATOM      2  C   UNL     1      -1.677  11.139  17.683  0.00  0.00    +0.000 A 
ATOM      3  C   UNL     1      -2.956  11.640  17.861  0.00  0.00    +0.000 A 
ATOM      4  C   UNL     1      -2.926  12.197  19.172  0.00  0.00    +0.000 A 
ATOM      5  N   UNL     1      -4.049  12.623  19.817  0.00  0.00    +0.000 N 
ATOM      6  N   UNL     1      -1.685  12.173  19.672  0.00  0.00    +0.000 NA
ATOM      7  H   UNL     1      -4.922  12.551  19.302  0.00  0.00    +0.000 HD
ENDROOT
BRANCH   5   8
ATOM      8  C   UNL     1      -4.309  12.675  21.214  0.00  0.00    +0.000 A 
ATOM      9  C   UNL     1      -3.252  12.507  22.114  0.00  0.00    +0.000 A 
ATOM     10  C   UNL     1      -3.513  12.536  23.478  0.00  0.00    +0.000 A 
ATOM     11  N   UNL     1      -4.740  12.710  24.008  0.00  0.00    +0.000 NA
ATOM     12  C   UNL     1      -5.747  12.843  23.123  0.00  0.00    +0.000 A 
ATOM     13  F   UNL     1      -6.982  13.023  23.618  0.00  0.00    +0.000 F 
ATOM     14  C   UNL     1      -5.587  12.823  21.752  0.00  0.00    +0.000 A 
ENDBRANCH   5   8
BRANCH   1  15
ATOM     15  C   UNL     1       0.209  10.650  19.346  0.00  0.00    +0.000 C 
ATOM     16  C   UNL     1      -0.167   9.676  20.506  0.00  0.00    +0.000 C 
ATOM     17  C   UNL     1       0.990   8.718  20.850  0.00  0.00    +0.000 C 
ATOM     18  N   UNL     1       1.448   7.954  19.680  0.00  0.00    +0.000 NA
ATOM     19  C   UNL     1       1.765   8.788  18.518  0.00  0.00    +0.000 C 
ATOM     20  C   UNL     1       0.656   9.757  18.167  0.00  0.00    +0.000 C 
BRANCH  15  21
ATOM     21  C   UNL     1       1.295  11.578  19.966  0.00  0.00    +0.000 C 
BRANCH  21  23
ATOM     22  N   UNL     1       2.441  13.419  18.225  0.00  0.00    +0.000 NA
ATOM     23  C   UNL     1       1.921  12.584  19.014  0.00  0.00    +0.000 C 
ENDBRANCH  21  23
ENDBRANCH  15  21
BRANCH  18  24
ATOM     24  C   UNL     1       2.648   7.131  19.988  0.00  0.00    +0.000 C 
BRANCH  24  25
ATOM     25  C   UNL     1       3.044   6.151  18.905  0.00  0.00    +0.000 A 
ATOM     26  C   UNL     1       2.194   5.098  18.565  0.00  0.00    +0.000 A 
ATOM     27  C   UNL     1       2.633   4.153  17.641  0.00  0.00    +0.000 A 
ATOM     28  C   UNL     1       3.887   4.305  17.074  0.00  0.00    +0.000 A 
ATOM     29  F   UNL     1       4.350   3.399  16.203  0.00  0.00    +0.000 F 
ATOM     30  C   UNL     1       4.661   5.393  17.435  0.00  0.00    +0.000 A 
ATOM     31  N   UNL     1       4.272   6.318  18.343  0.00  0.00    +0.000 NA
ENDBRANCH  24  25
ENDBRANCH  18  24
ENDBRANCH   1  15
BRANCH   3  32
ATOM     32  C   UNL     1      -4.052  11.444  16.933  0.00  0.00    +0.000 C 
ATOM     33  N   UNL     1      -3.719  11.421  15.603  0.00  0.00    +0.000 N 
ATOM     34  O   UNL     1      -5.213  11.261  17.279  0.00  0.00    +0.000 OA
ATOM     35  H   UNL     1      -2.792  11.109  15.345  0.00  0.00    +0.000 HD
ATOM     36  H   UNL     1      -4.475  11.103  14.998  0.00  0.00    +0.000 HD
ENDBRANCH   3  32
TORSDOF 7
ENDMDL
MODEL 8
REMARK VINA RESULT:      -7.1      4.477     11.015
REMARK  Name = 
REMARK  7 active torsions:
REMARK  status: ('A' for Active; 'I' for Inactive)
REMARK    1  A    between atoms: C_2  and  C_3
REMARK    2  A    between atoms: C_3  and  C_4
REMARK    3  A    between atoms: C_4  and  N_5
REMARK    4  A    between atoms: C_7  and  C_8
REMARK    5  A    between atoms: N_12  and  C_13
REMARK    6  A    between atoms: N_23  and  C_24
REMARK    7  A    between atoms: C_24  and  C_25
REMARK                            x       y       z     vdW  Elec       q    Type
REMARK                         _______ _______ _______ _____ _____    ______ ____
ROOT
ATOM      1  N   UNL     1       3.644   5.619  19.253  0.00  0.00    +0.000 N 
ATOM      2  C   UNL     1       3.555   4.456  19.976  0.00  0.00    +0.000 A 
ATOM      3  C   UNL     1       4.545   3.604  19.514  0.00  0.00    +0.000 A 
ATOM      4  C   UNL     1       5.186   4.349  18.483  0.00  0.00    +0.000 A 
ATOM      5  N   UNL     1       6.097   3.797  17.632  0.00  0.00    +0.000 N 
ATOM      6  N   UNL     1       4.721   5.603  18.443  0.00  0.00    +0.000 NA
ATOM      7  H   UNL     1       6.325   2.819  17.786  0.00  0.00    +0.000 HD
ENDROOT
BRANCH   5   8
ATOM      8  C   UNL     1       6.406   4.167  16.295  0.00  0.00    +0.000 A 
ATOM      9  C   UNL     1       7.349   5.175  16.064  0.00  0.00    +0.000 A 
ATOM     10  C   UNL     1       7.631   5.550  14.756  0.00  0.00    +0.000 A 
ATOM     11  N   UNL     1       7.044   5.006  13.672  0.00  0.00    +0.000 NA
ATOM     12  C   UNL     1       6.120   4.057  13.919  0.00  0.00    +0.000 A 
ATOM     13  F   UNL     1       5.519   3.492  12.860  0.00  0.00    +0.000 F 
ATOM     14  C   UNL     1       5.769   3.621  15.181  0.00  0.00    +0.000 A 
ENDBRANCH   5   8
BRANCH   1  15
ATOM     15  C   UNL     1       2.540   6.585  18.979  0.00  0.00    +0.000 C 
ATOM     16  C   UNL     1       2.058   7.335  20.260  0.00  0.00    +0.000 C 
ATOM     17  C   UNL     1       1.114   8.505  19.922  0.00  0.00    +0.000 C 
ATOM     18  N   UNL     1       1.719   9.456  18.979  0.00  0.00    +0.000 NA
ATOM     19  C   UNL     1       2.257   8.828  17.770  0.00  0.00    +0.000 C 
ATOM     20  C   UNL     1       3.173   7.660  18.068  0.00  0.00    +0.000 C 
BRANCH  15  21
ATOM     21  C   UNL     1       1.255   5.889  18.442  0.00  0.00    +0.000 C 
BRANCH  21  23
ATOM     22  N   UNL     1       1.655   3.461  17.145  0.00  0.00    +0.000 NA
ATOM     23  C   UNL     1       1.473   4.562  17.733  0.00  0.00    +0.000 C 
ENDBRANCH  21  23
ENDBRANCH  15  21
BRANCH  18  24
ATOM     24  C   UNL     1       0.758  10.508  18.555  0.00  0.00    +0.000 C 
BRANCH  24  25
ATOM     25  C   UNL     1       0.300  11.436  19.660  0.00  0.00    +0.000 A 
ATOM     26  C   UNL     1      -1.046  11.488  20.023  0.00  0.00    +0.000 A 
ATOM     27  C   UNL     1      -1.451  12.427  20.967  0.00  0.00    +0.000 A 
ATOM     28  C   UNL     1      -0.500  13.262  21.530  0.00  0.00    +0.000 A 
ATOM     29  F   UNL     1      -0.860  14.194  22.421  0.00  0.00    +0.000 F 
ATOM     30  C   UNL     1       0.822  13.130  21.145  0.00  0.00    +0.000 A 
ATOM     31  N   UNL     1       1.245  12.242  20.217  0.00  0.00    +0.000 NA
ENDBRANCH  24  25
ENDBRANCH  18  24
ENDBRANCH   1  15
BRANCH   3  32
ATOM     32  C   UNL     1       4.704   2.225  19.934  0.00  0.00    +0.000 C 
ATOM     33  N   UNL     1       4.335   1.270  19.022  0.00  0.00    +0.000 N 
ATOM     34  O   UNL     1       5.180   1.892  21.013  0.00  0.00    +0.000 OA
ATOM     35  H   UNL     1       4.394   1.497  18.038  0.00  0.00    +0.000 HD
ATOM     36  H   UNL     1       4.628   0.328  19.276  0.00  0.00    +0.000 HD
ENDBRANCH   3  32
TORSDOF 7
ENDMDL
MODEL 9
REMARK VINA RESULT:      -7.1      2.827      3.851
REMARK  Name = 
REMARK  7 active torsions:
REMARK  status: ('A' for Active; 'I' for Inactive)
REMARK    1  A    between atoms: C_2  and  C_3
REMARK    2  A    between atoms: C_3  and  C_4
REMARK    3  A    between atoms: C_4  and  N_5
REMARK    4  A    between atoms: C_7  and  C_8
REMARK    5  A    between atoms: N_12  and  C_13
REMARK    6  A    between atoms: N_23  and  C_24
REMARK    7  A    between atoms: C_24  and  C_25
REMARK                            x       y       z     vdW  Elec       q    Type
REMARK                         _______ _______ _______ _____ _____    ______ ____
ROOT
ATOM      1  N   UNL     1       0.598  11.708  20.410  0.00  0.00    +0.000 N 
ATOM      2  C   UNL     1       1.150  12.873  19.938  0.00  0.00    +0.000 A 
ATOM      3  C   UNL     1       0.439  13.924  20.493  0.00  0.00    +0.000 A 
ATOM      4  C   UNL     1      -0.552  13.285  21.293  0.00  0.00    +0.000 A 
ATOM      5  N   UNL     1      -1.590  13.962  21.860  0.00  0.00    +0.000 N 
ATOM      6  N   UNL     1      -0.346  11.964  21.338  0.00  0.00    +0.000 NA
ATOM      7  H   UNL     1      -1.612  14.966  21.709  0.00  0.00    +0.000 HD
ENDROOT
BRANCH   5   8
ATOM      8  C   UNL     1      -2.890  13.489  22.188  0.00  0.00    +0.000 A 
ATOM      9  C   UNL     1      -3.234  13.310  23.532  0.00  0.00    +0.000 A 
ATOM     10  C   UNL     1      -4.497  12.825  23.849  0.00  0.00    +0.000 A 
ATOM     11  N   UNL     1      -5.431  12.501  22.934  0.00  0.00    +0.000 NA
ATOM     12  C   UNL     1      -5.069  12.654  21.645  0.00  0.00    +0.000 A 
ATOM     13  F   UNL     1      -5.978  12.344  20.708  0.00  0.00    +0.000 F 
ATOM     14  C   UNL     1      -3.838  13.124  21.233  0.00  0.00    +0.000 A 
ENDBRANCH   5   8
BRANCH   1  15
ATOM     15  C   UNL     1       0.619  10.375  19.740  0.00  0.00    +0.000 C 
ATOM     16  C   UNL     1       1.510  10.356  18.458  0.00  0.00    +0.000 C 
ATOM     17  C   UNL     1       1.732   8.924  17.934  0.00  0.00    +0.000 C 
ATOM     18  N   UNL     1       2.304   8.037  18.958  0.00  0.00    +0.000 NA
ATOM     19  C   UNL     1       1.564   8.041  20.222  0.00  0.00    +0.000 C 
ATOM     20  C   UNL     1       1.310   9.435  20.753  0.00  0.00    +0.000 C 
BRANCH  15  21
ATOM     21  C   UNL     1      -0.786   9.937  19.233  0.00  0.00    +0.000 C 
BRANCH  21  23
ATOM     22  N   UNL     1      -2.001  11.656  17.416  0.00  0.00    +0.000 NA
ATOM     23  C   UNL     1      -1.450  10.877  18.240  0.00  0.00    +0.000 C 
ENDBRANCH  21  23
ENDBRANCH  15  21
BRANCH  18  24
ATOM     24  C   UNL     1       2.393   6.629  18.488  0.00  0.00    +0.000 C 
BRANCH  24  25
ATOM     25  C   UNL     1       3.801   6.102  18.316  0.00  0.00    +0.000 A 
ATOM     26  C   UNL     1       4.515   6.368  17.147  0.00  0.00    +0.000 A 
ATOM     27  C   UNL     1       5.765   5.781  16.976  0.00  0.00    +0.000 A 
ATOM     28  C   UNL     1       6.267   4.971  17.981  0.00  0.00    +0.000 A 
ATOM     29  F   UNL     1       7.454   4.370  17.836  0.00  0.00    +0.000 F 
ATOM     30  C   UNL     1       5.517   4.780  19.127  0.00  0.00    +0.000 A 
ATOM     31  N   UNL     1       4.291   5.320  19.317  0.00  0.00    +0.000 NA
ENDBRANCH  24  25
ENDBRANCH  18  24
ENDBRANCH   1  15
BRANCH   3  32
ATOM     32  C   UNL     1       0.630  15.319  20.145  0.00  0.00    +0.000 C 
ATOM     33  N   UNL     1       1.229  15.563  18.936  0.00  0.00    +0.000 N 
ATOM     34  O   UNL     1       0.251  16.253  20.842  0.00  0.00    +0.000 OA
ATOM     35  H   UNL     1       1.116  14.881  18.198  0.00  0.00    +0.000 HD
ATOM     36  H   UNL     1       1.181  16.539  18.646  0.00  0.00    +0.000 HD
ENDBRANCH   3  32
TORSDOF 7
ENDMDL
