MODEL 1
REMARK VINA RESULT:      -7.1      0.000      0.000
REMARK  Name = 
REMARK  4 active torsions:
REMARK  status: ('A' for Active; 'I' for Inactive)
REMARK    1  A    between atoms: C_1  and  S_2
REMARK    2  A    between atoms: S_2  and  C_3
REMARK    3  A    between atoms: C_7  and  C_8
REMARK    4  A    between atoms: N_10  and  C_11
REMARK                            x       y       z     vdW  Elec       q    Type
REMARK                         _______ _______ _______ _____ _____    ______ ____
ROOT
ATOM      1  C   UNL     1       4.234   5.308  17.034  0.00  0.00    +0.000 A 
ATOM      2  C   UNL     1       3.435   4.436  17.730  0.00  0.00    +0.000 A 
ATOM      3  N   UNL     1       2.566   5.240  18.402  0.00  0.00    +0.000 N 
ATOM      4  N   UNL     1       2.819   6.541  18.165  0.00  0.00    +0.000 NA
ATOM      5  N   UNL     1       3.856   6.594  17.332  0.00  0.00    +0.000 NA
ENDROOT
BRANCH   3   6
ATOM      6  C   UNL     1       1.464   4.812  19.239  0.00  0.00    +0.000 C 
ATOM      7  C   UNL     1       1.573   5.241  20.702  0.00  0.00    +0.000 C 
ATOM      8  C   UNL     1       2.381   4.264  21.541  0.00  0.00    +0.000 C 
ATOM      9  C   UNL     1       1.861   2.858  21.390  0.00  0.00    +0.000 C 
ATOM     10  O   UNL     1       1.890   2.040  22.303  0.00  0.00    +0.000 OA
ATOM     11  N   UNL     1       1.392   2.516  20.148  0.00  0.00    +0.000 N 
ATOM     12  C   UNL     1       1.202   3.332  19.060  0.00  0.00    +0.000 C 
ATOM     13  O   UNL     1       0.812   2.857  17.994  0.00  0.00    +0.000 OA
ATOM     14  H   UNL     1       1.138   1.545  20.024  0.00  0.00    +0.000 HD
ENDBRANCH   3   6
BRANCH   1  19
ATOM     15  C   UNL     1       6.749   5.257  16.423  0.00  0.00    +0.000 A 
ATOM     16  C   UNL     1       7.549   4.929  15.347  0.00  0.00    +0.000 A 
ATOM     17  S   UNL     1       6.655   4.322  14.022  0.00  0.00    +0.000 S 
ATOM     18  C   UNL     1       5.183   4.500  14.865  0.00  0.00    +0.000 A 
ATOM     19  C   UNL     1       5.356   5.032  16.132  0.00  0.00    +0.000 A 
BRANCH  15  21
ATOM     20  C   UNL     1       7.617   7.657  17.592  0.00  0.00    +0.000 C 
ATOM     21  S   UNL     1       7.372   5.908  17.947  0.00  0.00    +0.000 S 
ENDBRANCH  15  21
ENDBRANCH   1  19
TORSDOF 3
ENDMDL
MODEL 2
REMARK VINA RESULT:      -6.8      1.192      1.430
REMARK  Name = 
REMARK  4 active torsions:
REMARK  status: ('A' for Active; 'I' for Inactive)
REMARK    1  A    between atoms: C_1  and  S_2
REMARK    2  A    between atoms: S_2  and  C_3
REMARK    3  A    between atoms: C_7  and  C_8
REMARK    4  A    between atoms: N_10  and  C_11
REMARK                            x       y       z     vdW  Elec       q    Type
REMARK                         _______ _______ _______ _____ _____    ______ ____
ROOT
ATOM      1  C   UNL     1       4.521   3.969  16.850  0.00  0.00    +0.000 A 
ATOM      2  C   UNL     1       3.487   4.723  17.346  0.00  0.00    +0.000 A 
ATOM      3  N   UNL     1       2.833   3.880  18.191  0.00  0.00    +0.000 N 
ATOM      4  N   UNL     1       3.403   2.661  18.207  0.00  0.00    +0.000 NA
ATOM      5  N   UNL     1       4.438   2.700  17.371  0.00  0.00    +0.000 NA
ENDROOT
BRANCH   3   6
ATOM      6  C   UNL     1       1.696   4.207  19.027  0.00  0.00    +0.000 C 
ATOM      7  C   UNL     1       2.051   4.908  20.338  0.00  0.00    +0.000 C 
ATOM      8  C   UNL     1       2.388   3.932  21.453  0.00  0.00    +0.000 C 
ATOM      9  C   UNL     1       1.297   2.907  21.626  0.00  0.00    +0.000 C 
ATOM     10  O   UNL     1       1.007   2.425  22.716  0.00  0.00    +0.000 OA
ATOM     11  N   UNL     1       0.667   2.495  20.480  0.00  0.00    +0.000 N 
ATOM     12  C   UNL     1       0.803   2.999  19.210  0.00  0.00    +0.000 C 
ATOM     13  O   UNL     1       0.194   2.483  18.273  0.00  0.00    +0.000 OA
ATOM     14  H   UNL     1       0.007   1.736  20.588  0.00  0.00    +0.000 HD
ENDBRANCH   3   6
BRANCH   1  19
ATOM     15  C   UNL     1       6.808   4.997  16.204  0.00  0.00    +0.000 A 
ATOM     16  C   UNL     1       7.557   5.229  15.068  0.00  0.00    +0.000 A 
ATOM     17  S   UNL     1       6.813   4.624  13.652  0.00  0.00    +0.000 S 
ATOM     18  C   UNL     1       5.470   4.054  14.537  0.00  0.00    +0.000 A 
ATOM     19  C   UNL     1       5.569   4.332  15.890  0.00  0.00    +0.000 A 
BRANCH  15  21
ATOM     20  C   UNL     1       7.556   7.274  17.665  0.00  0.00    +0.000 C 
ATOM     21  S   UNL     1       7.305   5.499  17.827  0.00  0.00    +0.000 S 
ENDBRANCH  15  21
ENDBRANCH   1  19
TORSDOF 3
ENDMDL
MODEL 3
REMARK VINA RESULT:      -6.6      3.887      6.505
REMARK  Name = 
REMARK  4 active torsions:
REMARK  status: ('A' for Active; 'I' for Inactive)
REMARK    1  A    between atoms: C_1  and  S_2
REMARK    2  A    between atoms: S_2  and  C_3
REMARK    3  A    between atoms: C_7  and  C_8
REMARK    4  A    between atoms: N_10  and  C_11
REMARK                            x       y       z     vdW  Elec       q    Type
REMARK                         _______ _______ _______ _____ _____    ______ ____
ROOT
ATOM      1  C   UNL     1       4.038   3.859  18.581  0.00  0.00    +0.000 A 
ATOM      2  C   UNL     1       5.247   4.485  18.750  0.00  0.00    +0.000 A 
ATOM      3  N   UNL     1       5.903   4.271  17.577  0.00  0.00    +0.000 N 
ATOM      4  N   UNL     1       5.164   3.531  16.730  0.00  0.00    +0.000 NA
ATOM      5  N   UNL     1       4.016   3.259  17.345  0.00  0.00    +0.000 NA
ENDROOT
BRANCH   3   6
ATOM      6  C   UNL     1       7.207   4.786  17.212  0.00  0.00    +0.000 C 
ATOM      7  C   UNL     1       8.141   5.050  18.393  0.00  0.00    +0.000 C 
ATOM      8  C   UNL     1       7.943   6.429  19.000  0.00  0.00    +0.000 C 
ATOM      9  C   UNL     1       8.029   7.503  17.947  0.00  0.00    +0.000 C 
ATOM     10  O   UNL     1       8.483   8.620  18.176  0.00  0.00    +0.000 OA
ATOM     11  N   UNL     1       7.520   7.185  16.714  0.00  0.00    +0.000 N 
ATOM     12  C   UNL     1       7.071   5.965  16.272  0.00  0.00    +0.000 C 
ATOM     13  O   UNL     1       6.599   5.854  15.141  0.00  0.00    +0.000 OA
ATOM     14  H   UNL     1       7.489   7.940  16.042  0.00  0.00    +0.000 HD
ENDBRANCH   3   6
BRANCH   1  19
ATOM     15  C   UNL     1       2.060   4.824  19.944  0.00  0.00    +0.000 A 
ATOM     16  C   UNL     1       1.109   4.386  20.844  0.00  0.00    +0.000 A 
ATOM     17  S   UNL     1       1.196   2.703  21.130  0.00  0.00    +0.000 S 
ATOM     18  C   UNL     1       2.516   2.536  20.062  0.00  0.00    +0.000 A 
ATOM     19  C   UNL     1       2.905   3.743  19.505  0.00  0.00    +0.000 A 
BRANCH  15  21
ATOM     20  C   UNL     1       1.532   7.440  20.813  0.00  0.00    +0.000 C 
ATOM     21  S   UNL     1       2.229   6.512  19.436  0.00  0.00    +0.000 S 
ENDBRANCH  15  21
ENDBRANCH   1  19
TORSDOF 3
ENDMDL
MODEL 4
REMARK VINA RESULT:      -6.5      4.312      6.288
REMARK  Name = 
REMARK  4 active torsions:
REMARK  status: ('A' for Active; 'I' for Inactive)
REMARK    1  A    between atoms: C_1  and  S_2
REMARK    2  A    between atoms: S_2  and  C_3
REMARK    3  A    between atoms: C_7  and  C_8
REMARK    4  A    between atoms: N_10  and  C_11
REMARK                            x       y       z     vdW  Elec       q    Type
REMARK                         _______ _______ _______ _____ _____    ______ ____
ROOT
ATOM      1  C   UNL     1       2.280   8.010  18.521  0.00  0.00    +0.000 A 
ATOM      2  C   UNL     1       2.575   6.816  19.130  0.00  0.00    +0.000 A 
ATOM      3  N   UNL     1       3.630   6.329  18.421  0.00  0.00    +0.000 N 
ATOM      4  N   UNL     1       3.963   7.153  17.410  0.00  0.00    +0.000 NA
ATOM      5  N   UNL     1       3.127   8.187  17.454  0.00  0.00    +0.000 NA
ENDROOT
BRANCH   3   6
ATOM      6  C   UNL     1       4.370   5.115  18.698  0.00  0.00    +0.000 C 
ATOM      7  C   UNL     1       5.690   5.328  19.439  0.00  0.00    +0.000 C 
ATOM      8  C   UNL     1       6.847   5.630  18.500  0.00  0.00    +0.000 C 
ATOM      9  C   UNL     1       6.956   4.586  17.419  0.00  0.00    +0.000 C 
ATOM     10  O   UNL     1       8.030   4.240  16.939  0.00  0.00    +0.000 OA
ATOM     11  N   UNL     1       5.774   4.070  16.954  0.00  0.00    +0.000 N 
ATOM     12  C   UNL     1       4.508   4.277  17.444  0.00  0.00    +0.000 C 
ATOM     13  O   UNL     1       3.538   3.771  16.881  0.00  0.00    +0.000 OA
ATOM     14  H   UNL     1       5.846   3.446  16.162  0.00  0.00    +0.000 HD
ENDBRANCH   3   6
BRANCH   1  19
ATOM     15  C   UNL     1       0.781   9.342  20.159  0.00  0.00    +0.000 A 
ATOM     16  C   UNL     1      -0.240  10.269  20.110  0.00  0.00    +0.000 A 
ATOM     17  S   UNL     1      -0.622  10.745  18.513  0.00  0.00    +0.000 S 
ATOM     18  C   UNL     1       0.566   9.708  17.862  0.00  0.00    +0.000 A 
ATOM     19  C   UNL     1       1.237   8.990  18.838  0.00  0.00    +0.000 A 
BRANCH  15  21
ATOM     20  C   UNL     1       0.332   9.342  22.930  0.00  0.00    +0.000 C 
ATOM     21  S   UNL     1       1.411   8.653  21.663  0.00  0.00    +0.000 S 
ENDBRANCH  15  21
ENDBRANCH   1  19
TORSDOF 3
ENDMDL
MODEL 5
REMARK VINA RESULT:      -6.4      4.338      6.130
REMARK  Name = 
REMARK  4 active torsions:
REMARK  status: ('A' for Active; 'I' for Inactive)
REMARK    1  A    between atoms: C_1  and  S_2
REMARK    2  A    between atoms: S_2  and  C_3
REMARK    3  A    between atoms: C_7  and  C_8
REMARK    4  A    between atoms: N_10  and  C_11
REMARK                            x       y       z     vdW  Elec       q    Type
REMARK                         _______ _______ _______ _____ _____    ______ ____
ROOT
ATOM      1  C   UNL     1       1.960   7.866  19.320  0.00  0.00    +0.000 A 
ATOM      2  C   UNL     1       2.827   7.420  18.355  0.00  0.00    +0.000 A 
ATOM      3  N   UNL     1       3.195   6.180  18.781  0.00  0.00    +0.000 N 
ATOM      4  N   UNL     1       2.617   5.875  19.957  0.00  0.00    +0.000 NA
ATOM      5  N   UNL     1       1.863   6.915  20.307  0.00  0.00    +0.000 NA
ENDROOT
BRANCH   3   6
ATOM      6  C   UNL     1       4.055   5.247  18.082  0.00  0.00    +0.000 C 
ATOM      7  C   UNL     1       3.323   4.289  17.142  0.00  0.00    +0.000 C 
ATOM      8  C   UNL     1       2.816   3.045  17.852  0.00  0.00    +0.000 C 
ATOM      9  C   UNL     1       3.923   2.367  18.617  0.00  0.00    +0.000 C 
ATOM     10  O   UNL     1       3.978   1.150  18.762  0.00  0.00    +0.000 OA
ATOM     11  N   UNL     1       4.851   3.192  19.196  0.00  0.00    +0.000 N 
ATOM     12  C   UNL     1       4.985   4.550  19.051  0.00  0.00    +0.000 C 
ATOM     13  O   UNL     1       5.853   5.156  19.681  0.00  0.00    +0.000 OA
ATOM     14  H   UNL     1       5.533   2.740  19.791  0.00  0.00    +0.000 HD
ENDBRANCH   3   6
BRANCH   1  19
ATOM     15  C   UNL     1       0.844   9.799  20.632  0.00  0.00    +0.000 A 
ATOM     16  C   UNL     1       0.144  10.960  20.373  0.00  0.00    +0.000 A 
ATOM     17  S   UNL     1      -0.008  11.279  18.700  0.00  0.00    +0.000 S 
ATOM     18  C   UNL     1       0.852   9.862  18.297  0.00  0.00    +0.000 A 
ATOM     19  C   UNL     1       1.237   9.138  19.414  0.00  0.00    +0.000 A 
BRANCH  15  21
ATOM     20  C   UNL     1      -0.287   9.680  23.198  0.00  0.00    +0.000 C 
ATOM     21  S   UNL     1       1.174   9.194  22.263  0.00  0.00    +0.000 S 
ENDBRANCH  15  21
ENDBRANCH   1  19
TORSDOF 3
ENDMDL
MODEL 6
REMARK VINA RESULT:      -6.3      4.205      6.160
REMARK  Name = 
REMARK  4 active torsions:
REMARK  status: ('A' for Active; 'I' for Inactive)
REMARK    1  A    between atoms: C_1  and  S_2
REMARK    2  A    between atoms: S_2  and  C_3
REMARK    3  A    between atoms: C_7  and  C_8
REMARK    4  A    between atoms: N_10  and  C_11
REMARK                            x       y       z     vdW  Elec       q    Type
REMARK                         _______ _______ _______ _____ _____    ______ ____
ROOT
ATOM      1  C   UNL     1       2.195   7.750  19.248  0.00  0.00    +0.000 A 
ATOM      2  C   UNL     1       2.448   6.401  19.226  0.00  0.00    +0.000 A 
ATOM      3  N   UNL     1       3.240   6.226  18.133  0.00  0.00    +0.000 N 
ATOM      4  N   UNL     1       3.451   7.390  17.490  0.00  0.00    +0.000 NA
ATOM      5  N   UNL     1       2.799   8.335  18.162  0.00  0.00    +0.000 NA
ENDROOT
BRANCH   3   6
ATOM      6  C   UNL     1       3.845   4.985  17.694  0.00  0.00    +0.000 C 
ATOM      7  C   UNL     1       2.965   3.748  17.880  0.00  0.00    +0.000 C 
ATOM      8  C   UNL     1       3.096   3.139  19.266  0.00  0.00    +0.000 C 
ATOM      9  C   UNL     1       4.540   2.875  19.609  0.00  0.00    +0.000 C 
ATOM     10  O   UNL     1       4.893   1.929  20.306  0.00  0.00    +0.000 OA
ATOM     11  N   UNL     1       5.449   3.787  19.140  0.00  0.00    +0.000 N 
ATOM     12  C   UNL     1       5.233   4.833  18.278  0.00  0.00    +0.000 C 
ATOM     13  O   UNL     1       6.155   5.594  17.986  0.00  0.00    +0.000 OA
ATOM     14  H   UNL     1       6.402   3.662  19.456  0.00  0.00    +0.000 HD
ENDBRANCH   3   6
BRANCH   1  19
ATOM     15  C   UNL     1       0.483   9.597  19.849  0.00  0.00    +0.000 A 
ATOM     16  C   UNL     1      -0.082  10.161  20.975  0.00  0.00    +0.000 A 
ATOM     17  S   UNL     1       0.437   9.410  22.420  0.00  0.00    +0.000 S 
ATOM     18  C   UNL     1       1.435   8.325  21.561  0.00  0.00    +0.000 A 
ATOM     19  C   UNL     1       1.396   8.537  20.193  0.00  0.00    +0.000 A 
BRANCH  15  21
ATOM     20  C   UNL     1      -1.632  10.430  18.202  0.00  0.00    +0.000 C 
ATOM     21  S   UNL     1       0.146  10.147  18.200  0.00  0.00    +0.000 S 
ENDBRANCH  15  21
ENDBRANCH   1  19
TORSDOF 3
ENDMDL
MODEL 7
REMARK VINA RESULT:      -6.2      4.322      6.419
REMARK  Name = 
REMARK  4 active torsions:
REMARK  status: ('A' for Active; 'I' for Inactive)
REMARK    1  A    between atoms: C_1  and  S_2
REMARK    2  A    between atoms: S_2  and  C_3
REMARK    3  A    between atoms: C_7  and  C_8
REMARK    4  A    between atoms: N_10  and  C_11
REMARK                            x       y       z     vdW  Elec       q    Type
REMARK                         _______ _______ _______ _____ _____    ______ ____
ROOT
ATOM      1  C   UNL     1       1.591   7.539  20.344  0.00  0.00    +0.000 A 
ATOM      2  C   UNL     1       2.426   7.335  19.274  0.00  0.00    +0.000 A 
ATOM      3  N   UNL     1       2.738   6.012  19.339  0.00  0.00    +0.000 N 
ATOM      4  N   UNL     1       2.157   5.423  20.401  0.00  0.00    +0.000 NA
ATOM      5  N   UNL     1       1.458   6.360  21.037  0.00  0.00    +0.000 NA
ENDROOT
BRANCH   3   6
ATOM      6  C   UNL     1       3.544   5.268  18.393  0.00  0.00    +0.000 C 
ATOM      7  C   UNL     1       2.746   4.393  17.426  0.00  0.00    +0.000 C 
ATOM      8  C   UNL     1       2.434   3.020  17.998  0.00  0.00    +0.000 C 
ATOM      9  C   UNL     1       3.685   2.340  18.491  0.00  0.00    +0.000 C 
ATOM     10  O   UNL     1       3.843   1.124  18.437  0.00  0.00    +0.000 OA
ATOM     11  N   UNL     1       4.633   3.152  19.058  0.00  0.00    +0.000 N 
ATOM     12  C   UNL     1       4.653   4.524  19.107  0.00  0.00    +0.000 C 
ATOM     13  O   UNL     1       5.562   5.107  19.698  0.00  0.00    +0.000 OA
ATOM     14  H   UNL     1       5.424   2.681  19.477  0.00  0.00    +0.000 HD
ENDBRANCH   3   6
BRANCH   1  19
ATOM     15  C   UNL     1       0.451   9.830  19.949  0.00  0.00    +0.000 A 
ATOM     16  C   UNL     1      -0.085  10.863  20.690  0.00  0.00    +0.000 A 
ATOM     17  S   UNL     1      -0.055  10.553  22.371  0.00  0.00    +0.000 S 
ATOM     18  C   UNL     1       0.688   9.036  22.132  0.00  0.00    +0.000 A 
ATOM     19  C   UNL     1       0.931   8.768  20.796  0.00  0.00    +0.000 A 
BRANCH  15  21
ATOM     20  C   UNL     1      -1.148  10.016  17.650  0.00  0.00    +0.000 C 
ATOM     21  S   UNL     1       0.563   9.844  18.181  0.00  0.00    +0.000 S 
ENDBRANCH  15  21
ENDBRANCH   1  19
TORSDOF 3
ENDMDL
MODEL 8
REMARK VINA RESULT:      -6.2      4.219      6.344
REMARK  Name = 
REMARK  4 active torsions:
REMARK  status: ('A' for Active; 'I' for Inactive)
REMARK    1  A    between atoms: C_1  and  S_2
REMARK    2  A    between atoms: S_2  and  C_3
REMARK    3  A    between atoms: C_7  and  C_8
REMARK    4  A    between atoms: N_10  and  C_11
REMARK                            x       y       z     vdW  Elec       q    Type
REMARK                         _______ _______ _______ _____ _____    ______ ____
ROOT
ATOM      1  C   UNL     1       2.389   7.353  19.434  0.00  0.00    +0.000 A 
ATOM      2  C   UNL     1       3.030   6.227  19.885  0.00  0.00    +0.000 A 
ATOM      3  N   UNL     1       3.770   5.813  18.819  0.00  0.00    +0.000 N 
ATOM      4  N   UNL     1       3.584   6.613  17.753  0.00  0.00    +0.000 NA
ATOM      5  N   UNL     1       2.722   7.560  18.117  0.00  0.00    +0.000 NA
ENDROOT
BRANCH   3   6
ATOM      6  C   UNL     1       4.689   4.694  18.790  0.00  0.00    +0.000 C 
ATOM      7  C   UNL     1       6.113   5.029  19.234  0.00  0.00    +0.000 C 
ATOM      8  C   UNL     1       6.972   5.560  18.098  0.00  0.00    +0.000 C 
ATOM      9  C   UNL     1       6.943   4.629  16.914  0.00  0.00    +0.000 C 
ATOM     10  O   UNL     1       7.905   4.473  16.170  0.00  0.00    +0.000 OA
ATOM     11  N   UNL     1       5.752   3.994  16.673  0.00  0.00    +0.000 N 
ATOM     12  C   UNL     1       4.623   3.985  17.454  0.00  0.00    +0.000 C 
ATOM     13  O   UNL     1       3.612   3.396  17.071  0.00  0.00    +0.000 OA
ATOM     14  H   UNL     1       5.707   3.450  15.822  0.00  0.00    +0.000 HD
ENDBRANCH   3   6
BRANCH   1  19
ATOM     15  C   UNL     1       1.021   9.538  19.679  0.00  0.00    +0.000 A 
ATOM     16  C   UNL     1       0.164  10.128  20.586  0.00  0.00    +0.000 A 
ATOM     17  S   UNL     1      -0.157   9.131  21.937  0.00  0.00    +0.000 S 
ATOM     18  C   UNL     1       0.857   7.898  21.334  0.00  0.00    +0.000 A 
ATOM     19  C   UNL     1       1.451   8.239  20.131  0.00  0.00    +0.000 A 
BRANCH  15  21
ATOM     20  C   UNL     1       1.781  12.034  18.645  0.00  0.00    +0.000 C 
ATOM     21  S   UNL     1       1.546  10.312  18.175  0.00  0.00    +0.000 S 
ENDBRANCH  15  21
ENDBRANCH   1  19
TORSDOF 3
ENDMDL
MODEL 9
REMARK VINA RESULT:      -6.1      4.194      6.410
REMARK  Name = 
REMARK  4 active torsions:
REMARK  status: ('A' for Active; 'I' for Inactive)
REMARK    1  A    between atoms: C_1  and  S_2
REMARK    2  A    between atoms: S_2  and  C_3
REMARK    3  A    between atoms: C_7  and  C_8
REMARK    4  A    between atoms: N_10  and  C_11
REMARK                            x       y       z     vdW  Elec       q    Type
REMARK                         _______ _______ _______ _____ _____    ______ ____
ROOT
ATOM      1  C   UNL     1       2.334   7.301  19.356  0.00  0.00    +0.000 A 
ATOM      2  C   UNL     1       3.474   6.927  18.692  0.00  0.00    +0.000 A 
ATOM      3  N   UNL     1       3.731   5.670  19.148  0.00  0.00    +0.000 N 
ATOM      4  N   UNL     1       2.824   5.287  20.066  0.00  0.00    +0.000 NA
ATOM      5  N   UNL     1       1.964   6.292  20.212  0.00  0.00    +0.000 NA
ENDROOT
BRANCH   3   6
ATOM      6  C   UNL     1       4.798   4.793  18.710  0.00  0.00    +0.000 C 
ATOM      7  C   UNL     1       6.206   5.293  19.033  0.00  0.00    +0.000 C 
ATOM      8  C   UNL     1       6.754   6.231  17.970  0.00  0.00    +0.000 C 
ATOM      9  C   UNL     1       6.664   5.610  16.600  0.00  0.00    +0.000 C 
ATOM     10  O   UNL     1       7.493   5.824  15.721  0.00  0.00    +0.000 OA
ATOM     11  N   UNL     1       5.567   4.824  16.363  0.00  0.00    +0.000 N 
ATOM     12  C   UNL     1       4.610   4.412  17.257  0.00  0.00    +0.000 C 
ATOM     13  O   UNL     1       3.655   3.738  16.872  0.00  0.00    +0.000 OA
ATOM     14  H   UNL     1       5.459   4.492  15.413  0.00  0.00    +0.000 HD
ENDBRANCH   3   6
BRANCH   1  19
ATOM     15  C   UNL     1       1.063   9.300  20.403  0.00  0.00    +0.000 A 
ATOM     16  C   UNL     1       0.361  10.414  19.989  0.00  0.00    +0.000 A 
ATOM     17  S   UNL     1       0.348  10.592  18.289  0.00  0.00    +0.000 S 
ATOM     18  C   UNL     1       1.273   9.173  18.080  0.00  0.00    +0.000 A 
ATOM     19  C   UNL     1       1.576   8.554  19.282  0.00  0.00    +0.000 A 
BRANCH  15  21
ATOM     20  C   UNL     1      -0.209   9.505  22.897  0.00  0.00    +0.000 C 
ATOM     21  S   UNL     1       1.263   8.839  22.101  0.00  0.00    +0.000 S 
ENDBRANCH  15  21
ENDBRANCH   1  19
TORSDOF 3
ENDMDL
