MODEL 1
REMARK VINA RESULT:      -6.8      0.000      0.000
REMARK  Name = 
REMARK  4 active torsions:
REMARK  status: ('A' for Active; 'I' for Inactive)
REMARK    1  A    between atoms: C_1  and  C_2
REMARK    2  A    between atoms: C_2  and  C_3
REMARK    3  A    between atoms: C_2  and  N_4
REMARK    4  A    between atoms: C_14  and  C_15
REMARK                            x       y       z     vdW  Elec       q    Type
REMARK                         _______ _______ _______ _____ _____    ______ ____
ROOT
ATOM      1  N   UNL     1       3.560   3.598  18.448  0.00  0.00    +0.000 N 
ATOM      2  N   UNL     1       3.159   4.398  19.450  0.00  0.00    +0.000 NA
ATOM      3  C   UNL     1       3.989   5.436  19.396  0.00  0.00    +0.000 A 
ATOM      4  C   UNL     1       4.930   5.332  18.339  0.00  0.00    +0.000 A 
ATOM      5  C   UNL     1       4.593   4.144  17.717  0.00  0.00    +0.000 A 
ATOM      6  N   UNL     1       5.229   3.576  16.637  0.00  0.00    +0.000 N 
ATOM      7  C   UNL     1       5.765   4.325  15.546  0.00  0.00    +0.000 C 
ATOM      8  O   UNL     1       6.375   3.672  14.716  0.00  0.00    +0.000 OA
ATOM      9  C   UNL     1       5.414   5.785  15.412  0.00  0.00    +0.000 C 
ATOM     10  S   UNL     1       6.383   6.887  16.466  0.00  0.00    +0.000 S 
ATOM     11  C   UNL     1       6.121   6.222  18.167  0.00  0.00    +0.000 C 
ATOM     12  H   UNL     1       5.259   2.566  16.522  0.00  0.00    +0.000 HD
ENDROOT
BRANCH  11  13
ATOM     13  C   UNL     1       7.402   5.632  18.818  0.00  0.00    +0.000 C 
ATOM     14  F   UNL     1       7.175   5.215  20.087  0.00  0.00    +0.000 F 
ATOM     15  F   UNL     1       7.885   4.566  18.145  0.00  0.00    +0.000 F 
ATOM     16  F   UNL     1       8.381   6.564  18.876  0.00  0.00    +0.000 F 
ENDBRANCH  11  13
BRANCH   1  18
ATOM     17  C   UNL     1       3.722   1.155  18.686  0.00  0.00    +0.000 C 
ATOM     18  C   UNL     1       2.877   2.331  18.199  0.00  0.00    +0.000 C 
ATOM     19  C   UNL     1       1.471   2.281  18.803  0.00  0.00    +0.000 C 
ENDBRANCH   1  18
TORSDOF 2
ENDMDL
MODEL 2
REMARK VINA RESULT:      -6.7      3.327      5.229
REMARK  Name = 
REMARK  4 active torsions:
REMARK  status: ('A' for Active; 'I' for Inactive)
REMARK    1  A    between atoms: C_1  and  C_2
REMARK    2  A    between atoms: C_2  and  C_3
REMARK    3  A    between atoms: C_2  and  N_4
REMARK    4  A    between atoms: C_14  and  C_15
REMARK                            x       y       z     vdW  Elec       q    Type
REMARK                         _______ _______ _______ _____ _____    ______ ____
ROOT
ATOM      1  N   UNL     1       6.101   5.332  17.867  0.00  0.00    +0.000 N 
ATOM      2  N   UNL     1       6.476   4.642  16.776  0.00  0.00    +0.000 NA
ATOM      3  C   UNL     1       5.459   3.816  16.544  0.00  0.00    +0.000 A 
ATOM      4  C   UNL     1       4.398   3.976  17.472  0.00  0.00    +0.000 A 
ATOM      5  C   UNL     1       4.833   5.000  18.292  0.00  0.00    +0.000 A 
ATOM      6  N   UNL     1       4.166   5.518  19.378  0.00  0.00    +0.000 N 
ATOM      7  C   UNL     1       2.750   5.694  19.431  0.00  0.00    +0.000 C 
ATOM      8  O   UNL     1       2.313   6.083  20.502  0.00  0.00    +0.000 OA
ATOM      9  C   UNL     1       1.942   5.553  18.166  0.00  0.00    +0.000 C 
ATOM     10  S   UNL     1       1.575   3.847  17.699  0.00  0.00    +0.000 S 
ATOM     11  C   UNL     1       3.233   3.044  17.604  0.00  0.00    +0.000 C 
ATOM     12  H   UNL     1       4.676   5.898  20.171  0.00  0.00    +0.000 HD
ENDROOT
BRANCH  11  13
ATOM     13  C   UNL     1       3.467   1.950  18.681  0.00  0.00    +0.000 C 
ATOM     14  F   UNL     1       3.868   0.779  18.131  0.00  0.00    +0.000 F 
ATOM     15  F   UNL     1       4.416   2.296  19.578  0.00  0.00    +0.000 F 
ATOM     16  F   UNL     1       2.325   1.698  19.361  0.00  0.00    +0.000 F 
ENDBRANCH  11  13
BRANCH   1  18
ATOM     17  C   UNL     1       8.091   5.696  19.266  0.00  0.00    +0.000 C 
ATOM     18  C   UNL     1       6.985   6.345  18.436  0.00  0.00    +0.000 C 
ATOM     19  C   UNL     1       7.574   7.286  17.382  0.00  0.00    +0.000 C 
ENDBRANCH   1  18
TORSDOF 2
ENDMDL
MODEL 3
REMARK VINA RESULT:      -6.5      3.865      5.322
REMARK  Name = 
REMARK  4 active torsions:
REMARK  status: ('A' for Active; 'I' for Inactive)
REMARK    1  A    between atoms: C_1  and  C_2
REMARK    2  A    between atoms: C_2  and  C_3
REMARK    3  A    between atoms: C_2  and  N_4
REMARK    4  A    between atoms: C_14  and  C_15
REMARK                            x       y       z     vdW  Elec       q    Type
REMARK                         _______ _______ _______ _____ _____    ______ ____
ROOT
ATOM      1  N   UNL     1       5.418   5.507  18.025  0.00  0.00    +0.000 N 
ATOM      2  N   UNL     1       4.764   6.670  17.873  0.00  0.00    +0.000 NA
ATOM      3  C   UNL     1       3.526   6.407  18.287  0.00  0.00    +0.000 A 
ATOM      4  C   UNL     1       3.369   5.070  18.734  0.00  0.00    +0.000 A 
ATOM      5  C   UNL     1       4.632   4.526  18.589  0.00  0.00    +0.000 A 
ATOM      6  N   UNL     1       5.001   3.230  18.866  0.00  0.00    +0.000 N 
ATOM      7  C   UNL     1       4.494   2.477  19.967  0.00  0.00    +0.000 C 
ATOM      8  O   UNL     1       4.859   1.314  20.015  0.00  0.00    +0.000 OA
ATOM      9  C   UNL     1       3.707   3.183  21.042  0.00  0.00    +0.000 C 
ATOM     10  S   UNL     1       1.975   3.484  20.627  0.00  0.00    +0.000 S 
ATOM     11  C   UNL     1       2.055   4.422  19.040  0.00  0.00    +0.000 C 
ATOM     12  H   UNL     1       5.745   2.776  18.341  0.00  0.00    +0.000 HD
ENDROOT
BRANCH  11  13
ATOM     13  C   UNL     1       1.475   3.651  17.822  0.00  0.00    +0.000 C 
ATOM     14  F   UNL     1       2.453   3.101  17.062  0.00  0.00    +0.000 F 
ATOM     15  F   UNL     1       0.659   2.639  18.186  0.00  0.00    +0.000 F 
ATOM     16  F   UNL     1       0.772   4.484  17.021  0.00  0.00    +0.000 F 
ENDBRANCH  11  13
BRANCH   1  18
ATOM     17  C   UNL     1       6.984   4.742  16.288  0.00  0.00    +0.000 C 
ATOM     18  C   UNL     1       6.828   5.403  17.656  0.00  0.00    +0.000 C 
ATOM     19  C   UNL     1       7.558   6.748  17.700  0.00  0.00    +0.000 C 
ENDBRANCH   1  18
TORSDOF 2
ENDMDL
MODEL 4
REMARK VINA RESULT:      -6.5      3.207      5.088
REMARK  Name = 
REMARK  4 active torsions:
REMARK  status: ('A' for Active; 'I' for Inactive)
REMARK    1  A    between atoms: C_1  and  C_2
REMARK    2  A    between atoms: C_2  and  C_3
REMARK    3  A    between atoms: C_2  and  N_4
REMARK    4  A    between atoms: C_14  and  C_15
REMARK                            x       y       z     vdW  Elec       q    Type
REMARK                         _______ _______ _______ _____ _____    ______ ____
ROOT
ATOM      1  N   UNL     1       6.394   5.034  17.352  0.00  0.00    +0.000 N 
ATOM      2  N   UNL     1       6.581   4.258  16.270  0.00  0.00    +0.000 NA
ATOM      3  C   UNL     1       5.463   3.542  16.183  0.00  0.00    +0.000 A 
ATOM      4  C   UNL     1       4.525   3.861  17.198  0.00  0.00    +0.000 A 
ATOM      5  C   UNL     1       5.148   4.865  17.914  0.00  0.00    +0.000 A 
ATOM      6  N   UNL     1       4.654   5.503  19.029  0.00  0.00    +0.000 N 
ATOM      7  C   UNL     1       3.278   5.839  19.208  0.00  0.00    +0.000 C 
ATOM      8  O   UNL     1       2.996   6.322  20.292  0.00  0.00    +0.000 OA
ATOM      9  C   UNL     1       2.336   5.734  18.036  0.00  0.00    +0.000 C 
ATOM     10  S   UNL     1       1.741   4.061  17.702  0.00  0.00    +0.000 S 
ATOM     11  C   UNL     1       3.286   3.073  17.493  0.00  0.00    +0.000 C 
ATOM     12  H   UNL     1       5.280   5.858  19.747  0.00  0.00    +0.000 HD
ENDROOT
BRANCH  11  13
ATOM     13  C   UNL     1       3.509   2.009  18.602  0.00  0.00    +0.000 C 
ATOM     14  F   UNL     1       2.384   1.792  19.326  0.00  0.00    +0.000 F 
ATOM     15  F   UNL     1       3.882   0.810  18.106  0.00  0.00    +0.000 F 
ATOM     16  F   UNL     1       4.465   2.416  19.469  0.00  0.00    +0.000 F 
ENDBRANCH  11  13
BRANCH   1  18
ATOM     17  C   UNL     1       7.040   7.405  17.453  0.00  0.00    +0.000 C 
ATOM     18  C   UNL     1       7.436   5.966  17.776  0.00  0.00    +0.000 C 
ATOM     19  C   UNL     1       7.803   5.818  19.255  0.00  0.00    +0.000 C 
ENDBRANCH   1  18
TORSDOF 2
ENDMDL
MODEL 5
REMARK VINA RESULT:      -6.5      2.776      3.488
REMARK  Name = 
REMARK  4 active torsions:
REMARK  status: ('A' for Active; 'I' for Inactive)
REMARK    1  A    between atoms: C_1  and  C_2
REMARK    2  A    between atoms: C_2  and  C_3
REMARK    3  A    between atoms: C_2  and  N_4
REMARK    4  A    between atoms: C_14  and  C_15
REMARK                            x       y       z     vdW  Elec       q    Type
REMARK                         _______ _______ _______ _____ _____    ______ ____
ROOT
ATOM      1  N   UNL     1       3.113   4.083  19.082  0.00  0.00    +0.000 N 
ATOM      2  N   UNL     1       2.380   3.647  18.044  0.00  0.00    +0.000 NA
ATOM      3  C   UNL     1       3.095   3.983  16.973  0.00  0.00    +0.000 A 
ATOM      4  C   UNL     1       4.316   4.625  17.307  0.00  0.00    +0.000 A 
ATOM      5  C   UNL     1       4.313   4.634  18.689  0.00  0.00    +0.000 A 
ATOM      6  N   UNL     1       5.279   5.174  19.506  0.00  0.00    +0.000 N 
ATOM      7  C   UNL     1       6.678   5.120  19.226  0.00  0.00    +0.000 C 
ATOM      8  O   UNL     1       7.390   5.726  20.010  0.00  0.00    +0.000 OA
ATOM      9  C   UNL     1       7.174   4.219  18.124  0.00  0.00    +0.000 C 
ATOM     10  S   UNL     1       7.008   4.907  16.462  0.00  0.00    +0.000 S 
ATOM     11  C   UNL     1       5.213   5.313  16.326  0.00  0.00    +0.000 C 
ATOM     12  H   UNL     1       5.037   5.559  20.415  0.00  0.00    +0.000 HD
ENDROOT
BRANCH  11  13
ATOM     13  C   UNL     1       4.917   6.834  16.217  0.00  0.00    +0.000 C 
ATOM     14  F   UNL     1       4.759   7.226  14.929  0.00  0.00    +0.000 F 
ATOM     15  F   UNL     1       3.790   7.193  16.867  0.00  0.00    +0.000 F 
ATOM     16  F   UNL     1       5.940   7.558  16.728  0.00  0.00    +0.000 F 
ENDBRANCH  11  13
BRANCH   1  18
ATOM     17  C   UNL     1       1.119   4.083  20.523  0.00  0.00    +0.000 C 
ATOM     18  C   UNL     1       2.633   3.898  20.450  0.00  0.00    +0.000 C 
ATOM     19  C   UNL     1       3.049   2.554  21.052  0.00  0.00    +0.000 C 
ENDBRANCH   1  18
TORSDOF 2
ENDMDL
MODEL 6
REMARK VINA RESULT:      -6.4      3.125      4.296
REMARK  Name = 
REMARK  4 active torsions:
REMARK  status: ('A' for Active; 'I' for Inactive)
REMARK    1  A    between atoms: C_1  and  C_2
REMARK    2  A    between atoms: C_2  and  C_3
REMARK    3  A    between atoms: C_2  and  N_4
REMARK    4  A    between atoms: C_14  and  C_15
REMARK                            x       y       z     vdW  Elec       q    Type
REMARK                         _______ _______ _______ _____ _____    ______ ____
ROOT
ATOM      1  N   UNL     1       3.361   6.502  18.064  0.00  0.00    +0.000 N 
ATOM      2  N   UNL     1       2.668   5.351  18.030  0.00  0.00    +0.000 NA
ATOM      3  C   UNL     1       3.490   4.490  17.434  0.00  0.00    +0.000 A 
ATOM      4  C   UNL     1       4.739   5.070  17.093  0.00  0.00    +0.000 A 
ATOM      5  C   UNL     1       4.634   6.368  17.556  0.00  0.00    +0.000 A 
ATOM      6  N   UNL     1       5.585   7.356  17.444  0.00  0.00    +0.000 N 
ATOM      7  C   UNL     1       6.989   7.126  17.562  0.00  0.00    +0.000 C 
ATOM      8  O   UNL     1       7.696   8.097  17.348  0.00  0.00    +0.000 OA
ATOM      9  C   UNL     1       7.476   5.798  18.084  0.00  0.00    +0.000 C 
ATOM     10  S   UNL     1       7.501   4.474  16.856  0.00  0.00    +0.000 S 
ATOM     11  C   UNL     1       5.770   4.424  16.220  0.00  0.00    +0.000 C 
ATOM     12  H   UNL     1       5.315   8.334  17.367  0.00  0.00    +0.000 HD
ENDROOT
BRANCH  11  13
ATOM     13  C   UNL     1       5.631   4.839  14.731  0.00  0.00    +0.000 C 
ATOM     14  F   UNL     1       6.836   4.913  14.114  0.00  0.00    +0.000 F 
ATOM     15  F   UNL     1       4.888   3.969  14.013  0.00  0.00    +0.000 F 
ATOM     16  F   UNL     1       5.058   6.060  14.626  0.00  0.00    +0.000 F 
ENDBRANCH  11  13
BRANCH   1  18
ATOM     17  C   UNL     1       1.873   8.413  17.632  0.00  0.00    +0.000 C 
ATOM     18  C   UNL     1       2.765   7.701  18.648  0.00  0.00    +0.000 C 
ATOM     19  C   UNL     1       2.000   7.418  19.944  0.00  0.00    +0.000 C 
ENDBRANCH   1  18
TORSDOF 2
ENDMDL
MODEL 7
REMARK VINA RESULT:      -6.4      3.961      5.456
REMARK  Name = 
REMARK  4 active torsions:
REMARK  status: ('A' for Active; 'I' for Inactive)
REMARK    1  A    between atoms: C_1  and  C_2
REMARK    2  A    between atoms: C_2  and  C_3
REMARK    3  A    between atoms: C_2  and  N_4
REMARK    4  A    between atoms: C_14  and  C_15
REMARK                            x       y       z     vdW  Elec       q    Type
REMARK                         _______ _______ _______ _____ _____    ______ ____
ROOT
ATOM      1  N   UNL     1       1.660   8.221  19.941  0.00  0.00    +0.000 N 
ATOM      2  N   UNL     1       1.701   8.868  18.764  0.00  0.00    +0.000 NA
ATOM      3  C   UNL     1       2.227   7.984  17.920  0.00  0.00    +0.000 A 
ATOM      4  C   UNL     1       2.515   6.740  18.538  0.00  0.00    +0.000 A 
ATOM      5  C   UNL     1       2.094   6.917  19.842  0.00  0.00    +0.000 A 
ATOM      6  N   UNL     1       2.181   5.998  20.863  0.00  0.00    +0.000 N 
ATOM      7  C   UNL     1       1.980   4.596  20.688  0.00  0.00    +0.000 C 
ATOM      8  O   UNL     1       2.182   3.913  21.679  0.00  0.00    +0.000 OA
ATOM      9  C   UNL     1       1.396   4.090  19.394  0.00  0.00    +0.000 C 
ATOM     10  S   UNL     1       2.585   3.949  18.041  0.00  0.00    +0.000 S 
ATOM     11  C   UNL     1       3.312   5.640  17.909  0.00  0.00    +0.000 C 
ATOM     12  H   UNL     1       2.299   6.299  21.827  0.00  0.00    +0.000 HD
ENDROOT
BRANCH  11  13
ATOM     13  C   UNL     1       4.818   5.710  18.281  0.00  0.00    +0.000 C 
ATOM     14  F   UNL     1       5.520   4.684  17.740  0.00  0.00    +0.000 F 
ATOM     15  F   UNL     1       5.409   6.845  17.852  0.00  0.00    +0.000 F 
ATOM     16  F   UNL     1       4.983   5.637  19.622  0.00  0.00    +0.000 F 
ENDBRANCH  11  13
BRANCH   1  18
ATOM     17  C   UNL     1       1.061  10.401  20.911  0.00  0.00    +0.000 C 
ATOM     18  C   UNL     1       1.143   8.892  21.131  0.00  0.00    +0.000 C 
ATOM     19  C   UNL     1      -0.204   8.332  21.594  0.00  0.00    +0.000 C 
ENDBRANCH   1  18
TORSDOF 2
ENDMDL
MODEL 8
REMARK VINA RESULT:      -6.3      3.860      5.152
REMARK  Name = 
REMARK  4 active torsions:
REMARK  status: ('A' for Active; 'I' for Inactive)
REMARK    1  A    between atoms: C_1  and  C_2
REMARK    2  A    between atoms: C_2  and  C_3
REMARK    3  A    between atoms: C_2  and  N_4
REMARK    4  A    between atoms: C_14  and  C_15
REMARK                            x       y       z     vdW  Elec       q    Type
REMARK                         _______ _______ _______ _____ _____    ______ ____
ROOT
ATOM      1  N   UNL     1       1.964   7.553  19.632  0.00  0.00    +0.000 N 
ATOM      2  N   UNL     1       1.421   6.941  20.697  0.00  0.00    +0.000 NA
ATOM      3  C   UNL     1       1.817   5.675  20.587  0.00  0.00    +0.000 A 
ATOM      4  C   UNL     1       2.644   5.455  19.454  0.00  0.00    +0.000 A 
ATOM      5  C   UNL     1       2.752   6.708  18.881  0.00  0.00    +0.000 A 
ATOM      6  N   UNL     1       3.437   7.025  17.730  0.00  0.00    +0.000 N 
ATOM      7  C   UNL     1       4.683   6.435  17.359  0.00  0.00    +0.000 C 
ATOM      8  O   UNL     1       5.109   6.764  16.264  0.00  0.00    +0.000 OA
ATOM      9  C   UNL     1       5.437   5.609  18.370  0.00  0.00    +0.000 C 
ATOM     10  S   UNL     1       4.842   3.912  18.545  0.00  0.00    +0.000 S 
ATOM     11  C   UNL     1       3.051   4.108  18.945  0.00  0.00    +0.000 C 
ATOM     12  H   UNL     1       3.125   7.783  17.129  0.00  0.00    +0.000 HD
ENDROOT
BRANCH  11  13
ATOM     13  C   UNL     1       2.096   3.576  17.842  0.00  0.00    +0.000 C 
ATOM     14  F   UNL     1       1.526   2.399  18.194  0.00  0.00    +0.000 F 
ATOM     15  F   UNL     1       1.083   4.428  17.575  0.00  0.00    +0.000 F 
ATOM     16  F   UNL     1       2.771   3.360  16.689  0.00  0.00    +0.000 F 
ENDBRANCH  11  13
BRANCH   1  18
ATOM     17  C   UNL     1       1.197   9.224  17.997  0.00  0.00    +0.000 C 
ATOM     18  C   UNL     1       1.734   8.978  19.406  0.00  0.00    +0.000 C 
ATOM     19  C   UNL     1       0.819   9.609  20.458  0.00  0.00    +0.000 C 
ENDBRANCH   1  18
TORSDOF 2
ENDMDL
MODEL 9
REMARK VINA RESULT:      -6.2      3.194      4.751
REMARK  Name = 
REMARK  4 active torsions:
REMARK  status: ('A' for Active; 'I' for Inactive)
REMARK    1  A    between atoms: C_1  and  C_2
REMARK    2  A    between atoms: C_2  and  C_3
REMARK    3  A    between atoms: C_2  and  N_4
REMARK    4  A    between atoms: C_14  and  C_15
REMARK                            x       y       z     vdW  Elec       q    Type
REMARK                         _______ _______ _______ _____ _____    ______ ____
ROOT
ATOM      1  N   UNL     1       6.034   5.082  15.883  0.00  0.00    +0.000 N 
ATOM      2  N   UNL     1       6.708   6.181  16.259  0.00  0.00    +0.000 NA
ATOM      3  C   UNL     1       6.087   6.585  17.364  0.00  0.00    +0.000 A 
ATOM      4  C   UNL     1       5.011   5.736  17.732  0.00  0.00    +0.000 A 
ATOM      5  C   UNL     1       5.033   4.745  16.769  0.00  0.00    +0.000 A 
ATOM      6  N   UNL     1       4.164   3.684  16.666  0.00  0.00    +0.000 N 
ATOM      7  C   UNL     1       3.637   2.976  17.788  0.00  0.00    +0.000 C 
ATOM      8  O   UNL     1       2.810   2.119  17.523  0.00  0.00    +0.000 OA
ATOM      9  C   UNL     1       4.234   3.210  19.153  0.00  0.00    +0.000 C 
ATOM     10  S   UNL     1       3.638   4.698  19.985  0.00  0.00    +0.000 S 
ATOM     11  C   UNL     1       3.995   6.053  18.785  0.00  0.00    +0.000 C 
ATOM     12  H   UNL     1       3.930   3.287  15.759  0.00  0.00    +0.000 HD
ENDROOT
BRANCH  11  13
ATOM     13  C   UNL     1       2.726   6.730  18.201  0.00  0.00    +0.000 C 
ATOM     14  F   UNL     1       2.041   7.418  19.146  0.00  0.00    +0.000 F 
ATOM     15  F   UNL     1       3.009   7.610  17.218  0.00  0.00    +0.000 F 
ATOM     16  F   UNL     1       1.880   5.802  17.696  0.00  0.00    +0.000 F 
ENDBRANCH  11  13
BRANCH   1  18
ATOM     17  C   UNL     1       5.219   4.099  13.779  0.00  0.00    +0.000 C 
ATOM     18  C   UNL     1       6.427   4.354  14.679  0.00  0.00    +0.000 C 
ATOM     19  C   UNL     1       7.551   5.046  13.903  0.00  0.00    +0.000 C 
ENDBRANCH   1  18
TORSDOF 2
ENDMDL
