MODEL 1
REMARK VINA RESULT:      -6.8      0.000      0.000
REMARK  Name = 
REMARK  6 active torsions:
REMARK  status: ('A' for Active; 'I' for Inactive)
REMARK    1  A    between atoms: C_1  and  C_2
REMARK    2  A    between atoms: N_4  and  C_5
REMARK    3  A    between atoms: C_6  and  C_7
REMARK    4  A    between atoms: N_10  and  O_11
REMARK    5  A    between atoms: O_11  and  C_12
REMARK    6  A    between atoms: C_15  and  N_16
REMARK                            x       y       z     vdW  Elec       q    Type
REMARK                         _______ _______ _______ _____ _____    ______ ____
ROOT
ATOM      1  C   UNL     1       2.383   3.716  21.939  0.00  0.00    +0.000 C 
ATOM      2  C   UNL     1       3.173   3.307  20.698  0.00  0.00    +0.000 C 
ATOM      3  C   UNL     1       2.396   2.316  19.820  0.00  0.00    +0.000 C 
ATOM      4  N   UNL     1       1.238   2.949  19.169  0.00  0.00    +0.000 NA
ATOM      5  C   UNL     1       0.408   1.958  18.486  0.00  0.00    +0.000 C 
ATOM      6  C   UNL     1       1.609   4.087  18.301  0.00  0.00    +0.000 C 
ATOM      7  C   UNL     1       2.428   3.720  17.053  0.00  0.00    +0.000 C 
ATOM      8  C   UNL     1       2.340   5.163  19.117  0.00  0.00    +0.000 C 
ATOM      9  C   UNL     1       3.504   4.528  19.853  0.00  0.00    +0.000 C 
ATOM     10  N   UNL     1       4.737   4.943  19.820  0.00  0.00    +0.000 NA
ENDROOT
BRANCH  10  11
ATOM     11  O   UNL     1       4.883   6.067  18.996  0.00  0.00    +0.000 OA
BRANCH  11  12
ATOM     12  C   UNL     1       5.460   5.722  17.795  0.00  0.00    +0.000 A 
ATOM     13  C   UNL     1       4.936   6.342  16.655  0.00  0.00    +0.000 A 
ATOM     14  C   UNL     1       5.453   6.048  15.389  0.00  0.00    +0.000 A 
ATOM     15  C   UNL     1       6.511   5.138  15.274  0.00  0.00    +0.000 A 
ATOM     16  C   UNL     1       7.060   4.535  16.413  0.00  0.00    +0.000 A 
ATOM     17  C   UNL     1       6.533   4.835  17.673  0.00  0.00    +0.000 A 
BRANCH  15  18
ATOM     18  N   UNL     1       7.049   4.808  13.947  0.00  0.00    +0.000 N 
ATOM     19  O   UNL     1       7.969   5.516  13.508  0.00  0.00    +0.000 OA
ATOM     20  O   UNL     1       6.554   3.848  13.343  0.00  0.00    +0.000 OA
ENDBRANCH  15  18
ENDBRANCH  11  12
ENDBRANCH  10  11
TORSDOF 3
ENDMDL
MODEL 2
REMARK VINA RESULT:      -6.6      4.380      6.567
REMARK  Name = 
REMARK  6 active torsions:
REMARK  status: ('A' for Active; 'I' for Inactive)
REMARK    1  A    between atoms: C_1  and  C_2
REMARK    2  A    between atoms: N_4  and  C_5
REMARK    3  A    between atoms: C_6  and  C_7
REMARK    4  A    between atoms: N_10  and  O_11
REMARK    5  A    between atoms: O_11  and  C_12
REMARK    6  A    between atoms: C_15  and  N_16
REMARK                            x       y       z     vdW  Elec       q    Type
REMARK                         _______ _______ _______ _____ _____    ______ ____
ROOT
ATOM      1  C   UNL     1       1.319   3.521  21.019  0.00  0.00    +0.000 C 
ATOM      2  C   UNL     1       2.634   4.090  20.490  0.00  0.00    +0.000 C 
ATOM      3  C   UNL     1       3.534   3.002  19.889  0.00  0.00    +0.000 C 
ATOM      4  N   UNL     1       2.985   2.465  18.634  0.00  0.00    +0.000 NA
ATOM      5  C   UNL     1       3.753   1.311  18.171  0.00  0.00    +0.000 C 
ATOM      6  C   UNL     1       2.807   3.496  17.590  0.00  0.00    +0.000 C 
ATOM      7  C   UNL     1       4.107   4.114  17.050  0.00  0.00    +0.000 C 
ATOM      8  C   UNL     1       1.862   4.601  18.086  0.00  0.00    +0.000 C 
ATOM      9  C   UNL     1       2.367   5.131  19.414  0.00  0.00    +0.000 C 
ATOM     10  N   UNL     1       2.581   6.383  19.697  0.00  0.00    +0.000 NA
ENDROOT
BRANCH  10  11
ATOM     11  O   UNL     1       2.299   7.216  18.605  0.00  0.00    +0.000 OA
BRANCH  11  12
ATOM     12  C   UNL     1       1.792   8.423  19.028  0.00  0.00    +0.000 A 
ATOM     13  C   UNL     1       1.425   8.505  20.376  0.00  0.00    +0.000 A 
ATOM     14  C   UNL     1       0.893   9.690  20.894  0.00  0.00    +0.000 A 
ATOM     15  C   UNL     1       0.743  10.800  20.054  0.00  0.00    +0.000 A 
ATOM     16  C   UNL     1       1.135  10.736  18.710  0.00  0.00    +0.000 A 
ATOM     17  C   UNL     1       1.664   9.545  18.203  0.00  0.00    +0.000 A 
BRANCH  15  18
ATOM     18  N   UNL     1       0.168  12.044  20.584  0.00  0.00    +0.000 N 
ATOM     19  O   UNL     1      -0.453  12.772  19.794  0.00  0.00    +0.000 OA
ATOM     20  O   UNL     1       0.339  12.297  21.783  0.00  0.00    +0.000 OA
ENDBRANCH  15  18
ENDBRANCH  11  12
ENDBRANCH  10  11
TORSDOF 3
ENDMDL
MODEL 3
REMARK VINA RESULT:      -6.6      4.417      6.496
REMARK  Name = 
REMARK  6 active torsions:
REMARK  status: ('A' for Active; 'I' for Inactive)
REMARK    1  A    between atoms: C_1  and  C_2
REMARK    2  A    between atoms: N_4  and  C_5
REMARK    3  A    between atoms: C_6  and  C_7
REMARK    4  A    between atoms: N_10  and  O_11
REMARK    5  A    between atoms: O_11  and  C_12
REMARK    6  A    between atoms: C_15  and  N_16
REMARK                            x       y       z     vdW  Elec       q    Type
REMARK                         _______ _______ _______ _____ _____    ______ ____
ROOT
ATOM      1  C   UNL     1       1.135   3.601  20.849  0.00  0.00    +0.000 C 
ATOM      2  C   UNL     1       2.539   4.090  20.499  0.00  0.00    +0.000 C 
ATOM      3  C   UNL     1       3.422   2.965  19.944  0.00  0.00    +0.000 C 
ATOM      4  N   UNL     1       2.982   2.527  18.610  0.00  0.00    +0.000 NA
ATOM      5  C   UNL     1       3.713   1.339  18.174  0.00  0.00    +0.000 C 
ATOM      6  C   UNL     1       2.997   3.614  17.608  0.00  0.00    +0.000 C 
ATOM      7  C   UNL     1       4.390   4.153  17.247  0.00  0.00    +0.000 C 
ATOM      8  C   UNL     1       2.082   4.764  18.055  0.00  0.00    +0.000 C 
ATOM      9  C   UNL     1       2.470   5.196  19.456  0.00  0.00    +0.000 C 
ATOM     10  N   UNL     1       2.739   6.414  19.825  0.00  0.00    +0.000 NA
ENDROOT
BRANCH  10  11
ATOM     11  O   UNL     1       2.642   7.313  18.754  0.00  0.00    +0.000 OA
BRANCH  11  12
ATOM     12  C   UNL     1       1.760   8.328  19.045  0.00  0.00    +0.000 A 
ATOM     13  C   UNL     1       1.378   9.144  17.974  0.00  0.00    +0.000 A 
ATOM     14  C   UNL     1       0.491  10.206  18.175  0.00  0.00    +0.000 A 
ATOM     15  C   UNL     1      -0.024  10.438  19.456  0.00  0.00    +0.000 A 
ATOM     16  C   UNL     1       0.331   9.608  20.528  0.00  0.00    +0.000 A 
ATOM     17  C   UNL     1       1.220   8.551  20.315  0.00  0.00    +0.000 A 
BRANCH  15  18
ATOM     18  N   UNL     1      -0.942  11.563  19.682  0.00  0.00    +0.000 N 
ATOM     19  O   UNL     1      -1.441  12.106  18.684  0.00  0.00    +0.000 OA
ATOM     20  O   UNL     1      -1.162  11.906  20.850  0.00  0.00    +0.000 OA
ENDBRANCH  15  18
ENDBRANCH  11  12
ENDBRANCH  10  11
TORSDOF 3
ENDMDL
MODEL 4
REMARK VINA RESULT:      -6.6      0.195      1.102
REMARK  Name = 
REMARK  6 active torsions:
REMARK  status: ('A' for Active; 'I' for Inactive)
REMARK    1  A    between atoms: C_1  and  C_2
REMARK    2  A    between atoms: N_4  and  C_5
REMARK    3  A    between atoms: C_6  and  C_7
REMARK    4  A    between atoms: N_10  and  O_11
REMARK    5  A    between atoms: O_11  and  C_12
REMARK    6  A    between atoms: C_15  and  N_16
REMARK                            x       y       z     vdW  Elec       q    Type
REMARK                         _______ _______ _______ _____ _____    ______ ____
ROOT
ATOM      1  C   UNL     1       2.314   3.467  21.943  0.00  0.00    +0.000 C 
ATOM      2  C   UNL     1       3.125   3.154  20.686  0.00  0.00    +0.000 C 
ATOM      3  C   UNL     1       2.384   2.194  19.746  0.00  0.00    +0.000 C 
ATOM      4  N   UNL     1       1.212   2.829  19.122  0.00  0.00    +0.000 NA
ATOM      5  C   UNL     1       0.417   1.856  18.376  0.00  0.00    +0.000 C 
ATOM      6  C   UNL     1       1.556   4.026  18.326  0.00  0.00    +0.000 C 
ATOM      7  C   UNL     1       2.394   3.757  17.065  0.00  0.00    +0.000 C 
ATOM      8  C   UNL     1       2.249   5.074  19.209  0.00  0.00    +0.000 C 
ATOM      9  C   UNL     1       3.426   4.432  19.917  0.00  0.00    +0.000 C 
ATOM     10  N   UNL     1       4.646   4.883  19.920  0.00  0.00    +0.000 NA
ENDROOT
BRANCH  10  11
ATOM     11  O   UNL     1       4.765   6.057  19.163  0.00  0.00    +0.000 OA
BRANCH  11  12
ATOM     12  C   UNL     1       5.259   5.784  17.908  0.00  0.00    +0.000 A 
ATOM     13  C   UNL     1       6.267   4.816  17.836  0.00  0.00    +0.000 A 
ATOM     14  C   UNL     1       6.836   4.477  16.604  0.00  0.00    +0.000 A 
ATOM     15  C   UNL     1       6.378   5.106  15.440  0.00  0.00    +0.000 A 
ATOM     16  C   UNL     1       5.349   6.056  15.501  0.00  0.00    +0.000 A 
ATOM     17  C   UNL     1       4.789   6.388  16.738  0.00  0.00    +0.000 A 
BRANCH  15  18
ATOM     18  N   UNL     1       6.982   4.772  14.143  0.00  0.00    +0.000 N 
ATOM     19  O   UNL     1       7.881   5.513  13.720  0.00  0.00    +0.000 OA
ATOM     20  O   UNL     1       6.557   3.773  13.547  0.00  0.00    +0.000 OA
ENDBRANCH  15  18
ENDBRANCH  11  12
ENDBRANCH  10  11
TORSDOF 3
ENDMDL
MODEL 5
REMARK VINA RESULT:      -6.5      6.102      8.617
REMARK  Name = 
REMARK  6 active torsions:
REMARK  status: ('A' for Active; 'I' for Inactive)
REMARK    1  A    between atoms: C_1  and  C_2
REMARK    2  A    between atoms: N_4  and  C_5
REMARK    3  A    between atoms: C_6  and  C_7
REMARK    4  A    between atoms: N_10  and  O_11
REMARK    5  A    between atoms: O_11  and  C_12
REMARK    6  A    between atoms: C_15  and  N_16
REMARK                            x       y       z     vdW  Elec       q    Type
REMARK                         _______ _______ _______ _____ _____    ______ ____
ROOT
ATOM      1  C   UNL     1      11.262  11.794  20.445  0.00  0.00    +0.000 C 
ATOM      2  C   UNL     1       9.753  11.749  20.208  0.00  0.00    +0.000 C 
ATOM      3  C   UNL     1       9.150  13.152  20.053  0.00  0.00    +0.000 C 
ATOM      4  N   UNL     1       9.570  13.796  18.798  0.00  0.00    +0.000 NA
ATOM      5  C   UNL     1       9.140  15.192  18.749  0.00  0.00    +0.000 C 
ATOM      6  C   UNL     1       9.183  13.030  17.594  0.00  0.00    +0.000 C 
ATOM      7  C   UNL     1       7.670  12.938  17.334  0.00  0.00    +0.000 C 
ATOM      8  C   UNL     1       9.800  11.624  17.635  0.00  0.00    +0.000 C 
ATOM      9  C   UNL     1       9.438  10.957  18.948  0.00  0.00    +0.000 C 
ATOM     10  N   UNL     1       8.893   9.782  19.075  0.00  0.00    +0.000 NA
ENDROOT
BRANCH  10  11
ATOM     11  O   UNL     1       8.657   9.184  17.830  0.00  0.00    +0.000 OA
BRANCH  11  12
ATOM     12  C   UNL     1       7.985   7.992  17.979  0.00  0.00    +0.000 A 
ATOM     13  C   UNL     1       6.918   7.767  17.101  0.00  0.00    +0.000 A 
ATOM     14  C   UNL     1       6.172   6.587  17.182  0.00  0.00    +0.000 A 
ATOM     15  C   UNL     1       6.511   5.624  18.140  0.00  0.00    +0.000 A 
ATOM     16  C   UNL     1       7.597   5.829  19.004  0.00  0.00    +0.000 A 
ATOM     17  C   UNL     1       8.334   7.013  18.915  0.00  0.00    +0.000 A 
BRANCH  15  18
ATOM     18  N   UNL     1       5.723   4.389  18.246  0.00  0.00    +0.000 N 
ATOM     19  O   UNL     1       5.641   3.853  19.362  0.00  0.00    +0.000 OA
ATOM     20  O   UNL     1       5.188   3.953  17.218  0.00  0.00    +0.000 OA
ENDBRANCH  15  18
ENDBRANCH  11  12
ENDBRANCH  10  11
TORSDOF 3
ENDMDL
MODEL 6
REMARK VINA RESULT:      -6.4      4.928      6.623
REMARK  Name = 
REMARK  6 active torsions:
REMARK  status: ('A' for Active; 'I' for Inactive)
REMARK    1  A    between atoms: C_1  and  C_2
REMARK    2  A    between atoms: N_4  and  C_5
REMARK    3  A    between atoms: C_6  and  C_7
REMARK    4  A    between atoms: N_10  and  O_11
REMARK    5  A    between atoms: O_11  and  C_12
REMARK    6  A    between atoms: C_15  and  N_16
REMARK                            x       y       z     vdW  Elec       q    Type
REMARK                         _______ _______ _______ _____ _____    ______ ____
ROOT
ATOM      1  C   UNL     1       0.589  12.860  18.342  0.00  0.00    +0.000 C 
ATOM      2  C   UNL     1       1.401  11.861  19.165  0.00  0.00    +0.000 C 
ATOM      3  C   UNL     1       1.059  11.931  20.659  0.00  0.00    +0.000 C 
ATOM      4  N   UNL     1      -0.295  11.426  20.938  0.00  0.00    +0.000 NA
ATOM      5  C   UNL     1      -0.673  11.666  22.330  0.00  0.00    +0.000 C 
ATOM      6  C   UNL     1      -0.488  10.021  20.522  0.00  0.00    +0.000 C 
ATOM      7  C   UNL     1       0.332   8.985  21.309  0.00  0.00    +0.000 C 
ATOM      8  C   UNL     1      -0.227   9.870  19.016  0.00  0.00    +0.000 C 
ATOM      9  C   UNL     1       1.138  10.441  18.685  0.00  0.00    +0.000 C 
ATOM     10  N   UNL     1       2.079   9.824  18.033  0.00  0.00    +0.000 NA
ENDROOT
BRANCH  10  11
ATOM     11  O   UNL     1       1.691   8.528  17.668  0.00  0.00    +0.000 OA
BRANCH  11  12
ATOM     12  C   UNL     1       2.654   7.610  18.020  0.00  0.00    +0.000 A 
ATOM     13  C   UNL     1       2.388   6.837  19.156  0.00  0.00    +0.000 A 
ATOM     14  C   UNL     1       3.313   5.884  19.595  0.00  0.00    +0.000 A 
ATOM     15  C   UNL     1       4.501   5.698  18.878  0.00  0.00    +0.000 A 
ATOM     16  C   UNL     1       4.761   6.447  17.723  0.00  0.00    +0.000 A 
ATOM     17  C   UNL     1       3.830   7.399  17.295  0.00  0.00    +0.000 A 
BRANCH  15  18
ATOM     18  N   UNL     1       5.487   4.712  19.341  0.00  0.00    +0.000 N 
ATOM     19  O   UNL     1       6.604   5.132  19.681  0.00  0.00    +0.000 OA
ATOM     20  O   UNL     1       5.149   3.521  19.363  0.00  0.00    +0.000 OA
ENDBRANCH  15  18
ENDBRANCH  11  12
ENDBRANCH  10  11
TORSDOF 3
ENDMDL
MODEL 7
REMARK VINA RESULT:      -6.4      5.116      7.811
REMARK  Name = 
REMARK  6 active torsions:
REMARK  status: ('A' for Active; 'I' for Inactive)
REMARK    1  A    between atoms: C_1  and  C_2
REMARK    2  A    between atoms: N_4  and  C_5
REMARK    3  A    between atoms: C_6  and  C_7
REMARK    4  A    between atoms: N_10  and  O_11
REMARK    5  A    between atoms: O_11  and  C_12
REMARK    6  A    between atoms: C_15  and  N_16
REMARK                            x       y       z     vdW  Elec       q    Type
REMARK                         _______ _______ _______ _____ _____    ______ ____
ROOT
ATOM      1  C   UNL     1       0.759   3.583  20.251  0.00  0.00    +0.000 C 
ATOM      2  C   UNL     1       2.068   4.341  20.465  0.00  0.00    +0.000 C 
ATOM      3  C   UNL     1       3.266   3.612  19.843  0.00  0.00    +0.000 C 
ATOM      4  N   UNL     1       3.218   3.629  18.372  0.00  0.00    +0.000 NA
ATOM      5  C   UNL     1       4.260   2.781  17.798  0.00  0.00    +0.000 C 
ATOM      6  C   UNL     1       3.210   4.996  17.808  0.00  0.00    +0.000 C 
ATOM      7  C   UNL     1       4.501   5.802  18.025  0.00  0.00    +0.000 C 
ATOM      8  C   UNL     1       1.999   5.782  18.331  0.00  0.00    +0.000 C 
ATOM      9  C   UNL     1       1.985   5.729  19.846  0.00  0.00    +0.000 C 
ATOM     10  N   UNL     1       1.905   6.757  20.640  0.00  0.00    +0.000 NA
ENDROOT
BRANCH  10  11
ATOM     11  O   UNL     1       1.845   7.960  19.923  0.00  0.00    +0.000 OA
BRANCH  11  12
ATOM     12  C   UNL     1       1.107   8.900  20.605  0.00  0.00    +0.000 A 
ATOM     13  C   UNL     1       1.115   8.802  22.001  0.00  0.00    +0.000 A 
ATOM     14  C   UNL     1       0.389   9.710  22.778  0.00  0.00    +0.000 A 
ATOM     15  C   UNL     1      -0.336  10.728  22.147  0.00  0.00    +0.000 A 
ATOM     16  C   UNL     1      -0.326  10.851  20.751  0.00  0.00    +0.000 A 
ATOM     17  C   UNL     1       0.403   9.936  19.984  0.00  0.00    +0.000 A 
BRANCH  15  18
ATOM     18  N   UNL     1      -1.118  11.676  22.953  0.00  0.00    +0.000 N 
ATOM     19  O   UNL     1      -2.247  11.320  23.324  0.00  0.00    +0.000 OA
ATOM     20  O   UNL     1      -0.608  12.773  23.213  0.00  0.00    +0.000 OA
ENDBRANCH  15  18
ENDBRANCH  11  12
ENDBRANCH  10  11
TORSDOF 3
ENDMDL
MODEL 8
REMARK VINA RESULT:      -6.4      5.197      7.850
REMARK  Name = 
REMARK  6 active torsions:
REMARK  status: ('A' for Active; 'I' for Inactive)
REMARK    1  A    between atoms: C_1  and  C_2
REMARK    2  A    between atoms: N_4  and  C_5
REMARK    3  A    between atoms: C_6  and  C_7
REMARK    4  A    between atoms: N_10  and  O_11
REMARK    5  A    between atoms: O_11  and  C_12
REMARK    6  A    between atoms: C_15  and  N_16
REMARK                            x       y       z     vdW  Elec       q    Type
REMARK                         _______ _______ _______ _____ _____    ______ ____
ROOT
ATOM      1  C   UNL     1       1.333   3.657  20.100  0.00  0.00    +0.000 C 
ATOM      2  C   UNL     1       2.537   4.583  20.260  0.00  0.00    +0.000 C 
ATOM      3  C   UNL     1       3.779   4.049  19.535  0.00  0.00    +0.000 C 
ATOM      4  N   UNL     1       3.629   4.103  18.073  0.00  0.00    +0.000 NA
ATOM      5  C   UNL     1       4.737   3.426  17.401  0.00  0.00    +0.000 C 
ATOM      6  C   UNL     1       3.394   5.471  17.563  0.00  0.00    +0.000 C 
ATOM      7  C   UNL     1       4.573   6.444  17.730  0.00  0.00    +0.000 C 
ATOM      8  C   UNL     1       2.125   6.064  18.192  0.00  0.00    +0.000 C 
ATOM      9  C   UNL     1       2.221   5.964  19.702  0.00  0.00    +0.000 C 
ATOM     10  N   UNL     1       2.054   6.946  20.539  0.00  0.00    +0.000 NA
ENDROOT
BRANCH  10  11
ATOM     11  O   UNL     1       1.780   8.150  19.875  0.00  0.00    +0.000 OA
BRANCH  11  12
ATOM     12  C   UNL     1       1.060   9.002  20.681  0.00  0.00    +0.000 A 
ATOM     13  C   UNL     1       0.766  10.261  20.146  0.00  0.00    +0.000 A 
ATOM     14  C   UNL     1       0.045  11.196  20.895  0.00  0.00    +0.000 A 
ATOM     15  C   UNL     1      -0.392  10.857  22.181  0.00  0.00    +0.000 A 
ATOM     16  C   UNL     1      -0.126   9.588  22.713  0.00  0.00    +0.000 A 
ATOM     17  C   UNL     1       0.597   8.661  21.955  0.00  0.00    +0.000 A 
BRANCH  15  18
ATOM     18  N   UNL     1      -1.134  11.839  22.984  0.00  0.00    +0.000 N 
ATOM     19  O   UNL     1      -0.560  12.903  23.263  0.00  0.00    +0.000 OA
ATOM     20  O   UNL     1      -2.284  11.548  23.337  0.00  0.00    +0.000 OA
ENDBRANCH  15  18
ENDBRANCH  11  12
ENDBRANCH  10  11
TORSDOF 3
ENDMDL
MODEL 9
REMARK VINA RESULT:      -6.3      2.606      6.619
REMARK  Name = 
REMARK  6 active torsions:
REMARK  status: ('A' for Active; 'I' for Inactive)
REMARK    1  A    between atoms: C_1  and  C_2
REMARK    2  A    between atoms: N_4  and  C_5
REMARK    3  A    between atoms: C_6  and  C_7
REMARK    4  A    between atoms: N_10  and  O_11
REMARK    5  A    between atoms: O_11  and  C_12
REMARK    6  A    between atoms: C_15  and  N_16
REMARK                            x       y       z     vdW  Elec       q    Type
REMARK                         _______ _______ _______ _____ _____    ______ ____
ROOT
ATOM      1  C   UNL     1       7.019   4.907  14.475  0.00  0.00    +0.000 C 
ATOM      2  C   UNL     1       6.680   4.277  15.825  0.00  0.00    +0.000 C 
ATOM      3  C   UNL     1       7.464   4.920  16.977  0.00  0.00    +0.000 C 
ATOM      4  N   UNL     1       7.024   6.300  17.239  0.00  0.00    +0.000 NA
ATOM      5  C   UNL     1       7.897   6.958  18.209  0.00  0.00    +0.000 C 
ATOM      6  C   UNL     1       5.592   6.395  17.594  0.00  0.00    +0.000 C 
ATOM      7  C   UNL     1       5.204   5.749  18.934  0.00  0.00    +0.000 C 
ATOM      8  C   UNL     1       4.724   5.828  16.461  0.00  0.00    +0.000 C 
ATOM      9  C   UNL     1       5.195   4.428  16.122  0.00  0.00    +0.000 C 
ATOM     10  N   UNL     1       4.442   3.368  16.064  0.00  0.00    +0.000 NA
ENDROOT
BRANCH  10  11
ATOM     11  O   UNL     1       3.107   3.666  16.370  0.00  0.00    +0.000 OA
BRANCH  11  12
ATOM     12  C   UNL     1       2.851   3.452  17.705  0.00  0.00    +0.000 A 
ATOM     13  C   UNL     1       1.805   4.195  18.264  0.00  0.00    +0.000 A 
ATOM     14  C   UNL     1       1.477   4.050  19.615  0.00  0.00    +0.000 A 
ATOM     15  C   UNL     1       2.195   3.142  20.403  0.00  0.00    +0.000 A 
ATOM     16  C   UNL     1       3.225   2.373  19.844  0.00  0.00    +0.000 A 
ATOM     17  C   UNL     1       3.545   2.528  18.492  0.00  0.00    +0.000 A 
BRANCH  15  18
ATOM     18  N   UNL     1       1.871   2.996  21.829  0.00  0.00    +0.000 N 
ATOM     19  O   UNL     1       0.963   2.206  22.133  0.00  0.00    +0.000 OA
ATOM     20  O   UNL     1       2.517   3.668  22.642  0.00  0.00    +0.000 OA
ENDBRANCH  15  18
ENDBRANCH  11  12
ENDBRANCH  10  11
TORSDOF 3
ENDMDL
