MODEL 1
REMARK VINA RESULT:      -7.2      0.000      0.000
REMARK  Name = 
REMARK  3 active torsions:
REMARK  status: ('A' for Active; 'I' for Inactive)
REMARK    1  A    between atoms: C_2  and  C_3
REMARK    2  A    between atoms: C_18  and  C_19
REMARK    3  A    between atoms: C_25  and  C_26
REMARK                            x       y       z     vdW  Elec       q    Type
REMARK                         _______ _______ _______ _____ _____    ______ ____
ROOT
ATOM      1  O   UNL     1      -2.639  14.370  20.786  0.00  0.00    +0.000 OA
ATOM      2  C   UNL     1      -2.102  13.573  21.556  0.00  0.00    +0.000 C 
ATOM      3  N   UNL     1      -1.071  12.726  21.170  0.00  0.00    +0.000 N 
ATOM      4  C   UNL     1      -0.437  11.724  22.054  0.00  0.00    +0.000 C 
ATOM      5  C   UNL     1      -0.485  10.298  21.485  0.00  0.00    +0.000 C 
ATOM      6  N   UNL     1      -0.132  10.287  20.076  0.00  0.00    +0.000 N 
ATOM      7  C   UNL     1       0.776   9.399  19.566  0.00  0.00    +0.000 A 
ATOM      8  N   UNL     1       1.335   8.497  20.382  0.00  0.00    +0.000 NA
ATOM      9  C   UNL     1       2.203   7.614  19.835  0.00  0.00    +0.000 A 
ATOM     10  C   UNL     1       2.577   7.581  18.507  0.00  0.00    +0.000 A 
ATOM     11  C   UNL     1       1.973   8.580  17.773  0.00  0.00    +0.000 A 
ATOM     12  N   UNL     1       1.077   9.462  18.261  0.00  0.00    +0.000 NA
ATOM     13  C   UNL     1      -0.811  11.254  19.207  0.00  0.00    +0.000 C 
ATOM     14  C   UNL     1      -0.599  12.699  19.749  0.00  0.00    +0.000 C 
ENDROOT
BRANCH   2  15
ATOM     15  C   UNL     1      -2.473  13.565  23.051  0.00  0.00    +0.000 C 
ATOM     16  C   UNL     1      -3.969  13.699  23.372  0.00  0.00    +0.000 C 
ATOM     17  C   UNL     1      -4.581  15.057  23.089  0.00  0.00    +0.000 C 
ATOM     18  S   UNL     1      -3.707  16.357  23.936  0.00  0.00    +0.000 S 
ATOM     19  O   UNL     1      -4.102  17.625  23.342  0.00  0.00    +0.000 OA
ATOM     20  O   UNL     1      -3.825  16.133  25.354  0.00  0.00    +0.000 OA
ATOM     21  C   UNL     1      -2.019  16.042  23.468  0.00  0.00    +0.000 C 
ATOM     22  C   UNL     1      -1.613  14.609  23.784  0.00  0.00    +0.000 C 
ENDBRANCH   2  15
BRANCH  14  23
ATOM     23  C   UNL     1       0.850  13.198  19.589  0.00  0.00    +0.000 A 
ATOM     24  C   UNL     1       1.507  13.895  20.629  0.00  0.00    +0.000 A 
ATOM     25  C   UNL     1       2.806  14.381  20.483  0.00  0.00    +0.000 A 
ATOM     26  C   UNL     1       3.481  14.147  19.299  0.00  0.00    +0.000 A 
ATOM     27  F   UNL     1       4.729  14.608  19.148  0.00  0.00    +0.000 F 
ATOM     28  C   UNL     1       2.884  13.430  18.270  0.00  0.00    +0.000 A 
ATOM     29  C   UNL     1       1.579  12.941  18.417  0.00  0.00    +0.000 A 
ENDBRANCH  14  23
BRANCH  10  30
ATOM     30  C   UNL     1       3.551   6.591  17.930  0.00  0.00    +0.000 C 
ATOM     31  C   UNL     1       4.121   5.494  18.800  0.00  0.00    +0.000 C 
ATOM     32  C   UNL     1       3.136   5.150  17.725  0.00  0.00    +0.000 C 
ENDBRANCH  10  30
TORSDOF 3
ENDMDL
MODEL 2
REMARK VINA RESULT:      -7.1      3.337      4.912
REMARK  Name = 
REMARK  3 active torsions:
REMARK  status: ('A' for Active; 'I' for Inactive)
REMARK    1  A    between atoms: C_2  and  C_3
REMARK    2  A    between atoms: C_18  and  C_19
REMARK    3  A    between atoms: C_25  and  C_26
REMARK                            x       y       z     vdW  Elec       q    Type
REMARK                         _______ _______ _______ _____ _____    ______ ____
ROOT
ATOM      1  O   UNL     1      -0.644  14.712  23.727  0.00  0.00    +0.000 OA
ATOM      2  C   UNL     1      -1.730  14.160  23.553  0.00  0.00    +0.000 C 
ATOM      3  N   UNL     1      -1.962  13.253  22.528  0.00  0.00    +0.000 N 
ATOM      4  C   UNL     1      -3.267  12.608  22.260  0.00  0.00    +0.000 C 
ATOM      5  C   UNL     1      -3.773  12.836  20.829  0.00  0.00    +0.000 C 
ATOM      6  N   UNL     1      -2.706  12.646  19.861  0.00  0.00    +0.000 N 
ATOM      7  C   UNL     1      -2.876  11.877  18.742  0.00  0.00    +0.000 A 
ATOM      8  N   UNL     1      -4.065  11.306  18.516  0.00  0.00    +0.000 NA
ATOM      9  C   UNL     1      -4.204  10.581  17.383  0.00  0.00    +0.000 A 
ATOM     10  C   UNL     1      -3.212  10.362  16.448  0.00  0.00    +0.000 A 
ATOM     11  C   UNL     1      -2.022  10.960  16.805  0.00  0.00    +0.000 A 
ATOM     12  N   UNL     1      -1.840  11.720  17.905  0.00  0.00    +0.000 NA
ATOM     13  C   UNL     1      -1.438  13.336  20.119  0.00  0.00    +0.000 C 
ATOM     14  C   UNL     1      -0.893  12.947  21.525  0.00  0.00    +0.000 C 
ENDROOT
BRANCH   2  15
ATOM     15  C   UNL     1      -2.876  14.361  24.564  0.00  0.00    +0.000 C 
ATOM     16  C   UNL     1      -4.235  14.754  23.969  0.00  0.00    +0.000 C 
ATOM     17  C   UNL     1      -4.319  16.154  23.393  0.00  0.00    +0.000 C 
ATOM     18  S   UNL     1      -3.855  17.384  24.594  0.00  0.00    +0.000 S 
ATOM     19  O   UNL     1      -3.605  18.631  23.887  0.00  0.00    +0.000 OA
ATOM     20  O   UNL     1      -4.792  17.326  25.686  0.00  0.00    +0.000 OA
ATOM     21  C   UNL     1      -2.292  16.768  25.178  0.00  0.00    +0.000 C 
ATOM     22  C   UNL     1      -2.407  15.330  25.663  0.00  0.00    +0.000 C 
ENDBRANCH   2  15
BRANCH  14  23
ATOM     23  C   UNL     1      -0.401  11.488  21.599  0.00  0.00    +0.000 A 
ATOM     24  C   UNL     1       0.335  10.905  20.543  0.00  0.00    +0.000 A 
ATOM     25  C   UNL     1       0.755   9.575  20.584  0.00  0.00    +0.000 A 
ATOM     26  C   UNL     1       0.470   8.817  21.704  0.00  0.00    +0.000 A 
ATOM     27  F   UNL     1       0.870   7.540  21.755  0.00  0.00    +0.000 F 
ATOM     28  C   UNL     1      -0.215   9.367  22.781  0.00  0.00    +0.000 A 
ATOM     29  C   UNL     1      -0.636  10.702  22.739  0.00  0.00    +0.000 A 
ENDBRANCH  14  23
BRANCH  10  30
ATOM     30  C   UNL     1      -3.395   9.544  15.200  0.00  0.00    +0.000 C 
ATOM     31  C   UNL     1      -4.230  10.080  14.059  0.00  0.00    +0.000 C 
ATOM     32  C   UNL     1      -2.743   9.979  13.906  0.00  0.00    +0.000 C 
ENDBRANCH  10  30
TORSDOF 3
ENDMDL
MODEL 3
REMARK VINA RESULT:      -7.0      0.903      1.351
REMARK  Name = 
REMARK  3 active torsions:
REMARK  status: ('A' for Active; 'I' for Inactive)
REMARK    1  A    between atoms: C_2  and  C_3
REMARK    2  A    between atoms: C_18  and  C_19
REMARK    3  A    between atoms: C_25  and  C_26
REMARK                            x       y       z     vdW  Elec       q    Type
REMARK                         _______ _______ _______ _____ _____    ______ ____
ROOT
ATOM      1  O   UNL     1      -2.708  13.447  20.608  0.00  0.00    +0.000 OA
ATOM      2  C   UNL     1      -2.075  12.708  21.363  0.00  0.00    +0.000 C 
ATOM      3  N   UNL     1      -0.970  11.975  20.954  0.00  0.00    +0.000 N 
ATOM      4  C   UNL     1      -0.217  11.042  21.821  0.00  0.00    +0.000 C 
ATOM      5  C   UNL     1      -0.126   9.621  21.246  0.00  0.00    +0.000 C 
ATOM      6  N   UNL     1       0.199   9.651  19.830  0.00  0.00    +0.000 N 
ATOM      7  C   UNL     1       1.184   8.864  19.299  0.00  0.00    +0.000 A 
ATOM      8  N   UNL     1       1.851   8.023  20.099  0.00  0.00    +0.000 NA
ATOM      9  C   UNL     1       2.795   7.238  19.532  0.00  0.00    +0.000 A 
ATOM     10  C   UNL     1       3.144   7.248  18.196  0.00  0.00    +0.000 A 
ATOM     11  C   UNL     1       2.426   8.180  17.479  0.00  0.00    +0.000 A 
ATOM     12  N   UNL     1       1.452   8.962  17.989  0.00  0.00    +0.000 NA
ATOM     13  C   UNL     1      -0.595  10.544  18.979  0.00  0.00    +0.000 C 
ATOM     14  C   UNL     1      -0.525  12.002  19.524  0.00  0.00    +0.000 C 
ENDROOT
BRANCH   2  15
ATOM     15  C   UNL     1      -2.415  12.657  22.866  0.00  0.00    +0.000 C 
ATOM     16  C   UNL     1      -3.896  12.839  23.226  0.00  0.00    +0.000 C 
ATOM     17  C   UNL     1      -4.457  14.231  23.009  0.00  0.00    +0.000 C 
ATOM     18  S   UNL     1      -3.511  15.461  23.884  0.00  0.00    +0.000 S 
ATOM     19  O   UNL     1      -3.866  16.766  23.349  0.00  0.00    +0.000 OA
ATOM     20  O   UNL     1      -3.608  15.186  25.295  0.00  0.00    +0.000 OA
ATOM     21  C   UNL     1      -1.849  15.095  23.366  0.00  0.00    +0.000 C 
ATOM     22  C   UNL     1      -1.497  13.636  23.618  0.00  0.00    +0.000 C 
ENDBRANCH   2  15
BRANCH  14  23
ATOM     23  C   UNL     1       0.860  12.650  19.339  0.00  0.00    +0.000 A 
ATOM     24  C   UNL     1       1.623  12.435  18.168  0.00  0.00    +0.000 A 
ATOM     25  C   UNL     1       2.893  12.988  18.005  0.00  0.00    +0.000 A 
ATOM     26  C   UNL     1       3.407  13.794  19.004  0.00  0.00    +0.000 A 
ATOM     27  F   UNL     1       4.625  14.331  18.858  0.00  0.00    +0.000 F 
ATOM     28  C   UNL     1       2.671  14.062  20.152  0.00  0.00    +0.000 A 
ATOM     29  C   UNL     1       1.395  13.507  20.315  0.00  0.00    +0.000 A 
ENDBRANCH  14  23
BRANCH  10  30
ATOM     30  C   UNL     1       4.205   6.367  17.596  0.00  0.00    +0.000 C 
ATOM     31  C   UNL     1       4.792   6.702  16.244  0.00  0.00    +0.000 C 
ATOM     32  C   UNL     1       5.628   6.868  17.476  0.00  0.00    +0.000 C 
ENDBRANCH  10  30
TORSDOF 3
ENDMDL
MODEL 4
REMARK VINA RESULT:      -6.9      1.171      1.547
REMARK  Name = 
REMARK  3 active torsions:
REMARK  status: ('A' for Active; 'I' for Inactive)
REMARK    1  A    between atoms: C_2  and  C_3
REMARK    2  A    between atoms: C_18  and  C_19
REMARK    3  A    between atoms: C_25  and  C_26
REMARK                            x       y       z     vdW  Elec       q    Type
REMARK                         _______ _______ _______ _____ _____    ______ ____
ROOT
ATOM      1  O   UNL     1      -2.810  14.440  20.311  0.00  0.00    +0.000 OA
ATOM      2  C   UNL     1      -2.336  13.650  21.128  0.00  0.00    +0.000 C 
ATOM      3  N   UNL     1      -1.270  12.810  20.837  0.00  0.00    +0.000 N 
ATOM      4  C   UNL     1      -0.708  11.816  21.778  0.00  0.00    +0.000 C 
ATOM      5  C   UNL     1      -0.696  10.387  21.214  0.00  0.00    +0.000 C 
ATOM      6  N   UNL     1      -0.221  10.373  19.841  0.00  0.00    +0.000 N 
ATOM      7  C   UNL     1       0.733   9.490  19.416  0.00  0.00    +0.000 A 
ATOM      8  N   UNL     1       1.226   8.596  20.282  0.00  0.00    +0.000 NA
ATOM      9  C   UNL     1       2.145   7.717  19.817  0.00  0.00    +0.000 A 
ATOM     10  C   UNL     1       2.633   7.682  18.527  0.00  0.00    +0.000 A 
ATOM     11  C   UNL     1       2.089   8.672  17.738  0.00  0.00    +0.000 A 
ATOM     12  N   UNL     1       1.147   9.550  18.142  0.00  0.00    +0.000 NA
ATOM     13  C   UNL     1      -0.830  11.332  18.912  0.00  0.00    +0.000 C 
ATOM     14  C   UNL     1      -0.676  12.780  19.463  0.00  0.00    +0.000 C 
ENDROOT
BRANCH   2  15
ATOM     15  C   UNL     1      -2.836  13.646  22.585  0.00  0.00    +0.000 C 
ATOM     16  C   UNL     1      -3.971  12.661  22.903  0.00  0.00    +0.000 C 
ATOM     17  C   UNL     1      -5.320  12.998  22.299  0.00  0.00    +0.000 C 
ATOM     18  S   UNL     1      -5.852  14.634  22.760  0.00  0.00    +0.000 S 
ATOM     19  O   UNL     1      -6.938  15.021  21.873  0.00  0.00    +0.000 OA
ATOM     20  O   UNL     1      -6.014  14.671  24.191  0.00  0.00    +0.000 OA
ATOM     21  C   UNL     1      -4.433  15.622  22.342  0.00  0.00    +0.000 C 
ATOM     22  C   UNL     1      -3.170  15.089  23.003  0.00  0.00    +0.000 C 
ENDBRANCH   2  15
BRANCH  14  23
ATOM     23  C   UNL     1       0.778  13.289  19.428  0.00  0.00    +0.000 A 
ATOM     24  C   UNL     1       1.607  13.072  18.304  0.00  0.00    +0.000 A 
ATOM     25  C   UNL     1       2.935  13.497  18.274  0.00  0.00    +0.000 A 
ATOM     26  C   UNL     1       3.446  14.178  19.365  0.00  0.00    +0.000 A 
ATOM     27  F   UNL     1       4.719  14.592  19.347  0.00  0.00    +0.000 F 
ATOM     28  C   UNL     1       2.650  14.447  20.471  0.00  0.00    +0.000 A 
ATOM     29  C   UNL     1       1.316  14.020  20.500  0.00  0.00    +0.000 A 
ENDBRANCH  14  23
BRANCH  10  30
ATOM     30  C   UNL     1       3.661   6.696  18.041  0.00  0.00    +0.000 C 
ATOM     31  C   UNL     1       4.106   5.563  18.937  0.00  0.00    +0.000 C 
ATOM     32  C   UNL     1       3.259   5.270  17.736  0.00  0.00    +0.000 C 
ENDBRANCH  10  30
TORSDOF 3
ENDMDL
MODEL 5
REMARK VINA RESULT:      -6.6      5.110      9.215
REMARK  Name = 
REMARK  3 active torsions:
REMARK  status: ('A' for Active; 'I' for Inactive)
REMARK    1  A    between atoms: C_2  and  C_3
REMARK    2  A    between atoms: C_18  and  C_19
REMARK    3  A    between atoms: C_25  and  C_26
REMARK                            x       y       z     vdW  Elec       q    Type
REMARK                         _______ _______ _______ _____ _____    ______ ____
ROOT
ATOM      1  O   UNL     1       2.956   8.000  18.081  0.00  0.00    +0.000 OA
ATOM      2  C   UNL     1       2.179   7.700  18.989  0.00  0.00    +0.000 C 
ATOM      3  N   UNL     1       1.280   8.601  19.543  0.00  0.00    +0.000 N 
ATOM      4  C   UNL     1       0.368   8.289  20.666  0.00  0.00    +0.000 C 
ATOM      5  C   UNL     1       0.527   9.244  21.859  0.00  0.00    +0.000 C 
ATOM      6  N   UNL     1       0.617  10.624  21.414  0.00  0.00    +0.000 N 
ATOM      7  C   UNL     1      -0.129  11.616  21.988  0.00  0.00    +0.000 A 
ATOM      8  N   UNL     1      -0.946  11.315  23.005  0.00  0.00    +0.000 NA
ATOM      9  C   UNL     1      -1.643  12.328  23.568  0.00  0.00    +0.000 A 
ATOM     10  C   UNL     1      -1.599  13.648  23.165  0.00  0.00    +0.000 A 
ATOM     11  C   UNL     1      -0.761  13.833  22.086  0.00  0.00    +0.000 A 
ATOM     12  N   UNL     1      -0.020  12.864  21.510  0.00  0.00    +0.000 NA
ATOM     13  C   UNL     1       1.566  10.920  20.335  0.00  0.00    +0.000 C 
ATOM     14  C   UNL     1       1.259  10.030  19.095  0.00  0.00    +0.000 C 
ENDROOT
BRANCH   2  15
ATOM     15  C   UNL     1       2.080   6.242  19.479  0.00  0.00    +0.000 C 
ATOM     16  C   UNL     1       3.275   5.726  20.294  0.00  0.00    +0.000 C 
ATOM     17  C   UNL     1       4.559   5.518  19.514  0.00  0.00    +0.000 C 
ATOM     18  S   UNL     1       4.313   4.430  18.126  0.00  0.00    +0.000 S 
ATOM     19  O   UNL     1       5.457   4.569  17.238  0.00  0.00    +0.000 OA
ATOM     20  O   UNL     1       3.917   3.140  18.628  0.00  0.00    +0.000 OA
ATOM     21  C   UNL     1       2.907   5.162  17.320  0.00  0.00    +0.000 C 
ATOM     22  C   UNL     1       1.741   5.336  18.283  0.00  0.00    +0.000 C 
ENDBRANCH   2  15
BRANCH  14  23
ATOM     23  C   UNL     1      -0.053  10.415  18.384  0.00  0.00    +0.000 A 
ATOM     24  C   UNL     1      -0.768   9.481  17.600  0.00  0.00    +0.000 A 
ATOM     25  C   UNL     1      -1.937   9.828  16.924  0.00  0.00    +0.000 A 
ATOM     26  C   UNL     1      -2.428  11.115  17.050  0.00  0.00    +0.000 A 
ATOM     27  F   UNL     1      -3.550  11.459  16.406  0.00  0.00    +0.000 F 
ATOM     28  C   UNL     1      -1.776  12.050  17.845  0.00  0.00    +0.000 A 
ATOM     29  C   UNL     1      -0.602  11.700  18.524  0.00  0.00    +0.000 A 
ENDBRANCH  14  23
BRANCH  10  30
ATOM     30  C   UNL     1      -2.392  14.752  23.808  0.00  0.00    +0.000 C 
ATOM     31  C   UNL     1      -2.971  14.563  25.192  0.00  0.00    +0.000 C 
ATOM     32  C   UNL     1      -1.823  15.505  24.991  0.00  0.00    +0.000 C 
ENDBRANCH  10  30
TORSDOF 3
ENDMDL
MODEL 6
REMARK VINA RESULT:      -6.6      5.129      9.200
REMARK  Name = 
REMARK  3 active torsions:
REMARK  status: ('A' for Active; 'I' for Inactive)
REMARK    1  A    between atoms: C_2  and  C_3
REMARK    2  A    between atoms: C_18  and  C_19
REMARK    3  A    between atoms: C_25  and  C_26
REMARK                            x       y       z     vdW  Elec       q    Type
REMARK                         _______ _______ _______ _____ _____    ______ ____
ROOT
ATOM      1  O   UNL     1       3.061   7.970  17.998  0.00  0.00    +0.000 OA
ATOM      2  C   UNL     1       2.271   7.619  18.875  0.00  0.00    +0.000 C 
ATOM      3  N   UNL     1       1.361   8.487  19.465  0.00  0.00    +0.000 N 
ATOM      4  C   UNL     1       0.432   8.111  20.553  0.00  0.00    +0.000 C 
ATOM      5  C   UNL     1       0.570   8.996  21.800  0.00  0.00    +0.000 C 
ATOM      6  N   UNL     1       0.665  10.399  21.437  0.00  0.00    +0.000 N 
ATOM      7  C   UNL     1      -0.092  11.357  22.054  0.00  0.00    +0.000 A 
ATOM      8  N   UNL     1      -0.925  10.997  23.039  0.00  0.00    +0.000 NA
ATOM      9  C   UNL     1      -1.632  11.976  23.647  0.00  0.00    +0.000 A 
ATOM     10  C   UNL     1      -1.584  13.316  23.321  0.00  0.00    +0.000 A 
ATOM     11  C   UNL     1      -0.730  13.564  22.268  0.00  0.00    +0.000 A 
ATOM     12  N   UNL     1       0.023  12.630  21.649  0.00  0.00    +0.000 NA
ATOM     13  C   UNL     1       1.630  10.757  20.392  0.00  0.00    +0.000 C 
ATOM     14  C   UNL     1       1.345   9.939  19.098  0.00  0.00    +0.000 C 
ENDROOT
BRANCH   2  15
ATOM     15  C   UNL     1       2.167   6.136  19.279  0.00  0.00    +0.000 C 
ATOM     16  C   UNL     1       3.278   5.612  20.200  0.00  0.00    +0.000 C 
ATOM     17  C   UNL     1       4.648   5.481  19.565  0.00  0.00    +0.000 C 
ATOM     18  S   UNL     1       4.599   4.460  18.107  0.00  0.00    +0.000 S 
ATOM     19  O   UNL     1       5.831   4.677  17.364  0.00  0.00    +0.000 OA
ATOM     20  O   UNL     1       4.192   3.135  18.498  0.00  0.00    +0.000 OA
ATOM     21  C   UNL     1       3.269   5.192  17.180  0.00  0.00    +0.000 C 
ATOM     22  C   UNL     1       1.997   5.283  18.010  0.00  0.00    +0.000 C 
ENDBRANCH   2  15
BRANCH  14  23
ATOM     23  C   UNL     1       0.045  10.363  18.389  0.00  0.00    +0.000 A 
ATOM     24  C   UNL     1      -0.440  11.688  18.472  0.00  0.00    +0.000 A 
ATOM     25  C   UNL     1      -1.634  12.075  17.863  0.00  0.00    +0.000 A 
ATOM     26  C   UNL     1      -2.348  11.143  17.133  0.00  0.00    +0.000 A 
ATOM     27  F   UNL     1      -3.495  11.504  16.544  0.00  0.00    +0.000 F 
ATOM     28  C   UNL     1      -1.883   9.841  16.995  0.00  0.00    +0.000 A 
ATOM     29  C   UNL     1      -0.683   9.453  17.605  0.00  0.00    +0.000 A 
ENDBRANCH  14  23
BRANCH  10  30
ATOM     30  C   UNL     1      -2.389  14.382  24.012  0.00  0.00    +0.000 C 
ATOM     31  C   UNL     1      -3.060  15.469  23.203  0.00  0.00    +0.000 C 
ATOM     32  C   UNL     1      -3.895  14.413  23.861  0.00  0.00    +0.000 C 
ENDBRANCH  10  30
TORSDOF 3
ENDMDL
MODEL 7
REMARK VINA RESULT:      -6.4      3.184      4.832
REMARK  Name = 
REMARK  3 active torsions:
REMARK  status: ('A' for Active; 'I' for Inactive)
REMARK    1  A    between atoms: C_2  and  C_3
REMARK    2  A    between atoms: C_18  and  C_19
REMARK    3  A    between atoms: C_25  and  C_26
REMARK                            x       y       z     vdW  Elec       q    Type
REMARK                         _______ _______ _______ _____ _____    ______ ____
ROOT
ATOM      1  O   UNL     1      -0.025  14.523  23.259  0.00  0.00    +0.000 OA
ATOM      2  C   UNL     1      -1.154  14.043  23.155  0.00  0.00    +0.000 C 
ATOM      3  N   UNL     1      -1.507  13.149  22.154  0.00  0.00    +0.000 N 
ATOM      4  C   UNL     1      -2.865  12.591  21.971  0.00  0.00    +0.000 C 
ATOM      5  C   UNL     1      -3.441  12.846  20.570  0.00  0.00    +0.000 C 
ATOM      6  N   UNL     1      -2.449  12.580  19.542  0.00  0.00    +0.000 N 
ATOM      7  C   UNL     1      -2.736  11.820  18.442  0.00  0.00    +0.000 A 
ATOM      8  N   UNL     1      -3.972  11.328  18.293  0.00  0.00    +0.000 NA
ATOM      9  C   UNL     1      -4.227  10.608  17.176  0.00  0.00    +0.000 A 
ATOM     10  C   UNL     1      -3.309  10.320  16.186  0.00  0.00    +0.000 A 
ATOM     11  C   UNL     1      -2.063  10.839  16.465  0.00  0.00    +0.000 A 
ATOM     12  N   UNL     1      -1.765  11.590  17.546  0.00  0.00    +0.000 NA
ATOM     13  C   UNL     1      -1.125  13.187  19.717  0.00  0.00    +0.000 C 
ATOM     14  C   UNL     1      -0.523  12.768  21.091  0.00  0.00    +0.000 C 
ENDROOT
BRANCH   2  15
ATOM     15  C   UNL     1      -2.220  14.325  24.231  0.00  0.00    +0.000 C 
ATOM     16  C   UNL     1      -3.584  14.804  23.716  0.00  0.00    +0.000 C 
ATOM     17  C   UNL     1      -3.610  16.204  23.134  0.00  0.00    +0.000 C 
ATOM     18  S   UNL     1      -2.994  17.407  24.294  0.00  0.00    +0.000 S 
ATOM     19  O   UNL     1      -2.705  18.631  23.563  0.00  0.00    +0.000 OA
ATOM     20  O   UNL     1      -3.865  17.416  25.441  0.00  0.00    +0.000 OA
ATOM     21  C   UNL     1      -1.442  16.691  24.789  0.00  0.00    +0.000 C 
ATOM     22  C   UNL     1      -1.623  15.266  25.292  0.00  0.00    +0.000 C 
ENDBRANCH   2  15
BRANCH  14  23
ATOM     23  C   UNL     1      -0.124  11.281  21.148  0.00  0.00    +0.000 A 
ATOM     24  C   UNL     1      -0.406  10.486  22.284  0.00  0.00    +0.000 A 
ATOM     25  C   UNL     1      -0.019   9.149  22.361  0.00  0.00    +0.000 A 
ATOM     26  C   UNL     1       0.630   8.575  21.283  0.00  0.00    +0.000 A 
ATOM     27  F   UNL     1       1.005   7.291  21.346  0.00  0.00    +0.000 F 
ATOM     28  C   UNL     1       0.888   9.312  20.134  0.00  0.00    +0.000 A 
ATOM     29  C   UNL     1       0.499  10.655  20.056  0.00  0.00    +0.000 A 
ENDBRANCH  14  23
BRANCH  10  30
ATOM     30  C   UNL     1      -3.621   9.510  14.957  0.00  0.00    +0.000 C 
ATOM     31  C   UNL     1      -4.226  10.177  13.743  0.00  0.00    +0.000 C 
ATOM     32  C   UNL     1      -2.806   9.699  13.697  0.00  0.00    +0.000 C 
ENDBRANCH  10  30
TORSDOF 3
ENDMDL
MODEL 8
REMARK VINA RESULT:      -6.4      1.329      1.682
REMARK  Name = 
REMARK  3 active torsions:
REMARK  status: ('A' for Active; 'I' for Inactive)
REMARK    1  A    between atoms: C_2  and  C_3
REMARK    2  A    between atoms: C_18  and  C_19
REMARK    3  A    between atoms: C_25  and  C_26
REMARK                            x       y       z     vdW  Elec       q    Type
REMARK                         _______ _______ _______ _____ _____    ______ ____
ROOT
ATOM      1  O   UNL     1      -2.335  15.183  20.378  0.00  0.00    +0.000 OA
ATOM      2  C   UNL     1      -1.896  14.384  21.206  0.00  0.00    +0.000 C 
ATOM      3  N   UNL     1      -0.931  13.433  20.903  0.00  0.00    +0.000 N 
ATOM      4  C   UNL     1      -0.418  12.427  21.859  0.00  0.00    +0.000 C 
ATOM      5  C   UNL     1      -0.571  10.983  21.360  0.00  0.00    +0.000 C 
ATOM      6  N   UNL     1      -0.173  10.867  19.967  0.00  0.00    +0.000 N 
ATOM      7  C   UNL     1       0.669   9.879  19.538  0.00  0.00    +0.000 A 
ATOM      8  N   UNL     1       1.120   8.976  20.418  0.00  0.00    +0.000 NA
ATOM      9  C   UNL     1       1.924   7.995  19.950  0.00  0.00    +0.000 A 
ATOM     10  C   UNL     1       2.339   7.860  18.640  0.00  0.00    +0.000 A 
ATOM     11  C   UNL     1       1.850   8.866  17.834  0.00  0.00    +0.000 A 
ATOM     12  N   UNL     1       1.019   9.847  18.244  0.00  0.00    +0.000 NA
ATOM     13  C   UNL     1      -0.736  11.842  19.027  0.00  0.00    +0.000 C 
ATOM     14  C   UNL     1      -0.416  13.290  19.504  0.00  0.00    +0.000 C 
ENDROOT
BRANCH   2  15
ATOM     15  C   UNL     1      -2.317  14.487  22.685  0.00  0.00    +0.000 C 
ATOM     16  C   UNL     1      -2.481  13.155  23.430  0.00  0.00    +0.000 C 
ATOM     17  C   UNL     1      -3.670  12.312  23.011  0.00  0.00    +0.000 C 
ATOM     18  S   UNL     1      -5.196  13.220  23.143  0.00  0.00    +0.000 S 
ATOM     19  O   UNL     1      -6.214  12.499  22.395  0.00  0.00    +0.000 OA
ATOM     20  O   UNL     1      -5.397  13.568  24.526  0.00  0.00    +0.000 OA
ATOM     21  C   UNL     1      -4.822  14.713  22.250  0.00  0.00    +0.000 C 
ATOM     22  C   UNL     1      -3.564  15.382  22.787  0.00  0.00    +0.000 C 
ENDBRANCH   2  15
BRANCH  14  23
ATOM     23  C   UNL     1       1.076  13.653  19.375  0.00  0.00    +0.000 A 
ATOM     24  C   UNL     1       1.752  14.360  20.396  0.00  0.00    +0.000 A 
ATOM     25  C   UNL     1       3.093  14.724  20.275  0.00  0.00    +0.000 A 
ATOM     26  C   UNL     1       3.789  14.356  19.138  0.00  0.00    +0.000 A 
ATOM     27  F   UNL     1       5.077  14.699  19.012  0.00  0.00    +0.000 F 
ATOM     28  C   UNL     1       3.170  13.625  18.131  0.00  0.00    +0.000 A 
ATOM     29  C   UNL     1       1.823  13.259  18.253  0.00  0.00    +0.000 A 
ENDBRANCH  14  23
BRANCH  10  30
ATOM     30  C   UNL     1       3.241   6.760  18.150  0.00  0.00    +0.000 C 
ATOM     31  C   UNL     1       3.596   5.609  19.063  0.00  0.00    +0.000 C 
ATOM     32  C   UNL     1       2.682   5.377  17.898  0.00  0.00    +0.000 C 
ENDBRANCH  10  30
TORSDOF 3
ENDMDL
MODEL 9
REMARK VINA RESULT:      -6.3      1.115      1.485
REMARK  Name = 
REMARK  3 active torsions:
REMARK  status: ('A' for Active; 'I' for Inactive)
REMARK    1  A    between atoms: C_2  and  C_3
REMARK    2  A    between atoms: C_18  and  C_19
REMARK    3  A    between atoms: C_25  and  C_26
REMARK                            x       y       z     vdW  Elec       q    Type
REMARK                         _______ _______ _______ _____ _____    ______ ____
ROOT
ATOM      1  O   UNL     1      -3.050  15.148  21.302  0.00  0.00    +0.000 OA
ATOM      2  C   UNL     1      -2.591  14.374  22.143  0.00  0.00    +0.000 C 
ATOM      3  N   UNL     1      -1.594  13.451  21.858  0.00  0.00    +0.000 N 
ATOM      4  C   UNL     1      -1.055  12.475  22.831  0.00  0.00    +0.000 C 
ATOM      5  C   UNL     1      -1.158  11.020  22.349  0.00  0.00    +0.000 C 
ATOM      6  N   UNL     1      -0.746  10.901  20.961  0.00  0.00    +0.000 N 
ATOM      7  C   UNL     1       0.131   9.935  20.550  0.00  0.00    +0.000 A 
ATOM      8  N   UNL     1       0.605   9.059  21.444  0.00  0.00    +0.000 NA
ATOM      9  C   UNL     1       1.444   8.098  20.994  0.00  0.00    +0.000 A 
ATOM     10  C   UNL     1       1.872   7.961  19.688  0.00  0.00    +0.000 A 
ATOM     11  C   UNL     1       1.357   8.940  18.867  0.00  0.00    +0.000 A 
ATOM     12  N   UNL     1       0.492   9.899  19.258  0.00  0.00    +0.000 NA
ATOM     13  C   UNL     1      -1.333  11.845  20.004  0.00  0.00    +0.000 C 
ATOM     14  C   UNL     1      -1.064  13.308  20.465  0.00  0.00    +0.000 C 
ENDROOT
BRANCH   2  15
ATOM     15  C   UNL     1      -3.026  14.482  23.618  0.00  0.00    +0.000 C 
ATOM     16  C   UNL     1      -4.540  14.481  23.873  0.00  0.00    +0.000 C 
ATOM     17  C   UNL     1      -5.281  15.725  23.424  0.00  0.00    +0.000 C 
ATOM     18  S   UNL     1      -4.590  17.197  24.152  0.00  0.00    +0.000 S 
ATOM     19  O   UNL     1      -5.092  18.343  23.411  0.00  0.00    +0.000 OA
ATOM     20  O   UNL     1      -4.747  17.110  25.581  0.00  0.00    +0.000 OA
ATOM     21  C   UNL     1      -2.860  17.024  23.777  0.00  0.00    +0.000 C 
ATOM     22  C   UNL     1      -2.317  15.687  24.261  0.00  0.00    +0.000 C 
ENDBRANCH   2  15
BRANCH  14  23
ATOM     23  C   UNL     1       0.416  13.718  20.342  0.00  0.00    +0.000 A 
ATOM     24  C   UNL     1       1.162  13.442  19.173  0.00  0.00    +0.000 A 
ATOM     25  C   UNL     1       2.511  13.777  19.064  0.00  0.00    +0.000 A 
ATOM     26  C   UNL     1       3.129  14.426  20.118  0.00  0.00    +0.000 A 
ATOM     27  F   UNL     1       4.424  14.753  20.024  0.00  0.00    +0.000 F 
ATOM     28  C   UNL     1       2.419  14.751  21.267  0.00  0.00    +0.000 A 
ATOM     29  C   UNL     1       1.063  14.414  21.376  0.00  0.00    +0.000 A 
ENDBRANCH  14  23
BRANCH  10  30
ATOM     30  C   UNL     1       2.813   6.885  19.219  0.00  0.00    +0.000 C 
ATOM     31  C   UNL     1       2.514   5.434  19.518  0.00  0.00    +0.000 C 
ATOM     32  C   UNL     1       2.394   5.941  18.113  0.00  0.00    +0.000 C 
ENDBRANCH  10  30
TORSDOF 3
ENDMDL
