MODEL 1
REMARK VINA RESULT:      -7.4      0.000      0.000
REMARK  Name = 
REMARK  6 active torsions:
REMARK  status: ('A' for Active; 'I' for Inactive)
REMARK    1  A    between atoms: C_1  and  O_2
REMARK    2  A    between atoms: O_2  and  C_3
REMARK    3  A    between atoms: C_6  and  O_7
REMARK    4  A    between atoms: O_7  and  C_8
REMARK    5  A    between atoms: C_11  and  C_12
REMARK    6  A    between atoms: N_14  and  C_15
REMARK                            x       y       z     vdW  Elec       q    Type
REMARK                         _______ _______ _______ _____ _____    ______ ____
ROOT
ATOM      1  C   UNL     1       5.786   5.476  17.354  0.00  0.00    +0.000 A 
ATOM      2  C   UNL     1       5.054   5.957  16.267  0.00  0.00    +0.000 A 
ATOM      3  C   UNL     1       5.355   5.523  14.974  0.00  0.00    +0.000 A 
ATOM      4  C   UNL     1       6.429   4.655  14.735  0.00  0.00    +0.000 A 
ATOM      5  C   UNL     1       7.204   4.226  15.825  0.00  0.00    +0.000 A 
ATOM      6  C   UNL     1       6.880   4.640  17.130  0.00  0.00    +0.000 A 
ENDROOT
BRANCH   4   7
ATOM      7  C   UNL     1       6.667   4.241  13.318  0.00  0.00    +0.000 C 
ATOM      8  O   UNL     1       7.431   4.897  12.614  0.00  0.00    +0.000 OA
ATOM      9  N   UNL     1       6.013   3.114  12.855  0.00  0.00    +0.000 N 
ATOM     10  H   UNL     1       5.423   2.569  13.466  0.00  0.00    +0.000 HD
BRANCH   9  11
ATOM     11  C   UNL     1       6.207   2.631  11.522  0.00  0.00    +0.000 C 
ATOM     12  C   UNL     1       7.337   1.692  11.206  0.00  0.00    +0.000 C 
ATOM     13  C   UNL     1       5.922   1.196  11.180  0.00  0.00    +0.000 C 
ENDBRANCH   9  11
ENDBRANCH   4   7
BRANCH   1  14
ATOM     14  O   UNL     1       5.516   5.808  18.665  0.00  0.00    +0.000 OA
BRANCH  14  18
ATOM     15  C   UNL     1       2.106   4.191  20.478  0.00  0.00    +0.000 A 
ATOM     16  C   UNL     1       3.166   3.381  20.054  0.00  0.00    +0.000 A 
ATOM     17  C   UNL     1       4.291   3.941  19.440  0.00  0.00    +0.000 A 
ATOM     18  C   UNL     1       4.365   5.320  19.244  0.00  0.00    +0.000 A 
ATOM     19  C   UNL     1       3.284   6.126  19.605  0.00  0.00    +0.000 A 
ATOM     20  C   UNL     1       2.184   5.566  20.248  0.00  0.00    +0.000 A 
ATOM     21  F   UNL     1       1.219   6.405  20.651  0.00  0.00    +0.000 F 
BRANCH  15  23
ATOM     22  C   UNL     1       1.434   2.354  21.831  0.00  0.00    +0.000 C 
ATOM     23  O   UNL     1       1.082   3.515  21.085  0.00  0.00    +0.000 OA
ENDBRANCH  15  23
ENDBRANCH  14  18
ENDBRANCH   1  14
TORSDOF 5
ENDMDL
MODEL 2
REMARK VINA RESULT:      -7.3      6.040      8.645
REMARK  Name = 
REMARK  6 active torsions:
REMARK  status: ('A' for Active; 'I' for Inactive)
REMARK    1  A    between atoms: C_1  and  O_2
REMARK    2  A    between atoms: O_2  and  C_3
REMARK    3  A    between atoms: C_6  and  O_7
REMARK    4  A    between atoms: O_7  and  C_8
REMARK    5  A    between atoms: C_11  and  C_12
REMARK    6  A    between atoms: N_14  and  C_15
REMARK                            x       y       z     vdW  Elec       q    Type
REMARK                         _______ _______ _______ _____ _____    ______ ____
ROOT
ATOM      1  C   UNL     1       1.157   9.714  18.883  0.00  0.00    +0.000 A 
ATOM      2  C   UNL     1       1.910   8.944  17.996  0.00  0.00    +0.000 A 
ATOM      3  C   UNL     1       2.388   7.692  18.387  0.00  0.00    +0.000 A 
ATOM      4  C   UNL     1       2.179   7.212  19.687  0.00  0.00    +0.000 A 
ATOM      5  C   UNL     1       1.477   8.019  20.597  0.00  0.00    +0.000 A 
ATOM      6  C   UNL     1       0.971   9.267  20.192  0.00  0.00    +0.000 A 
ENDROOT
BRANCH   4   7
ATOM      7  C   UNL     1       2.722   5.856  20.008  0.00  0.00    +0.000 C 
ATOM      8  O   UNL     1       3.843   5.543  19.614  0.00  0.00    +0.000 OA
ATOM      9  N   UNL     1       1.931   5.002  20.754  0.00  0.00    +0.000 N 
ATOM     10  H   UNL     1       1.031   5.299  21.100  0.00  0.00    +0.000 HD
BRANCH   9  11
ATOM     11  C   UNL     1       2.385   3.699  21.131  0.00  0.00    +0.000 C 
ATOM     12  C   UNL     1       1.413   2.665  21.629  0.00  0.00    +0.000 C 
ATOM     13  C   UNL     1       2.059   2.501  20.285  0.00  0.00    +0.000 C 
ENDBRANCH   9  11
ENDBRANCH   4   7
BRANCH   1  14
ATOM     14  O   UNL     1       0.600  10.932  18.558  0.00  0.00    +0.000 OA
BRANCH  14  18
ATOM     15  C   UNL     1      -3.565  11.038  18.149  0.00  0.00    +0.000 A 
ATOM     16  C   UNL     1      -2.775  10.167  17.390  0.00  0.00    +0.000 A 
ATOM     17  C   UNL     1      -1.384  10.156  17.534  0.00  0.00    +0.000 A 
ATOM     18  C   UNL     1      -0.770  11.020  18.441  0.00  0.00    +0.000 A 
ATOM     19  C   UNL     1      -1.546  11.936  19.153  0.00  0.00    +0.000 A 
ATOM     20  C   UNL     1      -2.932  11.917  19.031  0.00  0.00    +0.000 A 
ATOM     21  F   UNL     1      -3.627  12.760  19.808  0.00  0.00    +0.000 F 
BRANCH  15  23
ATOM     22  C   UNL     1      -5.526  11.974  17.182  0.00  0.00    +0.000 C 
ATOM     23  O   UNL     1      -4.911  10.926  17.925  0.00  0.00    +0.000 OA
ENDBRANCH  15  23
ENDBRANCH  14  18
ENDBRANCH   1  14
TORSDOF 5
ENDMDL
MODEL 3
REMARK VINA RESULT:      -7.2      6.051      8.706
REMARK  Name = 
REMARK  6 active torsions:
REMARK  status: ('A' for Active; 'I' for Inactive)
REMARK    1  A    between atoms: C_1  and  O_2
REMARK    2  A    between atoms: O_2  and  C_3
REMARK    3  A    between atoms: C_6  and  O_7
REMARK    4  A    between atoms: O_7  and  C_8
REMARK    5  A    between atoms: C_11  and  C_12
REMARK    6  A    between atoms: N_14  and  C_15
REMARK                            x       y       z     vdW  Elec       q    Type
REMARK                         _______ _______ _______ _____ _____    ______ ____
ROOT
ATOM      1  C   UNL     1       1.130   9.745  18.960  0.00  0.00    +0.000 A 
ATOM      2  C   UNL     1       1.898   9.012  18.054  0.00  0.00    +0.000 A 
ATOM      3  C   UNL     1       2.400   7.760  18.415  0.00  0.00    +0.000 A 
ATOM      4  C   UNL     1       2.201   7.246  19.703  0.00  0.00    +0.000 A 
ATOM      5  C   UNL     1       1.484   8.017  20.633  0.00  0.00    +0.000 A 
ATOM      6  C   UNL     1       0.954   9.264  20.258  0.00  0.00    +0.000 A 
ENDROOT
BRANCH   4   7
ATOM      7  C   UNL     1       2.771   5.893  19.991  0.00  0.00    +0.000 C 
ATOM      8  O   UNL     1       3.840   5.564  19.482  0.00  0.00    +0.000 OA
ATOM      9  N   UNL     1       2.065   5.061  20.840  0.00  0.00    +0.000 N 
ATOM     10  H   UNL     1       1.210   5.372  21.278  0.00  0.00    +0.000 HD
BRANCH   9  11
ATOM     11  C   UNL     1       2.553   3.763  21.193  0.00  0.00    +0.000 C 
ATOM     12  C   UNL     1       1.611   2.701  21.688  0.00  0.00    +0.000 C 
ATOM     13  C   UNL     1       2.243   2.570  20.334  0.00  0.00    +0.000 C 
ENDBRANCH   9  11
ENDBRANCH   4   7
BRANCH   1  14
ATOM     14  O   UNL     1       0.549  10.960  18.664  0.00  0.00    +0.000 OA
BRANCH  14  18
ATOM     15  C   UNL     1      -3.606  11.295  18.279  0.00  0.00    +0.000 A 
ATOM     16  C   UNL     1      -2.886  12.085  19.183  0.00  0.00    +0.000 A 
ATOM     17  C   UNL     1      -1.499  11.950  19.303  0.00  0.00    +0.000 A 
ATOM     18  C   UNL     1      -0.819  11.018  18.519  0.00  0.00    +0.000 A 
ATOM     19  C   UNL     1      -1.538  10.181  17.664  0.00  0.00    +0.000 A 
ATOM     20  C   UNL     1      -2.913  10.347  17.523  0.00  0.00    +0.000 A 
ATOM     21  F   UNL     1      -3.533   9.574  16.620  0.00  0.00    +0.000 F 
BRANCH  15  23
ATOM     22  C   UNL     1      -5.454  12.183  17.074  0.00  0.00    +0.000 C 
ATOM     23  O   UNL     1      -4.951  11.550  18.246  0.00  0.00    +0.000 OA
ENDBRANCH  15  23
ENDBRANCH  14  18
ENDBRANCH   1  14
TORSDOF 5
ENDMDL
MODEL 4
REMARK VINA RESULT:      -7.1      0.276      1.022
REMARK  Name = 
REMARK  6 active torsions:
REMARK  status: ('A' for Active; 'I' for Inactive)
REMARK    1  A    between atoms: C_1  and  O_2
REMARK    2  A    between atoms: O_2  and  C_3
REMARK    3  A    between atoms: C_6  and  O_7
REMARK    4  A    between atoms: O_7  and  C_8
REMARK    5  A    between atoms: C_11  and  C_12
REMARK    6  A    between atoms: N_14  and  C_15
REMARK                            x       y       z     vdW  Elec       q    Type
REMARK                         _______ _______ _______ _____ _____    ______ ____
ROOT
ATOM      1  C   UNL     1       5.862   5.234  17.415  0.00  0.00    +0.000 A 
ATOM      2  C   UNL     1       7.110   4.762  17.005  0.00  0.00    +0.000 A 
ATOM      3  C   UNL     1       7.329   4.436  15.665  0.00  0.00    +0.000 A 
ATOM      4  C   UNL     1       6.294   4.513  14.724  0.00  0.00    +0.000 A 
ATOM      5  C   UNL     1       5.022   4.925  15.154  0.00  0.00    +0.000 A 
ATOM      6  C   UNL     1       4.812   5.282  16.498  0.00  0.00    +0.000 A 
ENDROOT
BRANCH   4   7
ATOM      7  C   UNL     1       6.630   4.151  13.312  0.00  0.00    +0.000 C 
ATOM      8  O   UNL     1       7.421   4.847  12.679  0.00  0.00    +0.000 OA
ATOM      9  N   UNL     1       6.035   3.026  12.774  0.00  0.00    +0.000 N 
ATOM     10  H   UNL     1       5.421   2.448  13.329  0.00  0.00    +0.000 HD
BRANCH   9  11
ATOM     11  C   UNL     1       6.323   2.590  11.442  0.00  0.00    +0.000 C 
ATOM     12  C   UNL     1       7.523   1.728  11.161  0.00  0.00    +0.000 C 
ATOM     13  C   UNL     1       6.142   1.151  11.051  0.00  0.00    +0.000 C 
ENDBRANCH   9  11
ENDBRANCH   4   7
BRANCH   1  14
ATOM     14  O   UNL     1       5.580   5.632  18.704  0.00  0.00    +0.000 OA
BRANCH  14  18
ATOM     15  C   UNL     1       2.139   4.125  20.552  0.00  0.00    +0.000 A 
ATOM     16  C   UNL     1       3.179   3.284  20.140  0.00  0.00    +0.000 A 
ATOM     17  C   UNL     1       4.315   3.808  19.514  0.00  0.00    +0.000 A 
ATOM     18  C   UNL     1       4.420   5.181  19.294  0.00  0.00    +0.000 A 
ATOM     19  C   UNL     1       3.358   6.018  19.643  0.00  0.00    +0.000 A 
ATOM     20  C   UNL     1       2.247   5.494  20.298  0.00  0.00    +0.000 A 
ATOM     21  F   UNL     1       1.302   6.362  20.688  0.00  0.00    +0.000 F 
BRANCH  15  23
ATOM     22  C   UNL     1       1.432   2.344  21.960  0.00  0.00    +0.000 C 
ATOM     23  O   UNL     1       1.100   3.483  21.172  0.00  0.00    +0.000 OA
ENDBRANCH  15  23
ENDBRANCH  14  18
ENDBRANCH   1  14
TORSDOF 5
ENDMDL
MODEL 5
REMARK VINA RESULT:      -7.1      4.555      6.452
REMARK  Name = 
REMARK  6 active torsions:
REMARK  status: ('A' for Active; 'I' for Inactive)
REMARK    1  A    between atoms: C_1  and  O_2
REMARK    2  A    between atoms: O_2  and  C_3
REMARK    3  A    between atoms: C_6  and  O_7
REMARK    4  A    between atoms: O_7  and  C_8
REMARK    5  A    between atoms: C_11  and  C_12
REMARK    6  A    between atoms: N_14  and  C_15
REMARK                            x       y       z     vdW  Elec       q    Type
REMARK                         _______ _______ _______ _____ _____    ______ ____
ROOT
ATOM      1  C   UNL     1       7.125   5.754  18.044  0.00  0.00    +0.000 A 
ATOM      2  C   UNL     1       8.051   6.153  19.009  0.00  0.00    +0.000 A 
ATOM      3  C   UNL     1       8.483   7.480  19.058  0.00  0.00    +0.000 A 
ATOM      4  C   UNL     1       8.049   8.416  18.109  0.00  0.00    +0.000 A 
ATOM      5  C   UNL     1       7.168   7.995  17.101  0.00  0.00    +0.000 A 
ATOM      6  C   UNL     1       6.712   6.665  17.071  0.00  0.00    +0.000 A 
ENDROOT
BRANCH   4   7
ATOM      7  C   UNL     1       8.561   9.815  18.251  0.00  0.00    +0.000 C 
ATOM      8  O   UNL     1       8.182  10.682  17.467  0.00  0.00    +0.000 OA
ATOM      9  N   UNL     1       9.446  10.079  19.280  0.00  0.00    +0.000 N 
ATOM     10  H   UNL     1       9.709   9.358  19.935  0.00  0.00    +0.000 HD
BRANCH   9  11
ATOM     11  C   UNL     1       9.961  11.394  19.506  0.00  0.00    +0.000 C 
ATOM     12  C   UNL     1      11.288  11.591  20.183  0.00  0.00    +0.000 C 
ATOM     13  C   UNL     1      11.139  11.900  18.723  0.00  0.00    +0.000 C 
ENDBRANCH   9  11
ENDBRANCH   4   7
BRANCH   1  14
ATOM     14  O   UNL     1       6.604   4.480  17.964  0.00  0.00    +0.000 OA
BRANCH  14  18
ATOM     15  C   UNL     1       2.489   3.840  18.394  0.00  0.00    +0.000 A 
ATOM     16  C   UNL     1       3.162   3.520  17.209  0.00  0.00    +0.000 A 
ATOM     17  C   UNL     1       4.536   3.752  17.083  0.00  0.00    +0.000 A 
ATOM     18  C   UNL     1       5.249   4.310  18.143  0.00  0.00    +0.000 A 
ATOM     19  C   UNL     1       4.573   4.693  19.303  0.00  0.00    +0.000 A 
ATOM     20  C   UNL     1       3.213   4.425  19.435  0.00  0.00    +0.000 A 
ATOM     21  F   UNL     1       2.640   4.734  20.607  0.00  0.00    +0.000 F 
BRANCH  15  23
ATOM     22  C   UNL     1       0.790   2.246  18.867  0.00  0.00    +0.000 C 
ATOM     23  O   UNL     1       1.154   3.537  18.389  0.00  0.00    +0.000 OA
ENDBRANCH  15  23
ENDBRANCH  14  18
ENDBRANCH   1  14
TORSDOF 5
ENDMDL
MODEL 6
REMARK VINA RESULT:      -7.0      4.668      8.622
REMARK  Name = 
REMARK  6 active torsions:
REMARK  status: ('A' for Active; 'I' for Inactive)
REMARK    1  A    between atoms: C_1  and  O_2
REMARK    2  A    between atoms: O_2  and  C_3
REMARK    3  A    between atoms: C_6  and  O_7
REMARK    4  A    between atoms: O_7  and  C_8
REMARK    5  A    between atoms: C_11  and  C_12
REMARK    6  A    between atoms: N_14  and  C_15
REMARK                            x       y       z     vdW  Elec       q    Type
REMARK                         _______ _______ _______ _____ _____    ______ ____
ROOT
ATOM      1  C   UNL     1       2.605   6.162  19.458  0.00  0.00    +0.000 A 
ATOM      2  C   UNL     1       2.588   7.194  18.519  0.00  0.00    +0.000 A 
ATOM      3  C   UNL     1       1.994   8.418  18.836  0.00  0.00    +0.000 A 
ATOM      4  C   UNL     1       1.353   8.613  20.067  0.00  0.00    +0.000 A 
ATOM      5  C   UNL     1       1.316   7.549  20.983  0.00  0.00    +0.000 A 
ATOM      6  C   UNL     1       1.941   6.328  20.674  0.00  0.00    +0.000 A 
ENDROOT
BRANCH   4   7
ATOM      7  C   UNL     1       0.755   9.961  20.316  0.00  0.00    +0.000 C 
ATOM      8  O   UNL     1       1.149  10.634  21.266  0.00  0.00    +0.000 OA
ATOM      9  N   UNL     1      -0.225  10.404  19.448  0.00  0.00    +0.000 N 
ATOM     10  H   UNL     1      -0.502   9.849  18.651  0.00  0.00    +0.000 HD
BRANCH   9  11
ATOM     11  C   UNL     1      -0.829  11.693  19.595  0.00  0.00    +0.000 C 
ATOM     12  C   UNL     1      -0.882  12.650  18.437  0.00  0.00    +0.000 C 
ATOM     13  C   UNL     1      -2.141  12.003  18.932  0.00  0.00    +0.000 C 
ENDBRANCH   9  11
ENDBRANCH   4   7
BRANCH   1  14
ATOM     14  O   UNL     1       3.220   4.946  19.248  0.00  0.00    +0.000 OA
BRANCH  14  18
ATOM     15  C   UNL     1       6.553   4.844  16.715  0.00  0.00    +0.000 A 
ATOM     16  C   UNL     1       5.282   4.459  16.273  0.00  0.00    +0.000 A 
ATOM     17  C   UNL     1       4.184   4.490  17.139  0.00  0.00    +0.000 A 
ATOM     18  C   UNL     1       4.349   4.907  18.459  0.00  0.00    +0.000 A 
ATOM     19  C   UNL     1       5.625   5.230  18.926  0.00  0.00    +0.000 A 
ATOM     20  C   UNL     1       6.706   5.231  18.048  0.00  0.00    +0.000 A 
ATOM     21  F   UNL     1       7.887   5.637  18.535  0.00  0.00    +0.000 F 
BRANCH  15  23
ATOM     22  C   UNL     1       7.095   4.760  14.402  0.00  0.00    +0.000 C 
ATOM     23  O   UNL     1       7.530   4.789  15.758  0.00  0.00    +0.000 OA
ENDBRANCH  15  23
ENDBRANCH  14  18
ENDBRANCH   1  14
TORSDOF 5
ENDMDL
MODEL 7
REMARK VINA RESULT:      -7.0      5.868      8.135
REMARK  Name = 
REMARK  6 active torsions:
REMARK  status: ('A' for Active; 'I' for Inactive)
REMARK    1  A    between atoms: C_1  and  O_2
REMARK    2  A    between atoms: O_2  and  C_3
REMARK    3  A    between atoms: C_6  and  O_7
REMARK    4  A    between atoms: O_7  and  C_8
REMARK    5  A    between atoms: C_11  and  C_12
REMARK    6  A    between atoms: N_14  and  C_15
REMARK                            x       y       z     vdW  Elec       q    Type
REMARK                         _______ _______ _______ _____ _____    ______ ____
ROOT
ATOM      1  C   UNL     1       1.171   9.588  19.004  0.00  0.00    +0.000 A 
ATOM      2  C   UNL     1       1.875   8.991  17.957  0.00  0.00    +0.000 A 
ATOM      3  C   UNL     1       2.421   7.716  18.118  0.00  0.00    +0.000 A 
ATOM      4  C   UNL     1       2.331   7.041  19.342  0.00  0.00    +0.000 A 
ATOM      5  C   UNL     1       1.678   7.673  20.413  0.00  0.00    +0.000 A 
ATOM      6  C   UNL     1       1.104   8.944  20.240  0.00  0.00    +0.000 A 
ENDROOT
BRANCH   4   7
ATOM      7  C   UNL     1       2.939   5.676  19.413  0.00  0.00    +0.000 C 
ATOM      8  O   UNL     1       4.143   5.559  19.632  0.00  0.00    +0.000 OA
ATOM      9  N   UNL     1       2.107   4.587  19.236  0.00  0.00    +0.000 N 
ATOM     10  H   UNL     1       1.115   4.709  19.099  0.00  0.00    +0.000 HD
BRANCH   9  11
ATOM     11  C   UNL     1       2.600   3.246  19.318  0.00  0.00    +0.000 C 
ATOM     12  C   UNL     1       1.678   2.077  19.111  0.00  0.00    +0.000 C 
ATOM     13  C   UNL     1       2.723   2.399  18.084  0.00  0.00    +0.000 C 
ENDBRANCH   9  11
ENDBRANCH   4   7
BRANCH   1  14
ATOM     14  O   UNL     1       0.552  10.816  18.908  0.00  0.00    +0.000 OA
BRANCH  14  18
ATOM     15  C   UNL     1      -3.520  11.095  17.979  0.00  0.00    +0.000 A 
ATOM     16  C   UNL     1      -2.948  11.854  19.007  0.00  0.00    +0.000 A 
ATOM     17  C   UNL     1      -1.587  11.737  19.308  0.00  0.00    +0.000 A 
ATOM     18  C   UNL     1      -0.785  10.856  18.582  0.00  0.00    +0.000 A 
ATOM     19  C   UNL     1      -1.362  10.049  17.600  0.00  0.00    +0.000 A 
ATOM     20  C   UNL     1      -2.709  10.197  17.282  0.00  0.00    +0.000 A 
ATOM     21  F   UNL     1      -3.183   9.458  16.269  0.00  0.00    +0.000 F 
BRANCH  15  23
ATOM     22  C   UNL     1      -5.538  12.057  18.790  0.00  0.00    +0.000 C 
ATOM     23  O   UNL     1      -4.854  11.328  17.776  0.00  0.00    +0.000 OA
ENDBRANCH  15  23
ENDBRANCH  14  18
ENDBRANCH   1  14
TORSDOF 5
ENDMDL
MODEL 8
REMARK VINA RESULT:      -7.0      5.976      8.556
REMARK  Name = 
REMARK  6 active torsions:
REMARK  status: ('A' for Active; 'I' for Inactive)
REMARK    1  A    between atoms: C_1  and  O_2
REMARK    2  A    between atoms: O_2  and  C_3
REMARK    3  A    between atoms: C_6  and  O_7
REMARK    4  A    between atoms: O_7  and  C_8
REMARK    5  A    between atoms: C_11  and  C_12
REMARK    6  A    between atoms: N_14  and  C_15
REMARK                            x       y       z     vdW  Elec       q    Type
REMARK                         _______ _______ _______ _____ _____    ______ ____
ROOT
ATOM      1  C   UNL     1       1.206   9.667  18.937  0.00  0.00    +0.000 A 
ATOM      2  C   UNL     1       1.069   9.066  20.189  0.00  0.00    +0.000 A 
ATOM      3  C   UNL     1       1.642   7.815  20.431  0.00  0.00    +0.000 A 
ATOM      4  C   UNL     1       2.305   7.116  19.414  0.00  0.00    +0.000 A 
ATOM      5  C   UNL     1       2.384   7.696  18.138  0.00  0.00    +0.000 A 
ATOM      6  C   UNL     1       1.832   8.969  17.905  0.00  0.00    +0.000 A 
ENDROOT
BRANCH   4   7
ATOM      7  C   UNL     1       2.893   5.788  19.773  0.00  0.00    +0.000 C 
ATOM      8  O   UNL     1       4.098   5.597  19.623  0.00  0.00    +0.000 OA
ATOM      9  N   UNL     1       2.044   4.820  20.277  0.00  0.00    +0.000 N 
ATOM     10  H   UNL     1       1.066   5.017  20.430  0.00  0.00    +0.000 HD
BRANCH   9  11
ATOM     11  C   UNL     1       2.528   3.534  20.675  0.00  0.00    +0.000 C 
ATOM     12  C   UNL     1       1.726   2.670  21.608  0.00  0.00    +0.000 C 
ATOM     13  C   UNL     1       1.874   2.280  20.167  0.00  0.00    +0.000 C 
ENDBRANCH   9  11
ENDBRANCH   4   7
BRANCH   1  14
ATOM     14  O   UNL     1       0.722  10.922  18.634  0.00  0.00    +0.000 OA
BRANCH  14  18
ATOM     15  C   UNL     1      -3.399  11.660  18.593  0.00  0.00    +0.000 A 
ATOM     16  C   UNL     1      -2.532  12.381  19.422  0.00  0.00    +0.000 A 
ATOM     17  C   UNL     1      -1.159  12.111  19.429  0.00  0.00    +0.000 A 
ATOM     18  C   UNL     1      -0.642  11.112  18.603  0.00  0.00    +0.000 A 
ATOM     19  C   UNL     1      -1.508  10.346  17.823  0.00  0.00    +0.000 A 
ATOM     20  C   UNL     1      -2.868  10.645  17.795  0.00  0.00    +0.000 A 
ATOM     21  F   UNL     1      -3.633   9.931  16.958  0.00  0.00    +0.000 F 
BRANCH  15  23
ATOM     22  C   UNL     1      -5.199  12.400  19.959  0.00  0.00    +0.000 C 
ATOM     23  O   UNL     1      -4.710  12.045  18.669  0.00  0.00    +0.000 OA
ENDBRANCH  15  23
ENDBRANCH  14  18
ENDBRANCH   1  14
TORSDOF 5
ENDMDL
MODEL 9
REMARK VINA RESULT:      -7.0      5.880      7.818
REMARK  Name = 
REMARK  6 active torsions:
REMARK  status: ('A' for Active; 'I' for Inactive)
REMARK    1  A    between atoms: C_1  and  O_2
REMARK    2  A    between atoms: O_2  and  C_3
REMARK    3  A    between atoms: C_6  and  O_7
REMARK    4  A    between atoms: O_7  and  C_8
REMARK    5  A    between atoms: C_11  and  C_12
REMARK    6  A    between atoms: N_14  and  C_15
REMARK                            x       y       z     vdW  Elec       q    Type
REMARK                         _______ _______ _______ _____ _____    ______ ____
ROOT
ATOM      1  C   UNL     1       0.995   9.763  18.983  0.00  0.00    +0.000 A 
ATOM      2  C   UNL     1       1.761   9.425  17.866  0.00  0.00    +0.000 A 
ATOM      3  C   UNL     1       2.480   8.228  17.848  0.00  0.00    +0.000 A 
ATOM      4  C   UNL     1       2.500   7.380  18.963  0.00  0.00    +0.000 A 
ATOM      5  C   UNL     1       1.780   7.756  20.108  0.00  0.00    +0.000 A 
ATOM      6  C   UNL     1       1.033   8.947  20.114  0.00  0.00    +0.000 A 
ENDROOT
BRANCH   4   7
ATOM      7  C   UNL     1       3.292   6.117  18.842  0.00  0.00    +0.000 C 
ATOM      8  O   UNL     1       3.562   5.471  19.852  0.00  0.00    +0.000 OA
ATOM      9  N   UNL     1       3.684   5.717  17.578  0.00  0.00    +0.000 N 
ATOM     10  H   UNL     1       3.414   6.244  16.761  0.00  0.00    +0.000 HD
BRANCH   9  11
ATOM     11  C   UNL     1       4.418   4.507  17.369  0.00  0.00    +0.000 C 
ATOM     12  C   UNL     1       5.053   4.217  16.038  0.00  0.00    +0.000 C 
ATOM     13  C   UNL     1       5.913   4.534  17.225  0.00  0.00    +0.000 C 
ENDBRANCH   9  11
ENDBRANCH   4   7
BRANCH   1  14
ATOM     14  O   UNL     1       0.211  10.895  19.060  0.00  0.00    +0.000 OA
BRANCH  14  18
ATOM     15  C   UNL     1      -3.680  10.922  17.515  0.00  0.00    +0.000 A 
ATOM     16  C   UNL     1      -3.326  11.694  18.628  0.00  0.00    +0.000 A 
ATOM     17  C   UNL     1      -2.023  11.662  19.135  0.00  0.00    +0.000 A 
ATOM     18  C   UNL     1      -1.060  10.853  18.531  0.00  0.00    +0.000 A 
ATOM     19  C   UNL     1      -1.422  10.030  17.463  0.00  0.00    +0.000 A 
ATOM     20  C   UNL     1      -2.711  10.095  16.942  0.00  0.00    +0.000 A 
ATOM     21  F   UNL     1      -2.972   9.348  15.860  0.00  0.00    +0.000 F 
BRANCH  15  23
ATOM     22  C   UNL     1      -5.959  11.192  18.138  0.00  0.00    +0.000 C 
ATOM     23  O   UNL     1      -4.980  11.069  17.111  0.00  0.00    +0.000 OA
ENDBRANCH  15  23
ENDBRANCH  14  18
ENDBRANCH   1  14
TORSDOF 5
ENDMDL
