MODEL 1
REMARK VINA RESULT:      -7.0      0.000      0.000
REMARK  Name = 
REMARK  5 active torsions:
REMARK  status: ('A' for Active; 'I' for Inactive)
REMARK    1  A    between atoms: C_1  and  O_2
REMARK    2  A    between atoms: O_2  and  C_3
REMARK    3  A    between atoms: C_6  and  C_7
REMARK    4  A    between atoms: C_8  and  C_9
REMARK    5  A    between atoms: C_14  and  O_15
REMARK                            x       y       z     vdW  Elec       q    Type
REMARK                         _______ _______ _______ _____ _____    ______ ____
ROOT
ATOM      1  C   UNL     1       4.435   4.570  16.223  0.00  0.00    +0.000 C 
ATOM      2  C   UNL     1       5.512   3.904  15.774  0.00  0.00    +0.000 C 
ENDROOT
BRANCH   1   6
ATOM      3  C   UNL     1       2.757   4.030  20.132  0.00  0.00    +0.000 A 
ATOM      4  C   UNL     1       4.046   3.591  19.833  0.00  0.00    +0.000 A 
ATOM      5  C   UNL     1       4.581   3.781  18.556  0.00  0.00    +0.000 A 
ATOM      6  C   UNL     1       3.823   4.388  17.547  0.00  0.00    +0.000 A 
ATOM      7  C   UNL     1       2.532   4.832  17.857  0.00  0.00    +0.000 A 
ATOM      8  C   UNL     1       1.999   4.648  19.139  0.00  0.00    +0.000 A 
BRANCH   3  10
ATOM      9  C   UNL     1       1.458   2.661  21.551  0.00  0.00    +0.000 C 
ATOM     10  O   UNL     1       2.335   3.771  21.406  0.00  0.00    +0.000 OA
ENDBRANCH   3  10
ENDBRANCH   1   6
BRANCH   2  11
ATOM     11  C   UNL     1       6.138   4.116  14.452  0.00  0.00    +0.000 A 
ATOM     12  C   UNL     1       5.718   3.398  13.322  0.00  0.00    +0.000 A 
ATOM     13  C   UNL     1       6.322   3.598  12.076  0.00  0.00    +0.000 A 
ATOM     14  C   UNL     1       7.370   4.505  11.946  0.00  0.00    +0.000 A 
ATOM     15  C   UNL     1       7.820   5.211  13.060  0.00  0.00    +0.000 A 
ATOM     16  C   UNL     1       7.211   5.012  14.301  0.00  0.00    +0.000 A 
BRANCH  16  17
ATOM     17  O   UNL     1       7.669   5.711  15.390  0.00  0.00    +0.000 OA
ATOM     18  H   UNL     1       8.481   6.178  15.145  0.00  0.00    +0.000 HD
ENDBRANCH  16  17
ENDBRANCH   2  11
TORSDOF 4
ENDMDL
MODEL 2
REMARK VINA RESULT:      -6.9      6.616      7.648
REMARK  Name = 
REMARK  5 active torsions:
REMARK  status: ('A' for Active; 'I' for Inactive)
REMARK    1  A    between atoms: C_1  and  O_2
REMARK    2  A    between atoms: O_2  and  C_3
REMARK    3  A    between atoms: C_6  and  C_7
REMARK    4  A    between atoms: C_8  and  C_9
REMARK    5  A    between atoms: C_14  and  O_15
REMARK                            x       y       z     vdW  Elec       q    Type
REMARK                         _______ _______ _______ _____ _____    ______ ____
ROOT
ATOM      1  C   UNL     1       8.340   9.044  17.945  0.00  0.00    +0.000 C 
ATOM      2  C   UNL     1       9.005   9.517  19.012  0.00  0.00    +0.000 C 
ENDROOT
BRANCH   1   6
ATOM      3  C   UNL     1       6.287   5.279  17.919  0.00  0.00    +0.000 A 
ATOM      4  C   UNL     1       7.433   5.471  18.691  0.00  0.00    +0.000 A 
ATOM      5  C   UNL     1       8.086   6.707  18.693  0.00  0.00    +0.000 A 
ATOM      6  C   UNL     1       7.621   7.763  17.900  0.00  0.00    +0.000 A 
ATOM      7  C   UNL     1       6.466   7.564  17.134  0.00  0.00    +0.000 A 
ATOM      8  C   UNL     1       5.807   6.328  17.137  0.00  0.00    +0.000 A 
BRANCH   3  10
ATOM      9  C   UNL     1       4.722   3.842  18.950  0.00  0.00    +0.000 C 
ATOM     10  O   UNL     1       5.748   4.025  17.981  0.00  0.00    +0.000 OA
ENDBRANCH   3  10
ENDBRANCH   1   6
BRANCH   2  11
ATOM     11  C   UNL     1       9.699  10.821  19.057  0.00  0.00    +0.000 A 
ATOM     12  C   UNL     1      10.232  11.404  17.896  0.00  0.00    +0.000 A 
ATOM     13  C   UNL     1      10.897  12.634  17.948  0.00  0.00    +0.000 A 
ATOM     14  C   UNL     1      11.056  13.290  19.165  0.00  0.00    +0.000 A 
ATOM     15  C   UNL     1      10.557  12.719  20.334  0.00  0.00    +0.000 A 
ATOM     16  C   UNL     1       9.889  11.493  20.277  0.00  0.00    +0.000 A 
BRANCH  16  17
ATOM     17  O   UNL     1       9.408  10.939  21.437  0.00  0.00    +0.000 OA
ATOM     18  H   UNL     1       9.977  11.209  22.173  0.00  0.00    +0.000 HD
ENDBRANCH  16  17
ENDBRANCH   2  11
TORSDOF 4
ENDMDL
MODEL 3
REMARK VINA RESULT:      -6.9      6.466      7.599
REMARK  Name = 
REMARK  5 active torsions:
REMARK  status: ('A' for Active; 'I' for Inactive)
REMARK    1  A    between atoms: C_1  and  O_2
REMARK    2  A    between atoms: O_2  and  C_3
REMARK    3  A    between atoms: C_6  and  C_7
REMARK    4  A    between atoms: C_8  and  C_9
REMARK    5  A    between atoms: C_14  and  O_15
REMARK                            x       y       z     vdW  Elec       q    Type
REMARK                         _______ _______ _______ _____ _____    ______ ____
ROOT
ATOM      1  C   UNL     1       8.250   8.857  17.931  0.00  0.00    +0.000 C 
ATOM      2  C   UNL     1       8.890   9.335  19.011  0.00  0.00    +0.000 C 
ENDROOT
BRANCH   1   6
ATOM      3  C   UNL     1       6.130   5.138  17.661  0.00  0.00    +0.000 A 
ATOM      4  C   UNL     1       5.733   6.251  16.920  0.00  0.00    +0.000 A 
ATOM      5  C   UNL     1       6.439   7.453  17.014  0.00  0.00    +0.000 A 
ATOM      6  C   UNL     1       7.537   7.572  17.875  0.00  0.00    +0.000 A 
ATOM      7  C   UNL     1       7.934   6.448  18.611  0.00  0.00    +0.000 A 
ATOM      8  C   UNL     1       7.231   5.241  18.511  0.00  0.00    +0.000 A 
BRANCH   3  10
ATOM      9  C   UNL     1       4.557   3.665  18.626  0.00  0.00    +0.000 C 
ATOM     10  O   UNL     1       5.352   4.026  17.503  0.00  0.00    +0.000 OA
ENDBRANCH   3  10
ENDBRANCH   1   6
BRANCH   2  11
ATOM     11  C   UNL     1       9.578  10.642  19.066  0.00  0.00    +0.000 A 
ATOM     12  C   UNL     1      10.040  11.274  17.901  0.00  0.00    +0.000 A 
ATOM     13  C   UNL     1      10.698  12.507  17.962  0.00  0.00    +0.000 A 
ATOM     14  C   UNL     1      10.922  13.117  19.193  0.00  0.00    +0.000 A 
ATOM     15  C   UNL     1      10.494  12.497  20.365  0.00  0.00    +0.000 A 
ATOM     16  C   UNL     1       9.832  11.269  20.299  0.00  0.00    +0.000 A 
BRANCH  16  17
ATOM     17  O   UNL     1       9.421  10.667  21.462  0.00  0.00    +0.000 OA
ATOM     18  H   UNL     1       8.506  10.368  21.354  0.00  0.00    +0.000 HD
ENDBRANCH  16  17
ENDBRANCH   2  11
TORSDOF 4
ENDMDL
MODEL 4
REMARK VINA RESULT:      -6.9      0.574      1.247
REMARK  Name = 
REMARK  5 active torsions:
REMARK  status: ('A' for Active; 'I' for Inactive)
REMARK    1  A    between atoms: C_1  and  O_2
REMARK    2  A    between atoms: O_2  and  C_3
REMARK    3  A    between atoms: C_6  and  C_7
REMARK    4  A    between atoms: C_8  and  C_9
REMARK    5  A    between atoms: C_14  and  O_15
REMARK                            x       y       z     vdW  Elec       q    Type
REMARK                         _______ _______ _______ _____ _____    ______ ____
ROOT
ATOM      1  C   UNL     1       4.182   3.815  16.104  0.00  0.00    +0.000 C 
ATOM      2  C   UNL     1       5.398   4.318  15.834  0.00  0.00    +0.000 C 
ENDROOT
BRANCH   1   6
ATOM      3  C   UNL     1       2.201   3.831  19.908  0.00  0.00    +0.000 A 
ATOM      4  C   UNL     1       1.477   3.871  18.717  0.00  0.00    +0.000 A 
ATOM      5  C   UNL     1       2.138   3.858  17.486  0.00  0.00    +0.000 A 
ATOM      6  C   UNL     1       3.536   3.835  17.425  0.00  0.00    +0.000 A 
ATOM      7  C   UNL     1       4.256   3.788  18.625  0.00  0.00    +0.000 A 
ATOM      8  C   UNL     1       3.594   3.794  19.860  0.00  0.00    +0.000 A 
BRANCH   3  10
ATOM      9  C   UNL     1       1.416   2.666  21.806  0.00  0.00    +0.000 C 
ATOM     10  O   UNL     1       1.449   3.870  21.048  0.00  0.00    +0.000 OA
ENDBRANCH   3  10
ENDBRANCH   1   6
BRANCH   2  11
ATOM     11  C   UNL     1       6.025   4.320  14.496  0.00  0.00    +0.000 A 
ATOM     12  C   UNL     1       5.515   3.536  13.449  0.00  0.00    +0.000 A 
ATOM     13  C   UNL     1       6.120   3.536  12.188  0.00  0.00    +0.000 A 
ATOM     14  C   UNL     1       7.257   4.305  11.959  0.00  0.00    +0.000 A 
ATOM     15  C   UNL     1       7.795   5.073  12.990  0.00  0.00    +0.000 A 
ATOM     16  C   UNL     1       7.185   5.074  14.246  0.00  0.00    +0.000 A 
BRANCH  16  17
ATOM     17  O   UNL     1       7.730   5.831  15.254  0.00  0.00    +0.000 OA
ATOM     18  H   UNL     1       7.331   6.714  15.234  0.00  0.00    +0.000 HD
ENDBRANCH  16  17
ENDBRANCH   2  11
TORSDOF 4
ENDMDL
MODEL 5
REMARK VINA RESULT:      -6.9      6.978      8.772
REMARK  Name = 
REMARK  5 active torsions:
REMARK  status: ('A' for Active; 'I' for Inactive)
REMARK    1  A    between atoms: C_1  and  O_2
REMARK    2  A    between atoms: O_2  and  C_3
REMARK    3  A    between atoms: C_6  and  C_7
REMARK    4  A    between atoms: C_8  and  C_9
REMARK    5  A    between atoms: C_14  and  O_15
REMARK                            x       y       z     vdW  Elec       q    Type
REMARK                         _______ _______ _______ _____ _____    ______ ____
ROOT
ATOM      1  C   UNL     1       8.352   9.350  18.216  0.00  0.00    +0.000 C 
ATOM      2  C   UNL     1       8.479   8.049  18.528  0.00  0.00    +0.000 C 
ENDROOT
BRANCH   1   6
ATOM      3  C   UNL     1      11.063  12.396  19.543  0.00  0.00    +0.000 A 
ATOM      4  C   UNL     1      10.289  11.674  20.450  0.00  0.00    +0.000 A 
ATOM      5  C   UNL     1       9.415  10.680  20.002  0.00  0.00    +0.000 A 
ATOM      6  C   UNL     1       9.280  10.411  18.634  0.00  0.00    +0.000 A 
ATOM      7  C   UNL     1      10.066  11.136  17.730  0.00  0.00    +0.000 A 
ATOM      8  C   UNL     1      10.947  12.127  18.180  0.00  0.00    +0.000 A 
BRANCH   3  10
ATOM      9  C   UNL     1      11.536  14.699  19.763  0.00  0.00    +0.000 C 
ATOM     10  O   UNL     1      11.864  13.356  20.095  0.00  0.00    +0.000 OA
ENDBRANCH   3  10
ENDBRANCH   1   6
BRANCH   2  11
ATOM     11  C   UNL     1       7.558   6.985  18.077  0.00  0.00    +0.000 A 
ATOM     12  C   UNL     1       6.683   7.187  16.998  0.00  0.00    +0.000 A 
ATOM     13  C   UNL     1       5.807   6.178  16.583  0.00  0.00    +0.000 A 
ATOM     14  C   UNL     1       5.778   4.959  17.253  0.00  0.00    +0.000 A 
ATOM     15  C   UNL     1       6.621   4.745  18.343  0.00  0.00    +0.000 A 
ATOM     16  C   UNL     1       7.498   5.753  18.750  0.00  0.00    +0.000 A 
BRANCH  16  17
ATOM     17  O   UNL     1       8.318   5.530  19.828  0.00  0.00    +0.000 OA
ATOM     18  H   UNL     1       9.203   5.866  19.623  0.00  0.00    +0.000 HD
ENDBRANCH  16  17
ENDBRANCH   2  11
TORSDOF 4
ENDMDL
MODEL 6
REMARK VINA RESULT:      -6.8      1.441      7.381
REMARK  Name = 
REMARK  5 active torsions:
REMARK  status: ('A' for Active; 'I' for Inactive)
REMARK    1  A    between atoms: C_1  and  O_2
REMARK    2  A    between atoms: O_2  and  C_3
REMARK    3  A    between atoms: C_6  and  C_7
REMARK    4  A    between atoms: C_8  and  C_9
REMARK    5  A    between atoms: C_14  and  O_15
REMARK                            x       y       z     vdW  Elec       q    Type
REMARK                         _______ _______ _______ _____ _____    ______ ____
ROOT
ATOM      1  C   UNL     1       4.805   4.252  17.754  0.00  0.00    +0.000 C 
ATOM      2  C   UNL     1       3.811   3.364  17.928  0.00  0.00    +0.000 C 
ENDROOT
BRANCH   1   6
ATOM      3  C   UNL     1       6.944   4.757  14.072  0.00  0.00    +0.000 A 
ATOM      4  C   UNL     1       5.649   4.240  14.089  0.00  0.00    +0.000 A 
ATOM      5  C   UNL     1       4.963   4.089  15.297  0.00  0.00    +0.000 A 
ATOM      6  C   UNL     1       5.573   4.424  16.512  0.00  0.00    +0.000 A 
ATOM      7  C   UNL     1       6.871   4.949  16.486  0.00  0.00    +0.000 A 
ATOM      8  C   UNL     1       7.556   5.108  15.274  0.00  0.00    +0.000 A 
BRANCH   3  10
ATOM      9  C   UNL     1       7.039   3.916  11.867  0.00  0.00    +0.000 C 
ATOM     10  O   UNL     1       7.521   4.840  12.835  0.00  0.00    +0.000 OA
ENDBRANCH   3  10
ENDBRANCH   1   6
BRANCH   2  11
ATOM     11  C   UNL     1       3.025   3.220  19.171  0.00  0.00    +0.000 A 
ATOM     12  C   UNL     1       1.738   3.768  19.288  0.00  0.00    +0.000 A 
ATOM     13  C   UNL     1       1.003   3.636  20.471  0.00  0.00    +0.000 A 
ATOM     14  C   UNL     1       1.553   2.970  21.563  0.00  0.00    +0.000 A 
ATOM     15  C   UNL     1       2.839   2.438  21.478  0.00  0.00    +0.000 A 
ATOM     16  C   UNL     1       3.566   2.569  20.293  0.00  0.00    +0.000 A 
BRANCH  16  17
ATOM     17  O   UNL     1       4.834   2.045  20.225  0.00  0.00    +0.000 OA
ATOM     18  H   UNL     1       5.019   1.565  21.046  0.00  0.00    +0.000 HD
ENDBRANCH  16  17
ENDBRANCH   2  11
TORSDOF 4
ENDMDL
MODEL 7
REMARK VINA RESULT:      -6.7      1.293      7.389
REMARK  Name = 
REMARK  5 active torsions:
REMARK  status: ('A' for Active; 'I' for Inactive)
REMARK    1  A    between atoms: C_1  and  O_2
REMARK    2  A    between atoms: O_2  and  C_3
REMARK    3  A    between atoms: C_6  and  C_7
REMARK    4  A    between atoms: C_8  and  C_9
REMARK    5  A    between atoms: C_14  and  O_15
REMARK                            x       y       z     vdW  Elec       q    Type
REMARK                         _______ _______ _______ _____ _____    ______ ____
ROOT
ATOM      1  C   UNL     1       4.282   3.648  17.345  0.00  0.00    +0.000 C 
ATOM      2  C   UNL     1       4.066   4.222  18.541  0.00  0.00    +0.000 C 
ENDROOT
BRANCH   1   6
ATOM      3  C   UNL     1       7.187   5.039  14.514  0.00  0.00    +0.000 A 
ATOM      4  C   UNL     1       7.327   5.296  15.877  0.00  0.00    +0.000 A 
ATOM      5  C   UNL     1       6.375   4.830  16.788  0.00  0.00    +0.000 A 
ATOM      6  C   UNL     1       5.250   4.123  16.346  0.00  0.00    +0.000 A 
ATOM      7  C   UNL     1       5.120   3.863  14.976  0.00  0.00    +0.000 A 
ATOM      8  C   UNL     1       6.078   4.324  14.064  0.00  0.00    +0.000 A 
BRANCH   3  10
ATOM      9  C   UNL     1       7.945   5.462  12.318  0.00  0.00    +0.000 C 
ATOM     10  O   UNL     1       8.168   5.562  13.719  0.00  0.00    +0.000 OA
ENDBRANCH   3  10
ENDBRANCH   1   6
BRANCH   2  11
ATOM     11  C   UNL     1       3.112   3.719  19.552  0.00  0.00    +0.000 A 
ATOM     12  C   UNL     1       1.808   4.230  19.643  0.00  0.00    +0.000 A 
ATOM     13  C   UNL     1       0.913   3.756  20.608  0.00  0.00    +0.000 A 
ATOM     14  C   UNL     1       1.317   2.777  21.511  0.00  0.00    +0.000 A 
ATOM     15  C   UNL     1       2.615   2.272  21.456  0.00  0.00    +0.000 A 
ATOM     16  C   UNL     1       3.502   2.745  20.487  0.00  0.00    +0.000 A 
BRANCH  16  17
ATOM     17  O   UNL     1       4.779   2.243  20.448  0.00  0.00    +0.000 OA
ATOM     18  H   UNL     1       5.249   2.637  19.698  0.00  0.00    +0.000 HD
ENDBRANCH  16  17
ENDBRANCH   2  11
TORSDOF 4
ENDMDL
MODEL 8
REMARK VINA RESULT:      -6.7      6.961      8.693
REMARK  Name = 
REMARK  5 active torsions:
REMARK  status: ('A' for Active; 'I' for Inactive)
REMARK    1  A    between atoms: C_1  and  O_2
REMARK    2  A    between atoms: O_2  and  C_3
REMARK    3  A    between atoms: C_6  and  C_7
REMARK    4  A    between atoms: C_8  and  C_9
REMARK    5  A    between atoms: C_14  and  O_15
REMARK                            x       y       z     vdW  Elec       q    Type
REMARK                         _______ _______ _______ _____ _____    ______ ____
ROOT
ATOM      1  C   UNL     1       8.346   9.319  18.028  0.00  0.00    +0.000 C 
ATOM      2  C   UNL     1       8.342   8.101  18.598  0.00  0.00    +0.000 C 
ENDROOT
BRANCH   1   6
ATOM      3  C   UNL     1      10.297  12.828  19.534  0.00  0.00    +0.000 A 
ATOM      4  C   UNL     1       9.621  12.845  18.315  0.00  0.00    +0.000 A 
ATOM      5  C   UNL     1       8.984  11.695  17.842  0.00  0.00    +0.000 A 
ATOM      6  C   UNL     1       9.039  10.498  18.567  0.00  0.00    +0.000 A 
ATOM      7  C   UNL     1       9.714  10.491  19.794  0.00  0.00    +0.000 A 
ATOM      8  C   UNL     1      10.347  11.646  20.271  0.00  0.00    +0.000 A 
BRANCH   3  10
ATOM      9  C   UNL     1      12.242  14.165  19.447  0.00  0.00    +0.000 C 
ATOM     10  O   UNL     1      10.898  14.005  19.883  0.00  0.00    +0.000 OA
ENDBRANCH   3  10
ENDBRANCH   1   6
BRANCH   2  11
ATOM     11  C   UNL     1       7.668   6.914  18.032  0.00  0.00    +0.000 A 
ATOM     12  C   UNL     1       6.938   6.990  16.835  0.00  0.00    +0.000 A 
ATOM     13  C   UNL     1       6.294   5.864  16.311  0.00  0.00    +0.000 A 
ATOM     14  C   UNL     1       6.354   4.649  16.987  0.00  0.00    +0.000 A 
ATOM     15  C   UNL     1       7.052   4.555  18.189  0.00  0.00    +0.000 A 
ATOM     16  C   UNL     1       7.698   5.681  18.706  0.00  0.00    +0.000 A 
BRANCH  16  17
ATOM     17  O   UNL     1       8.377   5.576  19.894  0.00  0.00    +0.000 OA
ATOM     18  H   UNL     1       8.803   4.707  19.936  0.00  0.00    +0.000 HD
ENDBRANCH  16  17
ENDBRANCH   2  11
TORSDOF 4
ENDMDL
MODEL 9
REMARK VINA RESULT:      -6.6      3.813      7.769
REMARK  Name = 
REMARK  5 active torsions:
REMARK  status: ('A' for Active; 'I' for Inactive)
REMARK    1  A    between atoms: C_1  and  O_2
REMARK    2  A    between atoms: O_2  and  C_3
REMARK    3  A    between atoms: C_6  and  C_7
REMARK    4  A    between atoms: C_8  and  C_9
REMARK    5  A    between atoms: C_14  and  O_15
REMARK                            x       y       z     vdW  Elec       q    Type
REMARK                         _______ _______ _______ _____ _____    ______ ____
ROOT
ATOM      1  C   UNL     1       3.031   6.686  18.610  0.00  0.00    +0.000 C 
ATOM      2  C   UNL     1       2.399   7.842  18.345  0.00  0.00    +0.000 C 
ENDROOT
BRANCH   1   6
ATOM      3  C   UNL     1       5.410   4.444  15.834  0.00  0.00    +0.000 A 
ATOM      4  C   UNL     1       4.547   3.806  16.724  0.00  0.00    +0.000 A 
ATOM      5  C   UNL     1       3.773   4.552  17.617  0.00  0.00    +0.000 A 
ATOM      6  C   UNL     1       3.873   5.949  17.656  0.00  0.00    +0.000 A 
ATOM      7  C   UNL     1       4.736   6.582  16.754  0.00  0.00    +0.000 A 
ATOM      8  C   UNL     1       5.506   5.835  15.853  0.00  0.00    +0.000 A 
BRANCH   3  10
ATOM      9  C   UNL     1       6.201   3.994  13.655  0.00  0.00    +0.000 C 
ATOM     10  O   UNL     1       6.129   3.612  15.023  0.00  0.00    +0.000 OA
ENDBRANCH   3  10
ENDBRANCH   1   6
BRANCH   2  11
ATOM     11  C   UNL     1       1.580   8.591  19.321  0.00  0.00    +0.000 A 
ATOM     12  C   UNL     1       1.464   8.168  20.654  0.00  0.00    +0.000 A 
ATOM     13  C   UNL     1       0.680   8.878  21.570  0.00  0.00    +0.000 A 
ATOM     14  C   UNL     1      -0.018  10.010  21.160  0.00  0.00    +0.000 A 
ATOM     15  C   UNL     1       0.063  10.436  19.835  0.00  0.00    +0.000 A 
ATOM     16  C   UNL     1       0.852   9.727  18.926  0.00  0.00    +0.000 A 
BRANCH  16  17
ATOM     17  O   UNL     1       0.917  10.154  17.623  0.00  0.00    +0.000 OA
ATOM     18  H   UNL     1       1.560   9.608  17.146  0.00  0.00    +0.000 HD
ENDBRANCH  16  17
ENDBRANCH   2  11
TORSDOF 4
ENDMDL
