MODEL 1
REMARK VINA RESULT:      -7.8      0.000      0.000
REMARK  Name = 
REMARK  9 active torsions:
REMARK  status: ('A' for Active; 'I' for Inactive)
REMARK    1  A    between atoms: N_3  and  C_4
REMARK    2  A    between atoms: C_4  and  C_5
REMARK    3  A    between atoms: C_5  and  O_6
REMARK    4  A    between atoms: O_6  and  C_7
REMARK    5  A    between atoms: C_7  and  C_8
REMARK    6  A    between atoms: C_8  and  O_9
REMARK    7  A    between atoms: O_9  and  C_10
REMARK    8  A    between atoms: C_13  and  C_14
REMARK    9  A    between atoms: N_25  and  C_26
REMARK                            x       y       z     vdW  Elec       q    Type
REMARK                         _______ _______ _______ _____ _____    ______ ____
ROOT
ATOM      1  C   UNL     1       5.315   7.379  17.502  0.00  0.00    +0.000 C 
ENDROOT
BRANCH   1   2
ATOM      2  O   UNL     1       6.403   6.906  16.696  0.00  0.00    +0.000 OA
BRANCH   2   3
ATOM      3  C   UNL     1       7.388   6.143  17.389  0.00  0.00    +0.000 C 
BRANCH   3   4
ATOM      4  C   UNL     1       7.275   4.647  17.094  0.00  0.00    +0.000 C 
BRANCH   4   7
ATOM      5  O   UNL     1       5.895   4.421  19.622  0.00  0.00    +0.000 OA
ATOM      6  C   UNL     1       5.341   4.092  18.585  0.00  0.00    +0.000 C 
ATOM      7  N   UNL     1       5.943   4.149  17.325  0.00  0.00    +0.000 N 
ATOM      8  C   UNL     1       4.996   3.884  16.279  0.00  0.00    +0.000 C 
ATOM      9  C   UNL     1       3.894   3.138  17.017  0.00  0.00    +0.000 C 
ATOM     10  N   UNL     1       4.042   3.574  18.392  0.00  0.00    +0.000 N 
BRANCH  10  11
ATOM     11  C   UNL     1       3.085   3.331  19.406  0.00  0.00    +0.000 A 
ATOM     12  C   UNL     1       1.750   3.701  19.242  0.00  0.00    +0.000 A 
ATOM     13  C   UNL     1       0.851   3.448  20.265  0.00  0.00    +0.000 A 
ATOM     14  N   UNL     1       1.188   2.860  21.431  0.00  0.00    +0.000 NA
ATOM     15  C   UNL     1       2.480   2.506  21.571  0.00  0.00    +0.000 A 
ATOM     16  C   UNL     1       3.449   2.703  20.598  0.00  0.00    +0.000 A 
ENDBRANCH  10  11
ENDBRANCH   4   7
ENDBRANCH   3   4
ENDBRANCH   2   3
ENDBRANCH   1   2
BRANCH   1  17
ATOM     17  C   UNL     1       3.942   7.289  16.836  0.00  0.00    +0.000 C 
BRANCH  17  18
ATOM     18  O   UNL     1       3.061   6.662  17.767  0.00  0.00    +0.000 OA
BRANCH  18  19
ATOM     19  C   UNL     1       2.428   7.493  18.641  0.00  0.00    +0.000 A 
ATOM     20  C   UNL     1       1.959   8.679  18.088  0.00  0.00    +0.000 A 
ATOM     21  C   UNL     1       1.265   9.598  18.877  0.00  0.00    +0.000 A 
ATOM     22  C   UNL     1       0.991   9.339  20.231  0.00  0.00    +0.000 A 
ATOM     23  C   UNL     1       1.469   8.129  20.765  0.00  0.00    +0.000 A 
ATOM     24  C   UNL     1       2.188   7.218  19.982  0.00  0.00    +0.000 A 
BRANCH  22  25
ATOM     25  C   UNL     1       0.224  10.301  21.054  0.00  0.00    +0.000 A 
ATOM     26  C   UNL     1       0.101  11.648  20.671  0.00  0.00    +0.000 A 
ATOM     27  C   UNL     1      -0.587  12.576  21.457  0.00  0.00    +0.000 A 
ATOM     28  C   UNL     1      -1.192  12.162  22.640  0.00  0.00    +0.000 A 
ATOM     29 CL   UNL     1      -2.033  13.300  23.613  0.00  0.00    +0.000 Cl
ATOM     30  C   UNL     1      -1.109  10.832  23.037  0.00  0.00    +0.000 A 
ATOM     31  C   UNL     1      -0.403   9.914  22.254  0.00  0.00    +0.000 A 
ENDBRANCH  22  25
ENDBRANCH  18  19
ENDBRANCH  17  18
ENDBRANCH   1  17
TORSDOF 9
ENDMDL
MODEL 2
REMARK VINA RESULT:      -7.6      0.472      1.284
REMARK  Name = 
REMARK  9 active torsions:
REMARK  status: ('A' for Active; 'I' for Inactive)
REMARK    1  A    between atoms: N_3  and  C_4
REMARK    2  A    between atoms: C_4  and  C_5
REMARK    3  A    between atoms: C_5  and  O_6
REMARK    4  A    between atoms: O_6  and  C_7
REMARK    5  A    between atoms: C_7  and  C_8
REMARK    6  A    between atoms: C_8  and  O_9
REMARK    7  A    between atoms: O_9  and  C_10
REMARK    8  A    between atoms: C_13  and  C_14
REMARK    9  A    between atoms: N_25  and  C_26
REMARK                            x       y       z     vdW  Elec       q    Type
REMARK                         _______ _______ _______ _____ _____    ______ ____
ROOT
ATOM      1  C   UNL     1       5.776   7.035  17.544  0.00  0.00    +0.000 C 
ENDROOT
BRANCH   1   2
ATOM      2  O   UNL     1       6.872   7.012  16.620  0.00  0.00    +0.000 OA
BRANCH   2   3
ATOM      3  C   UNL     1       7.243   5.720  16.146  0.00  0.00    +0.000 C 
BRANCH   3   4
ATOM      4  C   UNL     1       7.262   4.677  17.265  0.00  0.00    +0.000 C 
BRANCH   4   7
ATOM      5  O   UNL     1       5.801   4.594  19.756  0.00  0.00    +0.000 OA
ATOM      6  C   UNL     1       5.312   4.130  18.737  0.00  0.00    +0.000 C 
ATOM      7  N   UNL     1       5.959   4.110  17.498  0.00  0.00    +0.000 N 
ATOM      8  C   UNL     1       5.074   3.682  16.452  0.00  0.00    +0.000 C 
ATOM      9  C   UNL     1       3.996   2.933  17.221  0.00  0.00    +0.000 C 
ATOM     10  N   UNL     1       4.059   3.505  18.551  0.00  0.00    +0.000 N 
BRANCH  10  11
ATOM     11  C   UNL     1       3.082   3.292  19.552  0.00  0.00    +0.000 A 
ATOM     12  C   UNL     1       1.767   3.723  19.379  0.00  0.00    +0.000 A 
ATOM     13  C   UNL     1       0.845   3.497  20.389  0.00  0.00    +0.000 A 
ATOM     14  N   UNL     1       1.143   2.879  21.550  0.00  0.00    +0.000 NA
ATOM     15  C   UNL     1       2.416   2.465  21.699  0.00  0.00    +0.000 A 
ATOM     16  C   UNL     1       3.403   2.632  20.739  0.00  0.00    +0.000 A 
ENDBRANCH  10  11
ENDBRANCH   4   7
ENDBRANCH   3   4
ENDBRANCH   2   3
ENDBRANCH   1   2
BRANCH   1  17
ATOM     17  C   UNL     1       4.438   7.452  16.934  0.00  0.00    +0.000 C 
BRANCH  17  18
ATOM     18  O   UNL     1       3.411   6.812  17.691  0.00  0.00    +0.000 OA
BRANCH  18  19
ATOM     19  C   UNL     1       2.559   7.638  18.359  0.00  0.00    +0.000 A 
ATOM     20  C   UNL     1       2.353   7.313  19.695  0.00  0.00    +0.000 A 
ATOM     21  C   UNL     1       1.524   8.104  20.492  0.00  0.00    +0.000 A 
ATOM     22  C   UNL     1       0.908   9.262  19.984  0.00  0.00    +0.000 A 
ATOM     23  C   UNL     1       1.138   9.573  18.633  0.00  0.00    +0.000 A 
ATOM     24  C   UNL     1       1.948   8.766  17.824  0.00  0.00    +0.000 A 
BRANCH  22  25
ATOM     25  C   UNL     1       0.059  10.116  20.845  0.00  0.00    +0.000 A 
ATOM     26  C   UNL     1      -0.158   9.798  22.196  0.00  0.00    +0.000 A 
ATOM     27  C   UNL     1      -0.989  10.574  23.010  0.00  0.00    +0.000 A 
ATOM     28  C   UNL     1      -1.602  11.707  22.486  0.00  0.00    +0.000 A 
ATOM     29 CL   UNL     1      -2.628  12.660  23.479  0.00  0.00    +0.000 Cl
ATOM     30  C   UNL     1      -1.390  12.064  21.158  0.00  0.00    +0.000 A 
ATOM     31  C   UNL     1      -0.573  11.271  20.346  0.00  0.00    +0.000 A 
ENDBRANCH  22  25
ENDBRANCH  18  19
ENDBRANCH  17  18
ENDBRANCH   1  17
TORSDOF 9
ENDMDL
MODEL 3
REMARK VINA RESULT:      -7.3      2.214      4.645
REMARK  Name = 
REMARK  9 active torsions:
REMARK  status: ('A' for Active; 'I' for Inactive)
REMARK    1  A    between atoms: N_3  and  C_4
REMARK    2  A    between atoms: C_4  and  C_5
REMARK    3  A    between atoms: C_5  and  O_6
REMARK    4  A    between atoms: O_6  and  C_7
REMARK    5  A    between atoms: C_7  and  C_8
REMARK    6  A    between atoms: C_8  and  O_9
REMARK    7  A    between atoms: O_9  and  C_10
REMARK    8  A    between atoms: C_13  and  C_14
REMARK    9  A    between atoms: N_25  and  C_26
REMARK                            x       y       z     vdW  Elec       q    Type
REMARK                         _______ _______ _______ _____ _____    ______ ____
ROOT
ATOM      1  C   UNL     1       1.441   4.326  20.872  0.00  0.00    +0.000 C 
ENDROOT
BRANCH   1   2
ATOM      2  O   UNL     1       1.845   3.361  21.854  0.00  0.00    +0.000 OA
BRANCH   2   3
ATOM      3  C   UNL     1       2.902   2.492  21.456  0.00  0.00    +0.000 C 
BRANCH   3   4
ATOM      4  C   UNL     1       2.602   1.783  20.135  0.00  0.00    +0.000 C 
BRANCH   4   7
ATOM      5  O   UNL     1       5.142   3.060  19.625  0.00  0.00    +0.000 OA
ATOM      6  C   UNL     1       4.232   3.150  18.816  0.00  0.00    +0.000 C 
ATOM      7  N   UNL     1       2.968   2.583  18.995  0.00  0.00    +0.000 N 
ATOM      8  C   UNL     1       2.172   2.690  17.804  0.00  0.00    +0.000 C 
ATOM      9  C   UNL     1       2.847   3.833  17.061  0.00  0.00    +0.000 C 
ATOM     10  N   UNL     1       4.201   3.830  17.578  0.00  0.00    +0.000 N 
BRANCH  10  11
ATOM     11  C   UNL     1       5.267   4.565  17.007  0.00  0.00    +0.000 A 
ATOM     12  C   UNL     1       6.057   4.020  15.995  0.00  0.00    +0.000 A 
ATOM     13  C   UNL     1       7.094   4.775  15.470  0.00  0.00    +0.000 A 
ATOM     14  N   UNL     1       7.397   6.022  15.884  0.00  0.00    +0.000 NA
ATOM     15  C   UNL     1       6.621   6.534  16.859  0.00  0.00    +0.000 A 
ATOM     16  C   UNL     1       5.553   5.862  17.434  0.00  0.00    +0.000 A 
ENDBRANCH  10  11
ENDBRANCH   4   7
ENDBRANCH   3   4
ENDBRANCH   2   3
ENDBRANCH   1   2
BRANCH   1  17
ATOM     17  C   UNL     1       2.094   5.700  21.023  0.00  0.00    +0.000 C 
BRANCH  17  18
ATOM     18  O   UNL     1       2.403   6.166  19.710  0.00  0.00    +0.000 OA
BRANCH  18  19
ATOM     19  C   UNL     1       2.041   7.450  19.433  0.00  0.00    +0.000 A 
ATOM     20  C   UNL     1       1.396   8.114  20.470  0.00  0.00    +0.000 A 
ATOM     21  C   UNL     1       1.004   9.445  20.317  0.00  0.00    +0.000 A 
ATOM     22  C   UNL     1       1.279  10.158  19.136  0.00  0.00    +0.000 A 
ATOM     23  C   UNL     1       1.939   9.466  18.106  0.00  0.00    +0.000 A 
ATOM     24  C   UNL     1       2.309   8.124  18.247  0.00  0.00    +0.000 A 
BRANCH  22  25
ATOM     25  C   UNL     1       0.892  11.580  18.994  0.00  0.00    +0.000 A 
ATOM     26  C   UNL     1      -0.458  11.969  18.992  0.00  0.00    +0.000 A 
ATOM     27  C   UNL     1      -0.839  13.303  18.819  0.00  0.00    +0.000 A 
ATOM     28  C   UNL     1       0.137  14.283  18.669  0.00  0.00    +0.000 A 
ATOM     29 CL   UNL     1      -0.326  15.922  18.449  0.00  0.00    +0.000 Cl
ATOM     30  C   UNL     1       1.483  13.935  18.688  0.00  0.00    +0.000 A 
ATOM     31  C   UNL     1       1.855  12.596  18.843  0.00  0.00    +0.000 A 
ENDBRANCH  22  25
ENDBRANCH  18  19
ENDBRANCH  17  18
ENDBRANCH   1  17
TORSDOF 9
ENDMDL
MODEL 4
REMARK VINA RESULT:      -7.1      4.308      7.307
REMARK  Name = 
REMARK  9 active torsions:
REMARK  status: ('A' for Active; 'I' for Inactive)
REMARK    1  A    between atoms: N_3  and  C_4
REMARK    2  A    between atoms: C_4  and  C_5
REMARK    3  A    between atoms: C_5  and  O_6
REMARK    4  A    between atoms: O_6  and  C_7
REMARK    5  A    between atoms: C_7  and  C_8
REMARK    6  A    between atoms: C_8  and  O_9
REMARK    7  A    between atoms: O_9  and  C_10
REMARK    8  A    between atoms: C_13  and  C_14
REMARK    9  A    between atoms: N_25  and  C_26
REMARK                            x       y       z     vdW  Elec       q    Type
REMARK                         _______ _______ _______ _____ _____    ______ ____
ROOT
ATOM      1  C   UNL     1       5.273   3.903  15.892  0.00  0.00    +0.000 C 
ENDROOT
BRANCH   1   2
ATOM      2  O   UNL     1       4.683   3.553  17.151  0.00  0.00    +0.000 OA
BRANCH   2   3
ATOM      3  C   UNL     1       3.505   4.280  17.495  0.00  0.00    +0.000 C 
BRANCH   3   4
ATOM      4  C   UNL     1       3.614   4.939  18.871  0.00  0.00    +0.000 C 
BRANCH   4   7
ATOM      5  O   UNL     1       1.953   6.076  20.944  0.00  0.00    +0.000 OA
ATOM      6  C   UNL     1       2.234   6.728  19.950  0.00  0.00    +0.000 C 
ATOM      7  N   UNL     1       3.011   6.247  18.893  0.00  0.00    +0.000 N 
ATOM      8  C   UNL     1       3.331   7.291  17.961  0.00  0.00    +0.000 C 
ATOM      9  C   UNL     1       2.251   8.324  18.243  0.00  0.00    +0.000 C 
ATOM     10  N   UNL     1       1.852   8.044  19.608  0.00  0.00    +0.000 N 
BRANCH  10  11
ATOM     11  C   UNL     1       1.041   8.902  20.388  0.00  0.00    +0.000 A 
ATOM     12  C   UNL     1       0.247   9.881  19.792  0.00  0.00    +0.000 A 
ATOM     13  C   UNL     1      -0.527  10.703  20.596  0.00  0.00    +0.000 A 
ATOM     14  N   UNL     1      -0.560  10.618  21.941  0.00  0.00    +0.000 NA
ATOM     15  C   UNL     1       0.210   9.665  22.500  0.00  0.00    +0.000 A 
ATOM     16  C   UNL     1       1.005   8.787  21.778  0.00  0.00    +0.000 A 
ENDBRANCH  10  11
ENDBRANCH   4   7
ENDBRANCH   3   4
ENDBRANCH   2   3
ENDBRANCH   1   2
BRANCH   1  17
ATOM     17  C   UNL     1       6.422   4.908  15.985  0.00  0.00    +0.000 C 
BRANCH  17  18
ATOM     18  O   UNL     1       6.657   5.152  17.372  0.00  0.00    +0.000 OA
BRANCH  18  19
ATOM     19  C   UNL     1       7.168   6.376  17.683  0.00  0.00    +0.000 A 
ATOM     20  C   UNL     1       8.014   6.395  18.787  0.00  0.00    +0.000 A 
ATOM     21  C   UNL     1       8.623   7.586  19.186  0.00  0.00    +0.000 A 
ATOM     22  C   UNL     1       8.432   8.781  18.471  0.00  0.00    +0.000 A 
ATOM     23  C   UNL     1       7.578   8.734  17.355  0.00  0.00    +0.000 A 
ATOM     24  C   UNL     1       6.945   7.547  16.969  0.00  0.00    +0.000 A 
BRANCH  22  25
ATOM     25  C   UNL     1       9.110  10.032  18.878  0.00  0.00    +0.000 A 
ATOM     26  C   UNL     1       9.641  10.915  17.922  0.00  0.00    +0.000 A 
ATOM     27  C   UNL     1      10.318  12.080  18.293  0.00  0.00    +0.000 A 
ATOM     28  C   UNL     1      10.454  12.398  19.641  0.00  0.00    +0.000 A 
ATOM     29 CL   UNL     1      11.291  13.825  20.102  0.00  0.00    +0.000 Cl
ATOM     30  C   UNL     1       9.920  11.558  20.612  0.00  0.00    +0.000 A 
ATOM     31  C   UNL     1       9.261  10.384  20.233  0.00  0.00    +0.000 A 
ENDBRANCH  22  25
ENDBRANCH  18  19
ENDBRANCH  17  18
ENDBRANCH   1  17
TORSDOF 9
ENDMDL
MODEL 5
REMARK VINA RESULT:      -7.0      2.189      4.543
REMARK  Name = 
REMARK  9 active torsions:
REMARK  status: ('A' for Active; 'I' for Inactive)
REMARK    1  A    between atoms: N_3  and  C_4
REMARK    2  A    between atoms: C_4  and  C_5
REMARK    3  A    between atoms: C_5  and  O_6
REMARK    4  A    between atoms: O_6  and  C_7
REMARK    5  A    between atoms: C_7  and  C_8
REMARK    6  A    between atoms: C_8  and  O_9
REMARK    7  A    between atoms: O_9  and  C_10
REMARK    8  A    between atoms: C_13  and  C_14
REMARK    9  A    between atoms: N_25  and  C_26
REMARK                            x       y       z     vdW  Elec       q    Type
REMARK                         _______ _______ _______ _____ _____    ______ ____
ROOT
ATOM      1  C   UNL     1       0.799   4.191  20.095  0.00  0.00    +0.000 C 
ENDROOT
BRANCH   1   2
ATOM      2  O   UNL     1       1.100   3.743  18.767  0.00  0.00    +0.000 OA
BRANCH   2   3
ATOM      3  C   UNL     1       1.317   2.340  18.632  0.00  0.00    +0.000 C 
BRANCH   3   4
ATOM      4  C   UNL     1       2.630   2.023  17.916  0.00  0.00    +0.000 C 
BRANCH   4   7
ATOM      5  O   UNL     1       3.889   4.273  16.611  0.00  0.00    +0.000 OA
ATOM      6  C   UNL     1       4.260   3.913  17.717  0.00  0.00    +0.000 C 
ATOM      7  N   UNL     1       3.722   2.825  18.408  0.00  0.00    +0.000 N 
ATOM      8  C   UNL     1       4.219   2.759  19.753  0.00  0.00    +0.000 C 
ATOM      9  C   UNL     1       5.503   3.570  19.667  0.00  0.00    +0.000 C 
ATOM     10  N   UNL     1       5.284   4.446  18.533  0.00  0.00    +0.000 N 
BRANCH  10  11
ATOM     11  C   UNL     1       6.109   5.550  18.214  0.00  0.00    +0.000 A 
ATOM     12  C   UNL     1       7.330   5.747  18.859  0.00  0.00    +0.000 A 
ATOM     13  C   UNL     1       8.101   6.847  18.518  0.00  0.00    +0.000 A 
ATOM     14  N   UNL     1       7.741   7.756  17.590  0.00  0.00    +0.000 NA
ATOM     15  C   UNL     1       6.561   7.548  16.975  0.00  0.00    +0.000 A 
ATOM     16  C   UNL     1       5.729   6.470  17.236  0.00  0.00    +0.000 A 
ENDBRANCH  10  11
ENDBRANCH   4   7
ENDBRANCH   3   4
ENDBRANCH   2   3
ENDBRANCH   1   2
BRANCH   1  17
ATOM     17  C   UNL     1       1.882   5.063  20.733  0.00  0.00    +0.000 C 
BRANCH  17  18
ATOM     18  O   UNL     1       2.413   5.897  19.704  0.00  0.00    +0.000 OA
BRANCH  18  19
ATOM     19  C   UNL     1       2.023   7.202  19.735  0.00  0.00    +0.000 A 
ATOM     20  C   UNL     1       2.136   7.876  18.524  0.00  0.00    +0.000 A 
ATOM     21  C   UNL     1       1.739   9.210  18.421  0.00  0.00    +0.000 A 
ATOM     22  C   UNL     1       1.184   9.895  19.517  0.00  0.00    +0.000 A 
ATOM     23  C   UNL     1       1.074   9.189  20.728  0.00  0.00    +0.000 A 
ATOM     24  C   UNL     1       1.496   7.860  20.840  0.00  0.00    +0.000 A 
BRANCH  22  25
ATOM     25  C   UNL     1       0.732  11.299  19.392  0.00  0.00    +0.000 A 
ATOM     26  C   UNL     1      -0.295  11.655  18.501  0.00  0.00    +0.000 A 
ATOM     27  C   UNL     1      -0.706  12.981  18.343  0.00  0.00    +0.000 A 
ATOM     28  C   UNL     1      -0.107  13.982  19.103  0.00  0.00    +0.000 A 
ATOM     29 CL   UNL     1      -0.603  15.614  18.909  0.00  0.00    +0.000 Cl
ATOM     30  C   UNL     1       0.897  13.661  20.011  0.00  0.00    +0.000 A 
ATOM     31  C   UNL     1       1.314  12.334  20.148  0.00  0.00    +0.000 A 
ENDBRANCH  22  25
ENDBRANCH  18  19
ENDBRANCH  17  18
ENDBRANCH   1  17
TORSDOF 9
ENDMDL
MODEL 6
REMARK VINA RESULT:      -7.0      4.287      7.789
REMARK  Name = 
REMARK  9 active torsions:
REMARK  status: ('A' for Active; 'I' for Inactive)
REMARK    1  A    between atoms: N_3  and  C_4
REMARK    2  A    between atoms: C_4  and  C_5
REMARK    3  A    between atoms: C_5  and  O_6
REMARK    4  A    between atoms: O_6  and  C_7
REMARK    5  A    between atoms: C_7  and  C_8
REMARK    6  A    between atoms: C_8  and  O_9
REMARK    7  A    between atoms: O_9  and  C_10
REMARK    8  A    between atoms: C_13  and  C_14
REMARK    9  A    between atoms: N_25  and  C_26
REMARK                            x       y       z     vdW  Elec       q    Type
REMARK                         _______ _______ _______ _____ _____    ______ ____
ROOT
ATOM      1  C   UNL     1       3.754   3.974  16.697  0.00  0.00    +0.000 C 
ENDROOT
BRANCH   1   2
ATOM      2  O   UNL     1       3.406   4.284  18.053  0.00  0.00    +0.000 OA
BRANCH   2   3
ATOM      3  C   UNL     1       2.574   5.430  18.222  0.00  0.00    +0.000 C 
BRANCH   3   4
ATOM      4  C   UNL     1       3.226   6.492  19.109  0.00  0.00    +0.000 C 
BRANCH   4   7
ATOM      5  O   UNL     1       2.156   8.648  17.511  0.00  0.00    +0.000 OA
ATOM      6  C   UNL     1       1.804   8.506  18.672  0.00  0.00    +0.000 C 
ATOM      7  N   UNL     1       2.288   7.505  19.518  0.00  0.00    +0.000 N 
ATOM      8  C   UNL     1       1.559   7.467  20.755  0.00  0.00    +0.000 C 
ATOM      9  C   UNL     1       0.949   8.859  20.818  0.00  0.00    +0.000 C 
ATOM     10  N   UNL     1       0.897   9.277  19.431  0.00  0.00    +0.000 N 
BRANCH  10  11
ATOM     11  C   UNL     1       0.184  10.410  18.973  0.00  0.00    +0.000 A 
ATOM     12  C   UNL     1      -0.951  10.273  18.173  0.00  0.00    +0.000 A 
ATOM     13  C   UNL     1      -1.613  11.411  17.743  0.00  0.00    +0.000 A 
ATOM     14  N   UNL     1      -1.225  12.665  18.050  0.00  0.00    +0.000 NA
ATOM     15  C   UNL     1      -0.130  12.780  18.826  0.00  0.00    +0.000 A 
ATOM     16  C   UNL     1       0.589  11.700  19.317  0.00  0.00    +0.000 A 
ENDBRANCH  10  11
ENDBRANCH   4   7
ENDBRANCH   3   4
ENDBRANCH   2   3
ENDBRANCH   1   2
BRANCH   1  17
ATOM     17  C   UNL     1       5.196   4.309  16.317  0.00  0.00    +0.000 C 
BRANCH  17  18
ATOM     18  O   UNL     1       5.949   4.366  17.528  0.00  0.00    +0.000 OA
BRANCH  18  19
ATOM     19  C   UNL     1       6.635   5.522  17.750  0.00  0.00    +0.000 A 
ATOM     20  C   UNL     1       6.175   6.623  17.036  0.00  0.00    +0.000 A 
ATOM     21  C   UNL     1       6.777   7.872  17.203  0.00  0.00    +0.000 A 
ATOM     22  C   UNL     1       7.831   8.060  18.114  0.00  0.00    +0.000 A 
ATOM     23  C   UNL     1       8.272   6.933  18.829  0.00  0.00    +0.000 A 
ATOM     24  C   UNL     1       7.688   5.675  18.644  0.00  0.00    +0.000 A 
BRANCH  22  25
ATOM     25  C   UNL     1       8.441   9.394  18.313  0.00  0.00    +0.000 A 
ATOM     26  C   UNL     1       8.121  10.472  17.470  0.00  0.00    +0.000 A 
ATOM     27  C   UNL     1       8.718  11.726  17.621  0.00  0.00    +0.000 A 
ATOM     28  C   UNL     1       9.637  11.932  18.645  0.00  0.00    +0.000 A 
ATOM     29 CL   UNL     1      10.379  13.469  18.831  0.00  0.00    +0.000 Cl
ATOM     30  C   UNL     1       9.960  10.893  19.512  0.00  0.00    +0.000 A 
ATOM     31  C   UNL     1       9.371   9.636  19.342  0.00  0.00    +0.000 A 
ENDBRANCH  22  25
ENDBRANCH  18  19
ENDBRANCH  17  18
ENDBRANCH   1  17
TORSDOF 9
ENDMDL
MODEL 7
REMARK VINA RESULT:      -7.0      6.251      9.609
REMARK  Name = 
REMARK  9 active torsions:
REMARK  status: ('A' for Active; 'I' for Inactive)
REMARK    1  A    between atoms: N_3  and  C_4
REMARK    2  A    between atoms: C_4  and  C_5
REMARK    3  A    between atoms: C_5  and  O_6
REMARK    4  A    between atoms: O_6  and  C_7
REMARK    5  A    between atoms: C_7  and  C_8
REMARK    6  A    between atoms: C_8  and  O_9
REMARK    7  A    between atoms: O_9  and  C_10
REMARK    8  A    between atoms: C_13  and  C_14
REMARK    9  A    between atoms: N_25  and  C_26
REMARK                            x       y       z     vdW  Elec       q    Type
REMARK                         _______ _______ _______ _____ _____    ______ ____
ROOT
ATOM      1  C   UNL     1       8.965   9.736  19.161  0.00  0.00    +0.000 C 
ENDROOT
BRANCH   1   2
ATOM      2  O   UNL     1       9.417  11.086  19.333  0.00  0.00    +0.000 OA
BRANCH   2   3
ATOM      3  C   UNL     1      10.611  11.423  18.632  0.00  0.00    +0.000 C 
BRANCH   3   4
ATOM      4  C   UNL     1      10.382  12.523  17.594  0.00  0.00    +0.000 C 
BRANCH   4   7
ATOM      5  O   UNL     1       7.548  12.911  17.187  0.00  0.00    +0.000 OA
ATOM      6  C   UNL     1       8.186  13.691  17.878  0.00  0.00    +0.000 C 
ATOM      7  N   UNL     1       9.560  13.589  18.107  0.00  0.00    +0.000 N 
ATOM      8  C   UNL     1       9.996  14.526  19.104  0.00  0.00    +0.000 C 
ATOM      9  C   UNL     1       8.889  15.568  19.080  0.00  0.00    +0.000 C 
ATOM     10  N   UNL     1       7.744  14.845  18.562  0.00  0.00    +0.000 N 
BRANCH  10  11
ATOM     11  C   UNL     1       6.419  15.339  18.587  0.00  0.00    +0.000 A 
ATOM     12  C   UNL     1       5.435  14.807  17.753  0.00  0.00    +0.000 A 
ATOM     13  C   UNL     1       4.152  15.328  17.808  0.00  0.00    +0.000 A 
ATOM     14  N   UNL     1       3.786  16.335  18.627  0.00  0.00    +0.000 NA
ATOM     15  C   UNL     1       4.747  16.834  19.428  0.00  0.00    +0.000 A 
ATOM     16  C   UNL     1       6.054  16.369  19.456  0.00  0.00    +0.000 A 
ENDBRANCH  10  11
ENDBRANCH   4   7
ENDBRANCH   3   4
ENDBRANCH   2   3
ENDBRANCH   1   2
BRANCH   1  17
ATOM     17  C   UNL     1       8.178   9.487  17.874  0.00  0.00    +0.000 C 
BRANCH  17  18
ATOM     18  O   UNL     1       8.413   8.132  17.491  0.00  0.00    +0.000 OA
BRANCH  18  19
ATOM     19  C   UNL     1       7.407   7.254  17.761  0.00  0.00    +0.000 A 
ATOM     20  C   UNL     1       6.185   7.564  17.176  0.00  0.00    +0.000 A 
ATOM     21  C   UNL     1       5.085   6.723  17.354  0.00  0.00    +0.000 A 
ATOM     22  C   UNL     1       5.189   5.530  18.091  0.00  0.00    +0.000 A 
ATOM     23  C   UNL     1       6.437   5.235  18.666  0.00  0.00    +0.000 A 
ATOM     24  C   UNL     1       7.534   6.091  18.512  0.00  0.00    +0.000 A 
BRANCH  22  25
ATOM     25  C   UNL     1       4.029   4.624  18.245  0.00  0.00    +0.000 A 
ATOM     26  C   UNL     1       2.753   4.990  17.783  0.00  0.00    +0.000 A 
ATOM     27  C   UNL     1       1.641   4.162  17.957  0.00  0.00    +0.000 A 
ATOM     28  C   UNL     1       1.793   2.927  18.581  0.00  0.00    +0.000 A 
ATOM     29 CL   UNL     1       0.429   1.909  18.804  0.00  0.00    +0.000 Cl
ATOM     30  C   UNL     1       3.046   2.524  19.031  0.00  0.00    +0.000 A 
ATOM     31  C   UNL     1       4.150   3.367  18.870  0.00  0.00    +0.000 A 
ENDBRANCH  22  25
ENDBRANCH  18  19
ENDBRANCH  17  18
ENDBRANCH   1  17
TORSDOF 9
ENDMDL
MODEL 8
REMARK VINA RESULT:      -6.9      1.293      1.566
REMARK  Name = 
REMARK  9 active torsions:
REMARK  status: ('A' for Active; 'I' for Inactive)
REMARK    1  A    between atoms: N_3  and  C_4
REMARK    2  A    between atoms: C_4  and  C_5
REMARK    3  A    between atoms: C_5  and  O_6
REMARK    4  A    between atoms: O_6  and  C_7
REMARK    5  A    between atoms: C_7  and  C_8
REMARK    6  A    between atoms: C_8  and  O_9
REMARK    7  A    between atoms: O_9  and  C_10
REMARK    8  A    between atoms: C_13  and  C_14
REMARK    9  A    between atoms: N_25  and  C_26
REMARK                            x       y       z     vdW  Elec       q    Type
REMARK                         _______ _______ _______ _____ _____    ______ ____
ROOT
ATOM      1  C   UNL     1       5.243   7.322  16.443  0.00  0.00    +0.000 C 
ENDROOT
BRANCH   1   2
ATOM      2  O   UNL     1       5.082   6.457  15.311  0.00  0.00    +0.000 OA
BRANCH   2   3
ATOM      3  C   UNL     1       6.215   5.650  14.994  0.00  0.00    +0.000 C 
BRANCH   3   4
ATOM      4  C   UNL     1       6.087   4.231  15.548  0.00  0.00    +0.000 C 
BRANCH   4   7
ATOM      5  O   UNL     1       3.516   3.489  16.636  0.00  0.00    +0.000 OA
ATOM      6  C   UNL     1       4.426   3.829  17.377  0.00  0.00    +0.000 C 
ATOM      7  N   UNL     1       5.690   4.223  16.932  0.00  0.00    +0.000 N 
ATOM      8  C   UNL     1       6.606   4.380  18.027  0.00  0.00    +0.000 C 
ATOM      9  C   UNL     1       5.670   4.573  19.211  0.00  0.00    +0.000 C 
ATOM     10  N   UNL     1       4.438   3.937  18.785  0.00  0.00    +0.000 N 
BRANCH  10  11
ATOM     11  C   UNL     1       3.355   3.653  19.650  0.00  0.00    +0.000 A 
ATOM     12  C   UNL     1       2.765   4.656  20.419  0.00  0.00    +0.000 A 
ATOM     13  C   UNL     1       1.710   4.329  21.256  0.00  0.00    +0.000 A 
ATOM     14  N   UNL     1       1.208   3.084  21.379  0.00  0.00    +0.000 NA
ATOM     15  C   UNL     1       1.787   2.128  20.625  0.00  0.00    +0.000 A 
ATOM     16  C   UNL     1       2.836   2.361  19.749  0.00  0.00    +0.000 A 
ENDBRANCH  10  11
ENDBRANCH   4   7
ENDBRANCH   3   4
ENDBRANCH   2   3
ENDBRANCH   1   2
BRANCH   1  17
ATOM     17  C   UNL     1       4.117   7.239  17.473  0.00  0.00    +0.000 C 
BRANCH  17  18
ATOM     18  O   UNL     1       3.103   8.156  17.064  0.00  0.00    +0.000 OA
BRANCH  18  19
ATOM     19  C   UNL     1       2.332   8.676  18.059  0.00  0.00    +0.000 A 
ATOM     20  C   UNL     1       1.769   9.916  17.779  0.00  0.00    +0.000 A 
ATOM     21  C   UNL     1       0.934  10.536  18.709  0.00  0.00    +0.000 A 
ATOM     22  C   UNL     1       0.610   9.917  19.929  0.00  0.00    +0.000 A 
ATOM     23  C   UNL     1       1.185   8.660  20.186  0.00  0.00    +0.000 A 
ATOM     24  C   UNL     1       2.044   8.048  19.266  0.00  0.00    +0.000 A 
BRANCH  22  25
ATOM     25  C   UNL     1      -0.305  10.564  20.896  0.00  0.00    +0.000 A 
ATOM     26  C   UNL     1      -1.134  11.631  20.510  0.00  0.00    +0.000 A 
ATOM     27  C   UNL     1      -1.975  12.278  21.421  0.00  0.00    +0.000 A 
ATOM     28  C   UNL     1      -2.018  11.846  22.743  0.00  0.00    +0.000 A 
ATOM     29 CL   UNL     1      -3.043  12.640  23.868  0.00  0.00    +0.000 Cl
ATOM     30  C   UNL     1      -1.227  10.778  23.154  0.00  0.00    +0.000 A 
ATOM     31  C   UNL     1      -0.376  10.149  22.240  0.00  0.00    +0.000 A 
ENDBRANCH  22  25
ENDBRANCH  18  19
ENDBRANCH  17  18
ENDBRANCH   1  17
TORSDOF 9
ENDMDL
MODEL 9
REMARK VINA RESULT:      -6.9      6.001     10.814
REMARK  Name = 
REMARK  9 active torsions:
REMARK  status: ('A' for Active; 'I' for Inactive)
REMARK    1  A    between atoms: N_3  and  C_4
REMARK    2  A    between atoms: C_4  and  C_5
REMARK    3  A    between atoms: C_5  and  O_6
REMARK    4  A    between atoms: O_6  and  C_7
REMARK    5  A    between atoms: C_7  and  C_8
REMARK    6  A    between atoms: C_8  and  O_9
REMARK    7  A    between atoms: O_9  and  C_10
REMARK    8  A    between atoms: C_13  and  C_14
REMARK    9  A    between atoms: N_25  and  C_26
REMARK                            x       y       z     vdW  Elec       q    Type
REMARK                         _______ _______ _______ _____ _____    ______ ____
ROOT
ATOM      1  C   UNL     1      -0.142   9.789  23.159  0.00  0.00    +0.000 C 
ENDROOT
BRANCH   1   2
ATOM      2  O   UNL     1       0.053  11.120  22.661  0.00  0.00    +0.000 OA
BRANCH   2   3
ATOM      3  C   UNL     1      -1.141  11.834  22.348  0.00  0.00    +0.000 C 
BRANCH   3   4
ATOM      4  C   UNL     1      -1.181  12.281  20.886  0.00  0.00    +0.000 C 
BRANCH   4   7
ATOM      5  O   UNL     1      -0.457  13.605  18.422  0.00  0.00    +0.000 OA
ATOM      6  C   UNL     1      -0.409  14.206  19.484  0.00  0.00    +0.000 C 
ATOM      7  N   UNL     1      -0.720  13.636  20.721  0.00  0.00    +0.000 N 
ATOM      8  C   UNL     1      -0.758  14.626  21.760  0.00  0.00    +0.000 C 
ATOM      9  C   UNL     1       0.074  15.753  21.169  0.00  0.00    +0.000 C 
ATOM     10  N   UNL     1      -0.024  15.541  19.738  0.00  0.00    +0.000 N 
BRANCH  10  11
ATOM     11  C   UNL     1       0.392  16.485  18.768  0.00  0.00    +0.000 A 
ATOM     12  C   UNL     1       1.723  16.558  18.358  0.00  0.00    +0.000 A 
ATOM     13  C   UNL     1       2.085  17.502  17.411  0.00  0.00    +0.000 A 
ATOM     14  N   UNL     1       1.219  18.371  16.850  0.00  0.00    +0.000 NA
ATOM     15  C   UNL     1      -0.063  18.283  17.255  0.00  0.00    +0.000 A 
ATOM     16  C   UNL     1      -0.522  17.363  18.185  0.00  0.00    +0.000 A 
ENDBRANCH  10  11
ENDBRANCH   4   7
ENDBRANCH   3   4
ENDBRANCH   2   3
ENDBRANCH   1   2
BRANCH   1  17
ATOM     17  C   UNL     1       0.630   8.708  22.402  0.00  0.00    +0.000 C 
BRANCH  17  18
ATOM     18  O   UNL     1       0.696   9.115  21.035  0.00  0.00    +0.000 OA
BRANCH  18  19
ATOM     19  C   UNL     1       1.413   8.306  20.207  0.00  0.00    +0.000 A 
ATOM     20  C   UNL     1       1.743   8.870  18.979  0.00  0.00    +0.000 A 
ATOM     21  C   UNL     1       2.504   8.150  18.056  0.00  0.00    +0.000 A 
ATOM     22  C   UNL     1       2.986   6.862  18.350  0.00  0.00    +0.000 A 
ATOM     23  C   UNL     1       2.645   6.318  19.601  0.00  0.00    +0.000 A 
ATOM     24  C   UNL     1       1.860   7.027  20.517  0.00  0.00    +0.000 A 
BRANCH  22  25
ATOM     25  C   UNL     1       3.822   6.119  17.382  0.00  0.00    +0.000 A 
ATOM     26  C   UNL     1       3.873   4.714  17.393  0.00  0.00    +0.000 A 
ATOM     27  C   UNL     1       4.688   4.000  16.511  0.00  0.00    +0.000 A 
ATOM     28  C   UNL     1       5.455   4.687  15.574  0.00  0.00    +0.000 A 
ATOM     29 CL   UNL     1       6.464   3.815  14.491  0.00  0.00    +0.000 Cl
ATOM     30  C   UNL     1       5.411   6.076  15.520  0.00  0.00    +0.000 A 
ATOM     31  C   UNL     1       4.607   6.783  16.420  0.00  0.00    +0.000 A 
ENDBRANCH  22  25
ENDBRANCH  18  19
ENDBRANCH  17  18
ENDBRANCH   1  17
TORSDOF 9
ENDMDL
