MODEL 1
REMARK VINA RESULT:      -7.2      0.000      0.000
REMARK  Name = 
REMARK  4 active torsions:
REMARK  status: ('A' for Active; 'I' for Inactive)
REMARK    1  A    between atoms: C_1  and  C_2
REMARK    2  A    between atoms: N_4  and  C_5
REMARK    3  A    between atoms: C_8  and  C_9
REMARK    4  A    between atoms: C_9  and  C_11
REMARK                            x       y       z     vdW  Elec       q    Type
REMARK                         _______ _______ _______ _____ _____    ______ ____
ROOT
ATOM      1  C   UNL     1       3.100   5.350  19.764  0.00  0.00    +0.000 C 
ATOM      2  N   UNL     1       2.737   4.764  20.863  0.00  0.00    +0.000 NA
ATOM      3  H   UNL     1       3.238   3.888  21.017  0.00  0.00    +0.000 HD
ENDROOT
BRANCH   1  11
ATOM      4  C   UNL     1       2.662   3.400  17.240  0.00  0.00    +0.000 C 
ATOM      5  C   UNL     1       3.931   4.003  17.749  0.00  0.00    +0.000 A 
ATOM      6  N   UNL     1       5.118   3.749  17.067  0.00  0.00    +0.000 N 
ATOM      7  N   UNL     1       6.147   4.218  17.877  0.00  0.00    +0.000 N 
ATOM      8  C   UNL     1       7.434   4.512  17.301  0.00  0.00    +0.000 C 
ATOM      9  C   UNL     1       5.594   4.978  18.904  0.00  0.00    +0.000 A 
ATOM     10  O   UNL     1       6.197   5.675  19.701  0.00  0.00    +0.000 OA
ATOM     11  C   UNL     1       4.109   4.797  18.826  0.00  0.00    +0.000 A 
ATOM     12  H   UNL     1       5.218   2.775  16.774  0.00  0.00    +0.000 HD
ENDBRANCH   1  11
BRANCH   1  13
ATOM     13  C   UNL     1       2.496   6.680  19.446  0.00  0.00    +0.000 A 
ATOM     14  C   UNL     1       2.586   7.258  18.173  0.00  0.00    +0.000 A 
ATOM     15  C   UNL     1       2.083   8.542  17.945  0.00  0.00    +0.000 A 
ATOM     16  C   UNL     1       1.445   9.241  18.973  0.00  0.00    +0.000 A 
ATOM     17 CL   UNL     1       0.872  10.834  18.625  0.00  0.00    +0.000 Cl
ATOM     18  C   UNL     1       1.295   8.644  20.229  0.00  0.00    +0.000 A 
ATOM     19 CL   UNL     1       0.487   9.435  21.536  0.00  0.00    +0.000 Cl
ATOM     20  C   UNL     1       1.817   7.368  20.463  0.00  0.00    +0.000 A 
ENDBRANCH   1  13
TORSDOF 2
ENDMDL
MODEL 2
REMARK VINA RESULT:      -7.0      3.012      4.399
REMARK  Name = 
REMARK  4 active torsions:
REMARK  status: ('A' for Active; 'I' for Inactive)
REMARK    1  A    between atoms: C_1  and  C_2
REMARK    2  A    between atoms: N_4  and  C_5
REMARK    3  A    between atoms: C_8  and  C_9
REMARK    4  A    between atoms: C_9  and  C_11
REMARK                            x       y       z     vdW  Elec       q    Type
REMARK                         _______ _______ _______ _____ _____    ______ ____
ROOT
ATOM      1  C   UNL     1       6.282   4.975  18.958  0.00  0.00    +0.000 C 
ATOM      2  N   UNL     1       7.182   5.141  19.876  0.00  0.00    +0.000 NA
ATOM      3  H   UNL     1       8.065   5.482  19.493  0.00  0.00    +0.000 HD
ENDROOT
BRANCH   1  11
ATOM      4  C   UNL     1       7.690   7.506  17.552  0.00  0.00    +0.000 C 
ATOM      5  C   UNL     1       7.130   6.274  16.919  0.00  0.00    +0.000 A 
ATOM      6  N   UNL     1       7.224   6.124  15.538  0.00  0.00    +0.000 N 
ATOM      7  N   UNL     1       6.426   5.034  15.203  0.00  0.00    +0.000 N 
ATOM      8  C   UNL     1       6.640   4.348  13.955  0.00  0.00    +0.000 C 
ATOM      9  C   UNL     1       6.067   4.371  16.372  0.00  0.00    +0.000 A 
ATOM     10  O   UNL     1       5.513   3.288  16.454  0.00  0.00    +0.000 OA
ATOM     11  C   UNL     1       6.515   5.229  17.514  0.00  0.00    +0.000 A 
ATOM     12  H   UNL     1       7.012   6.980  15.021  0.00  0.00    +0.000 HD
ENDBRANCH   1  11
BRANCH   1  13
ATOM     13  C   UNL     1       4.915   4.544  19.386  0.00  0.00    +0.000 A 
ATOM     14  C   UNL     1       4.552   3.194  19.479  0.00  0.00    +0.000 A 
ATOM     15  C   UNL     1       3.238   2.839  19.799  0.00  0.00    +0.000 A 
ATOM     16  C   UNL     1       2.288   3.828  20.072  0.00  0.00    +0.000 A 
ATOM     17 CL   UNL     1       0.678   3.314  20.433  0.00  0.00    +0.000 Cl
ATOM     18  C   UNL     1       2.661   5.175  20.043  0.00  0.00    +0.000 A 
ATOM     19 CL   UNL     1       1.548   6.448  20.404  0.00  0.00    +0.000 Cl
ATOM     20  C   UNL     1       3.970   5.531  19.703  0.00  0.00    +0.000 A 
ENDBRANCH   1  13
TORSDOF 2
ENDMDL
MODEL 3
REMARK VINA RESULT:      -6.9      2.711      3.822
REMARK  Name = 
REMARK  4 active torsions:
REMARK  status: ('A' for Active; 'I' for Inactive)
REMARK    1  A    between atoms: C_1  and  C_2
REMARK    2  A    between atoms: N_4  and  C_5
REMARK    3  A    between atoms: C_8  and  C_9
REMARK    4  A    between atoms: C_9  and  C_11
REMARK                            x       y       z     vdW  Elec       q    Type
REMARK                         _______ _______ _______ _____ _____    ______ ____
ROOT
ATOM      1  C   UNL     1       4.669   3.820  16.998  0.00  0.00    +0.000 C 
ATOM      2  N   UNL     1       4.351   2.581  17.209  0.00  0.00    +0.000 NA
ATOM      3  H   UNL     1       4.972   1.935  16.719  0.00  0.00    +0.000 HD
ENDROOT
BRANCH   1  11
ATOM      4  C   UNL     1       7.647   4.720  17.827  0.00  0.00    +0.000 C 
ATOM      5  C   UNL     1       7.049   4.602  16.462  0.00  0.00    +0.000 A 
ATOM      6  N   UNL     1       7.845   4.876  15.353  0.00  0.00    +0.000 N 
ATOM      7  N   UNL     1       6.990   4.925  14.256  0.00  0.00    +0.000 N 
ATOM      8  C   UNL     1       7.520   4.750  12.928  0.00  0.00    +0.000 C 
ATOM      9  C   UNL     1       5.747   4.431  14.639  0.00  0.00    +0.000 A 
ATOM     10  O   UNL     1       4.808   4.172  13.906  0.00  0.00    +0.000 OA
ATOM     11  C   UNL     1       5.790   4.250  16.125  0.00  0.00    +0.000 A 
ATOM     12  H   UNL     1       8.433   5.703  15.470  0.00  0.00    +0.000 HD
ENDBRANCH   1  11
BRANCH   1  13
ATOM     13  C   UNL     1       3.885   4.876  17.710  0.00  0.00    +0.000 A 
ATOM     14  C   UNL     1       3.989   6.234  17.382  0.00  0.00    +0.000 A 
ATOM     15  C   UNL     1       3.303   7.194  18.132  0.00  0.00    +0.000 A 
ATOM     16  C   UNL     1       2.474   6.803  19.187  0.00  0.00    +0.000 A 
ATOM     17 CL   UNL     1       1.681   8.047  20.087  0.00  0.00    +0.000 Cl
ATOM     18  C   UNL     1       2.316   5.444  19.479  0.00  0.00    +0.000 A 
ATOM     19 CL   UNL     1       1.280   4.887  20.745  0.00  0.00    +0.000 Cl
ATOM     20  C   UNL     1       3.018   4.485  18.741  0.00  0.00    +0.000 A 
ENDBRANCH   1  13
TORSDOF 2
ENDMDL
MODEL 4
REMARK VINA RESULT:      -6.9      3.939      4.733
REMARK  Name = 
REMARK  4 active torsions:
REMARK  status: ('A' for Active; 'I' for Inactive)
REMARK    1  A    between atoms: C_1  and  C_2
REMARK    2  A    between atoms: N_4  and  C_5
REMARK    3  A    between atoms: C_8  and  C_9
REMARK    4  A    between atoms: C_9  and  C_11
REMARK                            x       y       z     vdW  Elec       q    Type
REMARK                         _______ _______ _______ _____ _____    ______ ____
ROOT
ATOM      1  C   UNL     1       5.405   4.023  16.815  0.00  0.00    +0.000 C 
ATOM      2  N   UNL     1       5.822   3.099  16.007  0.00  0.00    +0.000 NA
ATOM      3  H   UNL     1       6.700   3.353  15.551  0.00  0.00    +0.000 HD
ENDROOT
BRANCH   1  11
ATOM      4  C   UNL     1       4.848   6.887  15.454  0.00  0.00    +0.000 C 
ATOM      5  C   UNL     1       5.863   6.522  16.488  0.00  0.00    +0.000 A 
ATOM      6  N   UNL     1       6.694   7.518  16.996  0.00  0.00    +0.000 N 
ATOM      7  N   UNL     1       7.677   6.871  17.738  0.00  0.00    +0.000 N 
ATOM      8  C   UNL     1       8.415   7.600  18.737  0.00  0.00    +0.000 C 
ATOM      9  C   UNL     1       7.306   5.540  17.903  0.00  0.00    +0.000 A 
ATOM     10  O   UNL     1       7.838   4.720  18.631  0.00  0.00    +0.000 OA
ATOM     11  C   UNL     1       6.108   5.312  17.033  0.00  0.00    +0.000 A 
ATOM     12  H   UNL     1       7.052   8.152  16.279  0.00  0.00    +0.000 HD
ENDBRANCH   1  11
BRANCH   1  13
ATOM     13  C   UNL     1       4.164   3.754  17.605  0.00  0.00    +0.000 A 
ATOM     14  C   UNL     1       2.884   4.015  17.098  0.00  0.00    +0.000 A 
ATOM     15  C   UNL     1       1.757   3.830  17.904  0.00  0.00    +0.000 A 
ATOM     16  C   UNL     1       1.894   3.342  19.207  0.00  0.00    +0.000 A 
ATOM     17 CL   UNL     1       0.459   3.166  20.153  0.00  0.00    +0.000 Cl
ATOM     18  C   UNL     1       3.164   3.020  19.696  0.00  0.00    +0.000 A 
ATOM     19 CL   UNL     1       3.406   2.379  21.283  0.00  0.00    +0.000 Cl
ATOM     20  C   UNL     1       4.294   3.224  18.897  0.00  0.00    +0.000 A 
ENDBRANCH   1  13
TORSDOF 2
ENDMDL
MODEL 5
REMARK VINA RESULT:      -6.8      2.438      3.834
REMARK  Name = 
REMARK  4 active torsions:
REMARK  status: ('A' for Active; 'I' for Inactive)
REMARK    1  A    between atoms: C_1  and  C_2
REMARK    2  A    between atoms: N_4  and  C_5
REMARK    3  A    between atoms: C_8  and  C_9
REMARK    4  A    between atoms: C_9  and  C_11
REMARK                            x       y       z     vdW  Elec       q    Type
REMARK                         _______ _______ _______ _____ _____    ______ ____
ROOT
ATOM      1  C   UNL     1       4.662   3.827  17.319  0.00  0.00    +0.000 C 
ATOM      2  N   UNL     1       4.364   2.569  17.427  0.00  0.00    +0.000 NA
ATOM      3  H   UNL     1       4.954   1.982  16.834  0.00  0.00    +0.000 HD
ENDROOT
BRANCH   1  11
ATOM      4  C   UNL     1       7.507   5.123  18.087  0.00  0.00    +0.000 C 
ATOM      5  C   UNL     1       6.927   4.872  16.733  0.00  0.00    +0.000 A 
ATOM      6  N   UNL     1       7.680   5.193  15.607  0.00  0.00    +0.000 N 
ATOM      7  N   UNL     1       6.824   5.088  14.515  0.00  0.00    +0.000 N 
ATOM      8  C   UNL     1       7.369   4.922  13.192  0.00  0.00    +0.000 C 
ATOM      9  C   UNL     1       5.652   4.461  14.928  0.00  0.00    +0.000 A 
ATOM     10  O   UNL     1       4.752   4.057  14.213  0.00  0.00    +0.000 OA
ATOM     11  C   UNL     1       5.720   4.353  16.420  0.00  0.00    +0.000 A 
ATOM     12  H   UNL     1       8.162   6.091  15.683  0.00  0.00    +0.000 HD
ENDBRANCH   1  11
BRANCH   1  13
ATOM     13  C   UNL     1       3.924   4.798  18.184  0.00  0.00    +0.000 A 
ATOM     14  C   UNL     1       3.545   4.492  19.497  0.00  0.00    +0.000 A 
ATOM     15  C   UNL     1       2.781   5.398  20.239  0.00  0.00    +0.000 A 
ATOM     16  C   UNL     1       2.426   6.634  19.691  0.00  0.00    +0.000 A 
ATOM     17 CL   UNL     1       1.456   7.690  20.656  0.00  0.00    +0.000 Cl
ATOM     18  C   UNL     1       2.855   6.971  18.403  0.00  0.00    +0.000 A 
ATOM     19 CL   UNL     1       2.484   8.495  17.677  0.00  0.00    +0.000 Cl
ATOM     20  C   UNL     1       3.603   6.057  17.654  0.00  0.00    +0.000 A 
ENDBRANCH   1  13
TORSDOF 2
ENDMDL
MODEL 6
REMARK VINA RESULT:      -6.8      3.056      4.492
REMARK  Name = 
REMARK  4 active torsions:
REMARK  status: ('A' for Active; 'I' for Inactive)
REMARK    1  A    between atoms: C_1  and  C_2
REMARK    2  A    between atoms: N_4  and  C_5
REMARK    3  A    between atoms: C_8  and  C_9
REMARK    4  A    between atoms: C_9  and  C_11
REMARK                            x       y       z     vdW  Elec       q    Type
REMARK                         _______ _______ _______ _____ _____    ______ ____
ROOT
ATOM      1  C   UNL     1       5.408   4.151  17.278  0.00  0.00    +0.000 C 
ATOM      2  N   UNL     1       5.611   3.233  16.385  0.00  0.00    +0.000 NA
ATOM      3  H   UNL     1       6.334   3.500  15.715  0.00  0.00    +0.000 HD
ENDROOT
BRANCH   1  11
ATOM      4  C   UNL     1       4.905   6.780  15.488  0.00  0.00    +0.000 C 
ATOM      5  C   UNL     1       5.902   6.567  16.580  0.00  0.00    +0.000 A 
ATOM      6  N   UNL     1       6.739   7.619  16.942  0.00  0.00    +0.000 N 
ATOM      7  N   UNL     1       7.704   7.082  17.789  0.00  0.00    +0.000 N 
ATOM      8  C   UNL     1       8.439   7.948  18.675  0.00  0.00    +0.000 C 
ATOM      9  C   UNL     1       7.314   5.796  18.150  0.00  0.00    +0.000 A 
ATOM     10  O   UNL     1       7.826   5.092  19.002  0.00  0.00    +0.000 OA
ATOM     11  C   UNL     1       6.125   5.451  17.307  0.00  0.00    +0.000 A 
ATOM     12  H   UNL     1       7.114   8.132  16.142  0.00  0.00    +0.000 HD
ENDBRANCH   1  11
BRANCH   1  13
ATOM     13  C   UNL     1       4.422   3.865  18.366  0.00  0.00    +0.000 A 
ATOM     14  C   UNL     1       4.202   2.570  18.853  0.00  0.00    +0.000 A 
ATOM     15  C   UNL     1       3.209   2.338  19.809  0.00  0.00    +0.000 A 
ATOM     16  C   UNL     1       2.459   3.402  20.319  0.00  0.00    +0.000 A 
ATOM     17 CL   UNL     1       1.231   3.034  21.478  0.00  0.00    +0.000 Cl
ATOM     18  C   UNL     1       2.719   4.705  19.884  0.00  0.00    +0.000 A 
ATOM     19 CL   UNL     1       1.856   6.071  20.496  0.00  0.00    +0.000 Cl
ATOM     20  C   UNL     1       3.698   4.935  18.912  0.00  0.00    +0.000 A 
ENDBRANCH   1  13
TORSDOF 2
ENDMDL
MODEL 7
REMARK VINA RESULT:      -6.8      1.479      2.211
REMARK  Name = 
REMARK  4 active torsions:
REMARK  status: ('A' for Active; 'I' for Inactive)
REMARK    1  A    between atoms: C_1  and  C_2
REMARK    2  A    between atoms: N_4  and  C_5
REMARK    3  A    between atoms: C_8  and  C_9
REMARK    4  A    between atoms: C_9  and  C_11
REMARK                            x       y       z     vdW  Elec       q    Type
REMARK                         _______ _______ _______ _____ _____    ______ ____
ROOT
ATOM      1  C   UNL     1       2.561   5.206  18.280  0.00  0.00    +0.000 C 
ATOM      2  N   UNL     1       1.639   4.561  17.635  0.00  0.00    +0.000 NA
ATOM      3  H   UNL     1       1.990   3.694  17.225  0.00  0.00    +0.000 HD
ENDROOT
BRANCH   1  11
ATOM      4  C   UNL     1       3.778   2.804  20.045  0.00  0.00    +0.000 C 
ATOM      5  C   UNL     1       4.483   3.726  19.103  0.00  0.00    +0.000 A 
ATOM      6  N   UNL     1       5.849   3.558  18.893  0.00  0.00    +0.000 N 
ATOM      7  N   UNL     1       6.280   4.673  18.181  0.00  0.00    +0.000 N 
ATOM      8  C   UNL     1       7.509   4.614  17.433  0.00  0.00    +0.000 C 
ATOM      9  C   UNL     1       5.164   5.374  17.736  0.00  0.00    +0.000 A 
ATOM     10  O   UNL     1       5.154   6.305  16.949  0.00  0.00    +0.000 OA
ATOM     11  C   UNL     1       3.969   4.749  18.388  0.00  0.00    +0.000 A 
ATOM     12  H   UNL     1       6.372   3.374  19.752  0.00  0.00    +0.000 HD
ENDBRANCH   1  11
BRANCH   1  13
ATOM     13  C   UNL     1       2.170   6.462  18.992  0.00  0.00    +0.000 A 
ATOM     14  C   UNL     1       1.774   6.467  20.336  0.00  0.00    +0.000 A 
ATOM     15  C   UNL     1       1.334   7.651  20.936  0.00  0.00    +0.000 A 
ATOM     16  C   UNL     1       1.328   8.847  20.212  0.00  0.00    +0.000 A 
ATOM     17 CL   UNL     1       0.745  10.264  21.011  0.00  0.00    +0.000 Cl
ATOM     18  C   UNL     1       1.783   8.860  18.890  0.00  0.00    +0.000 A 
ATOM     19 CL   UNL     1       1.836  10.307  17.947  0.00  0.00    +0.000 Cl
ATOM     20  C   UNL     1       2.204   7.672  18.284  0.00  0.00    +0.000 A 
ENDBRANCH   1  13
TORSDOF 2
ENDMDL
MODEL 8
REMARK VINA RESULT:      -6.8      3.904      5.137
REMARK  Name = 
REMARK  4 active torsions:
REMARK  status: ('A' for Active; 'I' for Inactive)
REMARK    1  A    between atoms: C_1  and  C_2
REMARK    2  A    between atoms: N_4  and  C_5
REMARK    3  A    between atoms: C_8  and  C_9
REMARK    4  A    between atoms: C_9  and  C_11
REMARK                            x       y       z     vdW  Elec       q    Type
REMARK                         _______ _______ _______ _____ _____    ______ ____
ROOT
ATOM      1  C   UNL     1       4.168   3.354  17.873  0.00  0.00    +0.000 C 
ATOM      2  N   UNL     1       4.414   2.368  17.067  0.00  0.00    +0.000 NA
ATOM      3  H   UNL     1       3.741   1.607  17.172  0.00  0.00    +0.000 HD
ENDROOT
BRANCH   1  11
ATOM      4  C   UNL     1       1.197   4.548  17.543  0.00  0.00    +0.000 C 
ATOM      5  C   UNL     1       1.796   3.836  18.712  0.00  0.00    +0.000 A 
ATOM      6  N   UNL     1       1.006   3.599  19.833  0.00  0.00    +0.000 N 
ATOM      7  N   UNL     1       1.863   3.153  20.835  0.00  0.00    +0.000 N 
ATOM      8  C   UNL     1       1.334   2.415  21.953  0.00  0.00    +0.000 C 
ATOM      9  C   UNL     1       3.101   2.870  20.266  0.00  0.00    +0.000 A 
ATOM     10  O   UNL     1       4.038   2.307  20.804  0.00  0.00    +0.000 OA
ATOM     11  C   UNL     1       3.053   3.363  18.853  0.00  0.00    +0.000 A 
ATOM     12  H   UNL     1       0.424   4.398  20.097  0.00  0.00    +0.000 HD
ENDBRANCH   1  11
BRANCH   1  13
ATOM     13  C   UNL     1       5.035   4.569  17.779  0.00  0.00    +0.000 A 
ATOM     14  C   UNL     1       4.804   5.580  16.837  0.00  0.00    +0.000 A 
ATOM     15  C   UNL     1       5.691   6.655  16.728  0.00  0.00    +0.000 A 
ATOM     16  C   UNL     1       6.789   6.753  17.586  0.00  0.00    +0.000 A 
ATOM     17 CL   UNL     1       7.857   8.095  17.374  0.00  0.00    +0.000 Cl
ATOM     18  C   UNL     1       6.989   5.779  18.571  0.00  0.00    +0.000 A 
ATOM     19 CL   UNL     1       8.304   5.855  19.689  0.00  0.00    +0.000 Cl
ATOM     20  C   UNL     1       6.113   4.693  18.667  0.00  0.00    +0.000 A 
ENDBRANCH   1  13
TORSDOF 2
ENDMDL
MODEL 9
REMARK VINA RESULT:      -6.8      1.773      3.091
REMARK  Name = 
REMARK  4 active torsions:
REMARK  status: ('A' for Active; 'I' for Inactive)
REMARK    1  A    between atoms: C_1  and  C_2
REMARK    2  A    between atoms: N_4  and  C_5
REMARK    3  A    between atoms: C_8  and  C_9
REMARK    4  A    between atoms: C_9  and  C_11
REMARK                            x       y       z     vdW  Elec       q    Type
REMARK                         _______ _______ _______ _____ _____    ______ ____
ROOT
ATOM      1  C   UNL     1       3.727   6.438  17.740  0.00  0.00    +0.000 C 
ATOM      2  N   UNL     1       4.138   7.032  16.663  0.00  0.00    +0.000 NA
ATOM      3  H   UNL     1       4.709   6.419  16.078  0.00  0.00    +0.000 HD
ENDROOT
BRANCH   1  11
ATOM      4  C   UNL     1       6.341   5.310  19.243  0.00  0.00    +0.000 C 
ATOM      5  C   UNL     1       5.147   4.559  18.748  0.00  0.00    +0.000 A 
ATOM      6  N   UNL     1       5.081   3.185  18.961  0.00  0.00    +0.000 N 
ATOM      7  N   UNL     1       4.011   2.719  18.204  0.00  0.00    +0.000 N 
ATOM      8  C   UNL     1       3.401   1.455  18.529  0.00  0.00    +0.000 C 
ATOM      9  C   UNL     1       3.277   3.811  17.751  0.00  0.00    +0.000 A 
ATOM     10  O   UNL     1       2.190   3.782  17.202  0.00  0.00    +0.000 OA
ATOM     11  C   UNL     1       4.067   5.037  18.094  0.00  0.00    +0.000 A 
ATOM     12  H   UNL     1       5.966   2.704  18.787  0.00  0.00    +0.000 HD
ENDBRANCH   1  11
BRANCH   1  13
ATOM     13  C   UNL     1       2.821   7.197  18.657  0.00  0.00    +0.000 A 
ATOM     14  C   UNL     1       2.442   6.702  19.911  0.00  0.00    +0.000 A 
ATOM     15  C   UNL     1       1.525   7.405  20.698  0.00  0.00    +0.000 A 
ATOM     16  C   UNL     1       1.013   8.629  20.258  0.00  0.00    +0.000 A 
ATOM     17 CL   UNL     1      -0.138   9.428  21.270  0.00  0.00    +0.000 Cl
ATOM     18  C   UNL     1       1.436   9.159  19.035  0.00  0.00    +0.000 A 
ATOM     19 CL   UNL     1       0.873  10.682  18.445  0.00  0.00    +0.000 Cl
ATOM     20  C   UNL     1       2.339   8.446  18.239  0.00  0.00    +0.000 A 
ENDBRANCH   1  13
TORSDOF 2
ENDMDL
