MODEL 1
REMARK VINA RESULT:      -7.3      0.000      0.000
REMARK  Name = 
REMARK  8 active torsions:
REMARK  status: ('A' for Active; 'I' for Inactive)
REMARK    1  A    between atoms: C_1  and  C_2
REMARK    2  A    between atoms: C_2  and  C_3
REMARK    3  A    between atoms: C_3  and  C_4
REMARK    4  A    between atoms: C_6  and  O_7
REMARK    5  A    between atoms: C_8  and  C_9
REMARK    6  A    between atoms: N_11  and  C_12
REMARK    7  A    between atoms: C_12  and  C_13
REMARK    8  A    between atoms: C_13  and  O_15
REMARK                            x       y       z     vdW  Elec       q    Type
REMARK                         _______ _______ _______ _____ _____    ______ ____
ROOT
ATOM      1  C   UNL     1       5.981   4.438  15.863  0.00  0.00    +0.000 A 
ATOM      2  C   UNL     1       4.702   3.880  15.846  0.00  0.00    +0.000 A 
ATOM      3  C   UNL     1       3.996   3.655  17.042  0.00  0.00    +0.000 A 
ATOM      4  C   UNL     1       4.582   3.996  18.309  0.00  0.00    +0.000 A 
ATOM      5  C   UNL     1       5.871   4.585  18.236  0.00  0.00    +0.000 A 
ATOM      6  N   UNL     1       6.633   5.012  19.263  0.00  0.00    +0.000 NA
ATOM      7  C   UNL     1       7.746   5.475  18.647  0.00  0.00    +0.000 A 
ATOM      8  N   UNL     1       7.677   5.335  17.304  0.00  0.00    +0.000 NA
ATOM      9  N   UNL     1       6.502   4.778  17.068  0.00  0.00    +0.000 N 
ENDROOT
BRANCH   4  10
ATOM     10  C   UNL     1       3.927   3.758  19.659  0.00  0.00    +0.000 C 
ATOM     11  O   UNL     1       4.275   2.778  20.305  0.00  0.00    +0.000 OA
ATOM     12  N   UNL     1       2.951   4.571  20.174  0.00  0.00    +0.000 N 
ATOM     13  H   UNL     1       2.616   5.395  19.676  0.00  0.00    +0.000 HD
BRANCH  12  14
ATOM     14  C   UNL     1       2.284   4.348  21.442  0.00  0.00    +0.000 C 
BRANCH  14  15
ATOM     15  C   UNL     1       1.357   3.171  21.318  0.00  0.00    +0.000 C 
ATOM     16  O   UNL     1       1.405   2.269  22.139  0.00  0.00    +0.000 OA
BRANCH  15  17
ATOM     17  O   UNL     1       0.478   3.094  20.298  0.00  0.00    +0.000 OA
ATOM     18  H   UNL     1       0.570   3.651  19.512  0.00  0.00    +0.000 HD
ENDBRANCH  15  17
ENDBRANCH  14  15
ENDBRANCH  12  14
ENDBRANCH   4  10
BRANCH   3  19
ATOM     19  O   UNL     1       2.771   3.112  16.944  0.00  0.00    +0.000 OA
ATOM     20  H   UNL     1       2.245   2.853  17.715  0.00  0.00    +0.000 HD
ENDBRANCH   3  19
BRANCH   1  21
ATOM     21  C   UNL     1       6.733   4.628  14.567  0.00  0.00    +0.000 C 
BRANCH  21  23
ATOM     22  C   UNL     1       6.965   3.892  12.132  0.00  0.00    +0.000 C 
ATOM     23  C   UNL     1       6.113   3.841  13.403  0.00  0.00    +0.000 C 
ENDBRANCH  21  23
ENDBRANCH   1  21
TORSDOF 7
ENDMDL
MODEL 2
REMARK VINA RESULT:      -6.8      2.748      6.587
REMARK  Name = 
REMARK  8 active torsions:
REMARK  status: ('A' for Active; 'I' for Inactive)
REMARK    1  A    between atoms: C_1  and  C_2
REMARK    2  A    between atoms: C_2  and  C_3
REMARK    3  A    between atoms: C_3  and  C_4
REMARK    4  A    between atoms: C_6  and  O_7
REMARK    5  A    between atoms: C_8  and  C_9
REMARK    6  A    between atoms: N_11  and  C_12
REMARK    7  A    between atoms: C_12  and  C_13
REMARK    8  A    between atoms: C_13  and  O_15
REMARK                            x       y       z     vdW  Elec       q    Type
REMARK                         _______ _______ _______ _____ _____    ______ ____
ROOT
ATOM      1  C   UNL     1       2.580   4.511  18.891  0.00  0.00    +0.000 A 
ATOM      2  C   UNL     1       3.031   3.234  18.556  0.00  0.00    +0.000 A 
ATOM      3  C   UNL     1       4.023   3.051  17.575  0.00  0.00    +0.000 A 
ATOM      4  C   UNL     1       4.592   4.182  16.896  0.00  0.00    +0.000 A 
ATOM      5  C   UNL     1       4.101   5.445  17.315  0.00  0.00    +0.000 A 
ATOM      6  N   UNL     1       4.473   6.659  16.860  0.00  0.00    +0.000 NA
ATOM      7  C   UNL     1       3.702   7.506  17.583  0.00  0.00    +0.000 A 
ATOM      8  N   UNL     1       2.890   6.847  18.439  0.00  0.00    +0.000 NA
ATOM      9  N   UNL     1       3.152   5.565  18.256  0.00  0.00    +0.000 N 
ENDROOT
BRANCH   4  10
ATOM     10  C   UNL     1       5.636   4.097  15.795  0.00  0.00    +0.000 C 
ATOM     11  O   UNL     1       6.795   3.869  16.115  0.00  0.00    +0.000 OA
ATOM     12  N   UNL     1       5.346   4.290  14.470  0.00  0.00    +0.000 N 
ATOM     13  H   UNL     1       4.401   4.493  14.147  0.00  0.00    +0.000 HD
BRANCH  12  14
ATOM     14  C   UNL     1       6.328   4.252  13.402  0.00  0.00    +0.000 C 
BRANCH  14  15
ATOM     15  C   UNL     1       5.866   3.299  12.335  0.00  0.00    +0.000 C 
ATOM     16  O   UNL     1       4.740   3.398  11.876  0.00  0.00    +0.000 OA
BRANCH  15  17
ATOM     17  O   UNL     1       6.683   2.325  11.885  0.00  0.00    +0.000 OA
ATOM     18  H   UNL     1       7.191   2.432  11.068  0.00  0.00    +0.000 HD
ENDBRANCH  15  17
ENDBRANCH  14  15
ENDBRANCH  12  14
ENDBRANCH   4  10
BRANCH   3  19
ATOM     19  O   UNL     1       4.403   1.791  17.307  0.00  0.00    +0.000 OA
ATOM     20  H   UNL     1       3.962   1.235  16.648  0.00  0.00    +0.000 HD
ENDBRANCH   3  19
BRANCH   1  21
ATOM     21  C   UNL     1       1.483   4.674  19.916  0.00  0.00    +0.000 C 
BRANCH  21  23
ATOM     22  C   UNL     1       1.336   2.744  21.583  0.00  0.00    +0.000 C 
ATOM     23  C   UNL     1       1.885   4.145  21.301  0.00  0.00    +0.000 C 
ENDBRANCH  21  23
ENDBRANCH   1  21
TORSDOF 7
ENDMDL
MODEL 3
REMARK VINA RESULT:      -6.8      2.975      6.710
REMARK  Name = 
REMARK  8 active torsions:
REMARK  status: ('A' for Active; 'I' for Inactive)
REMARK    1  A    between atoms: C_1  and  C_2
REMARK    2  A    between atoms: C_2  and  C_3
REMARK    3  A    between atoms: C_3  and  C_4
REMARK    4  A    between atoms: C_6  and  O_7
REMARK    5  A    between atoms: C_8  and  C_9
REMARK    6  A    between atoms: N_11  and  C_12
REMARK    7  A    between atoms: C_12  and  C_13
REMARK    8  A    between atoms: C_13  and  O_15
REMARK                            x       y       z     vdW  Elec       q    Type
REMARK                         _______ _______ _______ _____ _____    ______ ____
ROOT
ATOM      1  C   UNL     1       3.051   5.345  19.747  0.00  0.00    +0.000 A 
ATOM      2  C   UNL     1       4.078   4.409  19.620  0.00  0.00    +0.000 A 
ATOM      3  C   UNL     1       5.058   4.543  18.618  0.00  0.00    +0.000 A 
ATOM      4  C   UNL     1       5.017   5.648  17.703  0.00  0.00    +0.000 A 
ATOM      5  C   UNL     1       3.959   6.569  17.918  0.00  0.00    +0.000 A 
ATOM      6  N   UNL     1       3.700   7.694  17.221  0.00  0.00    +0.000 NA
ATOM      7  C   UNL     1       2.595   8.184  17.831  0.00  0.00    +0.000 A 
ATOM      8  N   UNL     1       2.188   7.396  18.851  0.00  0.00    +0.000 NA
ATOM      9  N   UNL     1       3.049   6.395  18.889  0.00  0.00    +0.000 N 
ENDROOT
BRANCH   4  10
ATOM     10  C   UNL     1       5.997   5.866  16.562  0.00  0.00    +0.000 C 
ATOM     11  O   UNL     1       6.668   6.890  16.565  0.00  0.00    +0.000 OA
ATOM     12  N   UNL     1       6.145   4.987  15.521  0.00  0.00    +0.000 N 
ATOM     13  H   UNL     1       5.606   4.125  15.462  0.00  0.00    +0.000 HD
BRANCH  12  14
ATOM     14  C   UNL     1       7.045   5.188  14.401  0.00  0.00    +0.000 C 
BRANCH  14  15
ATOM     15  C   UNL     1       6.766   4.154  13.347  0.00  0.00    +0.000 C 
ATOM     16  O   UNL     1       7.183   4.314  12.210  0.00  0.00    +0.000 OA
BRANCH  15  17
ATOM     17  O   UNL     1       6.046   3.051  13.639  0.00  0.00    +0.000 OA
ATOM     18  H   UNL     1       5.646   2.929  14.511  0.00  0.00    +0.000 HD
ENDBRANCH  15  17
ENDBRANCH  14  15
ENDBRANCH  12  14
ENDBRANCH   4  10
BRANCH   3  19
ATOM     19  O   UNL     1       6.014   3.600  18.559  0.00  0.00    +0.000 OA
ATOM     20  H   UNL     1       6.864   3.681  19.016  0.00  0.00    +0.000 HD
ENDBRANCH   3  19
BRANCH   1  21
ATOM     21  C   UNL     1       1.989   5.152  20.802  0.00  0.00    +0.000 C 
BRANCH  21  23
ATOM     22  C   UNL     1       1.349   2.776  21.488  0.00  0.00    +0.000 C 
ATOM     23  C   UNL     1       1.091   3.938  20.524  0.00  0.00    +0.000 C 
ENDBRANCH  21  23
ENDBRANCH   1  21
TORSDOF 7
ENDMDL
MODEL 4
REMARK VINA RESULT:      -6.7      1.163      1.163
REMARK  Name = 
REMARK  8 active torsions:
REMARK  status: ('A' for Active; 'I' for Inactive)
REMARK    1  A    between atoms: C_1  and  C_2
REMARK    2  A    between atoms: C_2  and  C_3
REMARK    3  A    between atoms: C_3  and  C_4
REMARK    4  A    between atoms: C_6  and  O_7
REMARK    5  A    between atoms: C_8  and  C_9
REMARK    6  A    between atoms: N_11  and  C_12
REMARK    7  A    between atoms: C_12  and  C_13
REMARK    8  A    between atoms: C_13  and  O_15
REMARK                            x       y       z     vdW  Elec       q    Type
REMARK                         _______ _______ _______ _____ _____    ______ ____
ROOT
ATOM      1  C   UNL     1       5.953   4.520  15.259  0.00  0.00    +0.000 A 
ATOM      2  C   UNL     1       4.822   3.755  15.548  0.00  0.00    +0.000 A 
ATOM      3  C   UNL     1       4.175   3.864  16.793  0.00  0.00    +0.000 A 
ATOM      4  C   UNL     1       4.668   4.767  17.794  0.00  0.00    +0.000 A 
ATOM      5  C   UNL     1       5.802   5.528  17.411  0.00  0.00    +0.000 A 
ATOM      6  N   UNL     1       6.452   6.454  18.145  0.00  0.00    +0.000 NA
ATOM      7  C   UNL     1       7.444   6.861  17.318  0.00  0.00    +0.000 A 
ATOM      8  N   UNL     1       7.412   6.213  16.132  0.00  0.00    +0.000 NA
ATOM      9  N   UNL     1       6.384   5.387  16.210  0.00  0.00    +0.000 N 
ENDROOT
BRANCH   4  10
ATOM     10  C   UNL     1       4.073   4.933  19.183  0.00  0.00    +0.000 C 
ATOM     11  O   UNL     1       4.839   5.021  20.132  0.00  0.00    +0.000 OA
ATOM     12  N   UNL     1       2.724   4.961  19.422  0.00  0.00    +0.000 N 
ATOM     13  H   UNL     1       2.040   4.882  18.671  0.00  0.00    +0.000 HD
BRANCH  12  14
ATOM     14  C   UNL     1       2.128   5.081  20.739  0.00  0.00    +0.000 C 
BRANCH  14  15
ATOM     15  C   UNL     1       1.653   3.730  21.196  0.00  0.00    +0.000 C 
ATOM     16  O   UNL     1       2.234   3.155  22.103  0.00  0.00    +0.000 OA
BRANCH  15  17
ATOM     17  O   UNL     1       0.595   3.139  20.606  0.00  0.00    +0.000 OA
ATOM     18  H   UNL     1       0.235   2.305  20.939  0.00  0.00    +0.000 HD
ENDBRANCH  15  17
ENDBRANCH  14  15
ENDBRANCH  12  14
ENDBRANCH   4  10
BRANCH   3  19
ATOM     19  O   UNL     1       3.094   3.092  16.996  0.00  0.00    +0.000 OA
ATOM     20  H   UNL     1       3.021   2.469  17.734  0.00  0.00    +0.000 HD
ENDBRANCH   3  19
BRANCH   1  21
ATOM     21  C   UNL     1       6.653   4.351  13.932  0.00  0.00    +0.000 C 
BRANCH  21  23
ATOM     22  C   UNL     1       6.405   2.779  11.934  0.00  0.00    +0.000 C 
ATOM     23  C   UNL     1       5.722   3.810  12.837  0.00  0.00    +0.000 C 
ENDBRANCH  21  23
ENDBRANCH   1  21
TORSDOF 7
ENDMDL
MODEL 5
REMARK VINA RESULT:      -6.6      3.321      6.815
REMARK  Name = 
REMARK  8 active torsions:
REMARK  status: ('A' for Active; 'I' for Inactive)
REMARK    1  A    between atoms: C_1  and  C_2
REMARK    2  A    between atoms: C_2  and  C_3
REMARK    3  A    between atoms: C_3  and  C_4
REMARK    4  A    between atoms: C_6  and  O_7
REMARK    5  A    between atoms: C_8  and  C_9
REMARK    6  A    between atoms: N_11  and  C_12
REMARK    7  A    between atoms: C_12  and  C_13
REMARK    8  A    between atoms: C_13  and  O_15
REMARK                            x       y       z     vdW  Elec       q    Type
REMARK                         _______ _______ _______ _____ _____    ______ ____
ROOT
ATOM      1  C   UNL     1       1.635   6.866  20.391  0.00  0.00    +0.000 A 
ATOM      2  C   UNL     1       1.965   5.604  20.887  0.00  0.00    +0.000 A 
ATOM      3  C   UNL     1       2.926   4.803  20.242  0.00  0.00    +0.000 A 
ATOM      4  C   UNL     1       3.588   5.272  19.057  0.00  0.00    +0.000 A 
ATOM      5  C   UNL     1       3.217   6.575  18.637  0.00  0.00    +0.000 A 
ATOM      6  N   UNL     1       3.692   7.258  17.575  0.00  0.00    +0.000 NA
ATOM      7  C   UNL     1       3.009   8.426  17.631  0.00  0.00    +0.000 A 
ATOM      8  N   UNL     1       2.150   8.460  18.673  0.00  0.00    +0.000 NA
ATOM      9  N   UNL     1       2.293   7.299  19.287  0.00  0.00    +0.000 N 
ENDROOT
BRANCH   4  10
ATOM     10  C   UNL     1       4.608   4.475  18.261  0.00  0.00    +0.000 C 
ATOM     11  O   UNL     1       5.332   3.696  18.866  0.00  0.00    +0.000 OA
ATOM     12  N   UNL     1       4.772   4.608  16.907  0.00  0.00    +0.000 N 
ATOM     13  H   UNL     1       4.204   5.248  16.353  0.00  0.00    +0.000 HD
BRANCH  12  14
ATOM     14  C   UNL     1       5.761   3.888  16.127  0.00  0.00    +0.000 C 
BRANCH  14  15
ATOM     15  C   UNL     1       7.092   4.576  16.254  0.00  0.00    +0.000 C 
ATOM     16  O   UNL     1       7.362   5.520  15.530  0.00  0.00    +0.000 OA
BRANCH  15  17
ATOM     17  O   UNL     1       8.001   4.151  17.156  0.00  0.00    +0.000 OA
ATOM     18  H   UNL     1       8.618   4.767  17.576  0.00  0.00    +0.000 HD
ENDBRANCH  15  17
ENDBRANCH  14  15
ENDBRANCH  12  14
ENDBRANCH   4  10
BRANCH   3  19
ATOM     19  O   UNL     1       3.188   3.600  20.779  0.00  0.00    +0.000 OA
ATOM     20  H   UNL     1       2.762   2.783  20.478  0.00  0.00    +0.000 HD
ENDBRANCH   3  19
BRANCH   1  21
ATOM     21  C   UNL     1       0.568   7.685  21.078  0.00  0.00    +0.000 C 
BRANCH  21  23
ATOM     22  C   UNL     1       0.074   9.455  22.853  0.00  0.00    +0.000 C 
ATOM     23  C   UNL     1       1.152   8.721  22.051  0.00  0.00    +0.000 C 
ENDBRANCH  21  23
ENDBRANCH   1  21
TORSDOF 7
ENDMDL
MODEL 6
REMARK VINA RESULT:      -6.6      2.281      2.961
REMARK  Name = 
REMARK  8 active torsions:
REMARK  status: ('A' for Active; 'I' for Inactive)
REMARK    1  A    between atoms: C_1  and  C_2
REMARK    2  A    between atoms: C_2  and  C_3
REMARK    3  A    between atoms: C_3  and  C_4
REMARK    4  A    between atoms: C_6  and  O_7
REMARK    5  A    between atoms: C_8  and  C_9
REMARK    6  A    between atoms: N_11  and  C_12
REMARK    7  A    between atoms: C_12  and  C_13
REMARK    8  A    between atoms: C_13  and  O_15
REMARK                            x       y       z     vdW  Elec       q    Type
REMARK                         _______ _______ _______ _____ _____    ______ ____
ROOT
ATOM      1  C   UNL     1       5.187   4.825  16.436  0.00  0.00    +0.000 A 
ATOM      2  C   UNL     1       4.157   3.883  16.401  0.00  0.00    +0.000 A 
ATOM      3  C   UNL     1       3.822   3.135  17.545  0.00  0.00    +0.000 A 
ATOM      4  C   UNL     1       4.537   3.328  18.776  0.00  0.00    +0.000 A 
ATOM      5  C   UNL     1       5.547   4.324  18.735  0.00  0.00    +0.000 A 
ATOM      6  N   UNL     1       6.350   4.715  19.745  0.00  0.00    +0.000 NA
ATOM      7  C   UNL     1       7.118   5.673  19.173  0.00  0.00    +0.000 A 
ATOM      8  N   UNL     1       6.808   5.859  17.871  0.00  0.00    +0.000 NA
ATOM      9  N   UNL     1       5.829   5.009  17.617  0.00  0.00    +0.000 N 
ENDROOT
BRANCH   4  10
ATOM     10  C   UNL     1       4.287   2.548  20.056  0.00  0.00    +0.000 C 
ATOM     11  O   UNL     1       3.256   2.774  20.676  0.00  0.00    +0.000 OA
ATOM     12  N   UNL     1       5.169   1.628  20.559  0.00  0.00    +0.000 N 
ATOM     13  H   UNL     1       6.046   1.407  20.090  0.00  0.00    +0.000 HD
BRANCH  12  14
ATOM     14  C   UNL     1       4.973   0.897  21.796  0.00  0.00    +0.000 C 
BRANCH  14  15
ATOM     15  C   UNL     1       6.279   0.291  22.229  0.00  0.00    +0.000 C 
ATOM     16  O   UNL     1       7.111   0.980  22.798  0.00  0.00    +0.000 OA
BRANCH  15  17
ATOM     17  O   UNL     1       6.548  -1.008  21.986  0.00  0.00    +0.000 OA
ATOM     18  H   UNL     1       7.248  -1.270  21.372  0.00  0.00    +0.000 HD
ENDBRANCH  15  17
ENDBRANCH  14  15
ENDBRANCH  12  14
ENDBRANCH   4  10
BRANCH   3  19
ATOM     19  O   UNL     1       2.822   2.246  17.431  0.00  0.00    +0.000 OA
ATOM     20  H   UNL     1       2.376   2.057  16.593  0.00  0.00    +0.000 HD
ENDBRANCH   3  19
BRANCH   1  21
ATOM     21  C   UNL     1       5.553   5.581  15.182  0.00  0.00    +0.000 C 
BRANCH  21  23
ATOM     22  C   UNL     1       6.185   3.900  13.365  0.00  0.00    +0.000 C 
ATOM     23  C   UNL     1       6.691   4.911  14.398  0.00  0.00    +0.000 C 
ENDBRANCH  21  23
ENDBRANCH   1  21
TORSDOF 7
ENDMDL
MODEL 7
REMARK VINA RESULT:      -6.5      3.484      6.960
REMARK  Name = 
REMARK  8 active torsions:
REMARK  status: ('A' for Active; 'I' for Inactive)
REMARK    1  A    between atoms: C_1  and  C_2
REMARK    2  A    between atoms: C_2  and  C_3
REMARK    3  A    between atoms: C_3  and  C_4
REMARK    4  A    between atoms: C_6  and  O_7
REMARK    5  A    between atoms: C_8  and  C_9
REMARK    6  A    between atoms: N_11  and  C_12
REMARK    7  A    between atoms: C_12  and  C_13
REMARK    8  A    between atoms: C_13  and  O_15
REMARK                            x       y       z     vdW  Elec       q    Type
REMARK                         _______ _______ _______ _____ _____    ______ ____
ROOT
ATOM      1  C   UNL     1       1.822   7.036  20.192  0.00  0.00    +0.000 A 
ATOM      2  C   UNL     1       2.074   7.932  19.152  0.00  0.00    +0.000 A 
ATOM      3  C   UNL     1       2.911   7.576  18.078  0.00  0.00    +0.000 A 
ATOM      4  C   UNL     1       3.526   6.279  18.033  0.00  0.00    +0.000 A 
ATOM      5  C   UNL     1       3.196   5.419  19.113  0.00  0.00    +0.000 A 
ATOM      6  N   UNL     1       3.617   4.153  19.307  0.00  0.00    +0.000 NA
ATOM      7  C   UNL     1       3.017   3.806  20.470  0.00  0.00    +0.000 A 
ATOM      8  N   UNL     1       2.266   4.811  20.973  0.00  0.00    +0.000 NA
ATOM      9  N   UNL     1       2.392   5.807  20.114  0.00  0.00    +0.000 N 
ENDROOT
BRANCH   4  10
ATOM     10  C   UNL     1       4.477   5.807  16.946  0.00  0.00    +0.000 C 
ATOM     11  O   UNL     1       4.847   6.620  16.110  0.00  0.00    +0.000 OA
ATOM     12  N   UNL     1       4.917   4.513  16.844  0.00  0.00    +0.000 N 
ATOM     13  H   UNL     1       4.634   3.792  17.506  0.00  0.00    +0.000 HD
BRANCH  12  14
ATOM     14  C   UNL     1       5.795   4.027  15.797  0.00  0.00    +0.000 C 
BRANCH  14  15
ATOM     15  C   UNL     1       7.150   4.659  15.949  0.00  0.00    +0.000 C 
ATOM     16  O   UNL     1       7.879   4.324  16.870  0.00  0.00    +0.000 OA
BRANCH  15  17
ATOM     17  O   UNL     1       7.569   5.604  15.083  0.00  0.00    +0.000 OA
ATOM     18  H   UNL     1       7.993   5.367  14.246  0.00  0.00    +0.000 HD
ENDBRANCH  15  17
ENDBRANCH  14  15
ENDBRANCH  12  14
ENDBRANCH   4  10
BRANCH   3  19
ATOM     19  O   UNL     1       3.106   8.493  17.116  0.00  0.00    +0.000 OA
ATOM     20  H   UNL     1       3.941   8.972  17.004  0.00  0.00    +0.000 HD
ENDBRANCH   3  19
BRANCH   1  21
ATOM     21  C   UNL     1       0.955   7.461  21.353  0.00  0.00    +0.000 C 
BRANCH  21  23
ATOM     22  C   UNL     1      -0.091   9.470  22.534  0.00  0.00    +0.000 C 
ATOM     23  C   UNL     1       0.453   8.906  21.218  0.00  0.00    +0.000 C 
ENDBRANCH  21  23
ENDBRANCH   1  21
TORSDOF 7
ENDMDL
MODEL 8
REMARK VINA RESULT:      -6.5      2.637      4.500
REMARK  Name = 
REMARK  8 active torsions:
REMARK  status: ('A' for Active; 'I' for Inactive)
REMARK    1  A    between atoms: C_1  and  C_2
REMARK    2  A    between atoms: C_2  and  C_3
REMARK    3  A    between atoms: C_3  and  C_4
REMARK    4  A    between atoms: C_6  and  O_7
REMARK    5  A    between atoms: C_8  and  C_9
REMARK    6  A    between atoms: N_11  and  C_12
REMARK    7  A    between atoms: C_12  and  C_13
REMARK    8  A    between atoms: C_13  and  O_15
REMARK                            x       y       z     vdW  Elec       q    Type
REMARK                         _______ _______ _______ _____ _____    ______ ____
ROOT
ATOM      1  C   UNL     1       7.461   7.395  17.782  0.00  0.00    +0.000 A 
ATOM      2  C   UNL     1       7.842   6.692  18.925  0.00  0.00    +0.000 A 
ATOM      3  C   UNL     1       7.159   5.526  19.318  0.00  0.00    +0.000 A 
ATOM      4  C   UNL     1       6.050   5.037  18.547  0.00  0.00    +0.000 A 
ATOM      5  C   UNL     1       5.746   5.792  17.385  0.00  0.00    +0.000 A 
ATOM      6  N   UNL     1       4.775   5.547  16.482  0.00  0.00    +0.000 NA
ATOM      7  C   UNL     1       4.920   6.560  15.595  0.00  0.00    +0.000 A 
ATOM      8  N   UNL     1       5.928   7.392  15.936  0.00  0.00    +0.000 NA
ATOM      9  N   UNL     1       6.429   6.899  17.054  0.00  0.00    +0.000 N 
ENDROOT
BRANCH   4  10
ATOM     10  C   UNL     1       5.218   3.816  18.902  0.00  0.00    +0.000 C 
ATOM     11  O   UNL     1       5.175   3.468  20.075  0.00  0.00    +0.000 OA
ATOM     12  N   UNL     1       4.539   3.074  17.971  0.00  0.00    +0.000 N 
ATOM     13  H   UNL     1       4.548   3.312  16.980  0.00  0.00    +0.000 HD
BRANCH  12  14
ATOM     14  C   UNL     1       3.768   1.884  18.276  0.00  0.00    +0.000 C 
BRANCH  14  15
ATOM     15  C   UNL     1       2.307   2.171  18.073  0.00  0.00    +0.000 C 
ATOM     16  O   UNL     1       1.960   3.047  17.296  0.00  0.00    +0.000 OA
BRANCH  15  17
ATOM     17  O   UNL     1       1.370   1.477  18.750  0.00  0.00    +0.000 OA
ATOM     18  H   UNL     1       1.439   0.519  18.865  0.00  0.00    +0.000 HD
ENDBRANCH  15  17
ENDBRANCH  14  15
ENDBRANCH  12  14
ENDBRANCH   4  10
BRANCH   3  19
ATOM     19  O   UNL     1       7.584   4.906  20.432  0.00  0.00    +0.000 OA
ATOM     20  H   UNL     1       7.048   4.839  21.236  0.00  0.00    +0.000 HD
ENDBRANCH   3  19
BRANCH   1  21
ATOM     21  C   UNL     1       8.184   8.667  17.409  0.00  0.00    +0.000 C 
BRANCH  21  23
ATOM     22  C   UNL     1       9.300  10.793  18.281  0.00  0.00    +0.000 C 
ATOM     23  C   UNL     1       8.745   9.409  18.631  0.00  0.00    +0.000 C 
ENDBRANCH  21  23
ENDBRANCH   1  21
TORSDOF 7
ENDMDL
MODEL 9
REMARK VINA RESULT:      -6.5      3.216      6.732
REMARK  Name = 
REMARK  8 active torsions:
REMARK  status: ('A' for Active; 'I' for Inactive)
REMARK    1  A    between atoms: C_1  and  C_2
REMARK    2  A    between atoms: C_2  and  C_3
REMARK    3  A    between atoms: C_3  and  C_4
REMARK    4  A    between atoms: C_6  and  O_7
REMARK    5  A    between atoms: C_8  and  C_9
REMARK    6  A    between atoms: N_11  and  C_12
REMARK    7  A    between atoms: C_12  and  C_13
REMARK    8  A    between atoms: C_13  and  O_15
REMARK                            x       y       z     vdW  Elec       q    Type
REMARK                         _______ _______ _______ _____ _____    ______ ____
ROOT
ATOM      1  C   UNL     1       2.356   4.911  19.272  0.00  0.00    +0.000 A 
ATOM      2  C   UNL     1       2.658   6.229  18.925  0.00  0.00    +0.000 A 
ATOM      3  C   UNL     1       3.560   6.514  17.884  0.00  0.00    +0.000 A 
ATOM      4  C   UNL     1       4.192   5.450  17.156  0.00  0.00    +0.000 A 
ATOM      5  C   UNL     1       3.809   4.141  17.550  0.00  0.00    +0.000 A 
ATOM      6  N   UNL     1       4.232   2.973  17.026  0.00  0.00    +0.000 NA
ATOM      7  C   UNL     1       3.568   2.049  17.762  0.00  0.00    +0.000 A 
ATOM      8  N   UNL     1       2.779   2.620  18.698  0.00  0.00    +0.000 NA
ATOM      9  N   UNL     1       2.943   3.923  18.551  0.00  0.00    +0.000 N 
ENDROOT
BRANCH   4  10
ATOM     10  C   UNL     1       5.210   5.643  16.044  0.00  0.00    +0.000 C 
ATOM     11  O   UNL     1       5.244   6.726  15.475  0.00  0.00    +0.000 OA
ATOM     12  N   UNL     1       6.069   4.658  15.634  0.00  0.00    +0.000 N 
ATOM     13  H   UNL     1       6.078   3.734  16.065  0.00  0.00    +0.000 HD
BRANCH  12  14
ATOM     14  C   UNL     1       7.025   4.803  14.552  0.00  0.00    +0.000 C 
BRANCH  14  15
ATOM     15  C   UNL     1       6.456   4.196  13.300  0.00  0.00    +0.000 C 
ATOM     16  O   UNL     1       7.141   4.127  12.291  0.00  0.00    +0.000 OA
BRANCH  15  17
ATOM     17  O   UNL     1       5.189   3.737  13.274  0.00  0.00    +0.000 OA
ATOM     18  H   UNL     1       4.559   3.958  13.974  0.00  0.00    +0.000 HD
ENDBRANCH  15  17
ENDBRANCH  14  15
ENDBRANCH  12  14
ENDBRANCH   4  10
BRANCH   3  19
ATOM     19  O   UNL     1       3.801   7.807  17.612  0.00  0.00    +0.000 OA
ATOM     20  H   UNL     1       4.685   8.201  17.656  0.00  0.00    +0.000 HD
ENDBRANCH   3  19
BRANCH   1  21
ATOM     21  C   UNL     1       1.418   4.635  20.422  0.00  0.00    +0.000 C 
BRANCH  21  23
ATOM     22  C   UNL     1       1.451   2.516  21.848  0.00  0.00    +0.000 C 
ATOM     23  C   UNL     1       2.098   3.876  21.571  0.00  0.00    +0.000 C 
ENDBRANCH  21  23
ENDBRANCH   1  21
TORSDOF 7
ENDMDL
