MODEL 1
REMARK VINA RESULT:      -8.4      0.000      0.000
REMARK  Name = 
REMARK  4 active torsions:
REMARK  status: ('A' for Active; 'I' for Inactive)
REMARK    1  A    between atoms: N_3  and  C_4
REMARK    2  A    between atoms: N_11  and  C_12
REMARK    3  A    between atoms: N_15  and  C_16
REMARK    4  A    between atoms: C_16  and  C_17
REMARK                            x       y       z     vdW  Elec       q    Type
REMARK                         _______ _______ _______ _____ _____    ______ ____
ROOT
ATOM      1  C   UNL     1       7.758   6.101  18.486  0.00  0.00    +0.000 C 
ATOM      2  C   UNL     1       8.063   4.914  17.574  0.00  0.00    +0.000 C 
ATOM      3  C   UNL     1       6.820   4.407  16.844  0.00  0.00    +0.000 C 
ATOM      4  N   UNL     1       5.738   4.068  17.780  0.00  0.00    +0.000 NA
ATOM      5  C   UNL     1       5.382   5.222  18.625  0.00  0.00    +0.000 C 
ATOM      6  C   UNL     1       6.580   5.776  19.402  0.00  0.00    +0.000 C 
ENDROOT
BRANCH   1  10
ATOM      7  O   UNL     1       7.372   9.442  17.147  0.00  0.00    +0.000 OA
ATOM      8  C   UNL     1       7.880   8.607  17.886  0.00  0.00    +0.000 C 
ATOM      9  N   UNL     1       8.803   8.834  18.867  0.00  0.00    +0.000 N 
ATOM     10  N   UNL     1       7.508   7.309  17.698  0.00  0.00    +0.000 N 
ATOM     11  H   UNL     1       9.264   8.026  19.247  0.00  0.00    +0.000 HD
ATOM     12  H   UNL     1       6.778   7.264  16.996  0.00  0.00    +0.000 HD
BRANCH   9  13
ATOM     13  C   UNL     1       9.361  10.084  19.220  0.00  0.00    +0.000 A 
ATOM     14  C   UNL     1       9.332  10.602  20.517  0.00  0.00    +0.000 A 
ATOM     15  C   UNL     1       9.840  11.876  20.789  0.00  0.00    +0.000 A 
ATOM     16  C   UNL     1      10.386  12.642  19.763  0.00  0.00    +0.000 A 
ATOM     17  C   UNL     1      10.448  12.117  18.475  0.00  0.00    +0.000 A 
ATOM     18 CL   UNL     1      11.118  13.063  17.202  0.00  0.00    +0.000 Cl
ATOM     19  C   UNL     1       9.954  10.840  18.202  0.00  0.00    +0.000 A 
ENDBRANCH   9  13
ENDBRANCH   1  10
BRANCH   4  20
ATOM     20  C   UNL     1       4.534   3.597  17.055  0.00  0.00    +0.000 C 
BRANCH  20  21
ATOM     21  C   UNL     1       3.362   3.223  17.962  0.00  0.00    +0.000 C 
ATOM     22  C   UNL     1       2.173   3.840  17.789  0.00  0.00    +0.000 C 
ATOM     23  C   UNL     1       0.827   3.665  18.447  0.00  0.00    +0.000 C 
ATOM     24  C   UNL     1       0.586   2.493  19.395  0.00  0.00    +0.000 C 
ATOM     25  C   UNL     1       1.112   2.683  20.818  0.00  0.00    +0.000 C 
ATOM     26  C   UNL     1       2.477   3.345  20.973  0.00  0.00    +0.000 C 
ATOM     27  C   UNL     1       3.660   2.537  20.446  0.00  0.00    +0.000 C 
ATOM     28  C   UNL     1       3.653   2.133  18.969  0.00  0.00    +0.000 C 
ENDBRANCH  20  21
ENDBRANCH   4  20
TORSDOF 4
ENDMDL
MODEL 2
REMARK VINA RESULT:      -8.2      1.142      1.467
REMARK  Name = 
REMARK  4 active torsions:
REMARK  status: ('A' for Active; 'I' for Inactive)
REMARK    1  A    between atoms: N_3  and  C_4
REMARK    2  A    between atoms: N_11  and  C_12
REMARK    3  A    between atoms: N_15  and  C_16
REMARK    4  A    between atoms: C_16  and  C_17
REMARK                            x       y       z     vdW  Elec       q    Type
REMARK                         _______ _______ _______ _____ _____    ______ ____
ROOT
ATOM      1  C   UNL     1       7.798   6.132  18.525  0.00  0.00    +0.000 C 
ATOM      2  C   UNL     1       8.109   4.947  17.612  0.00  0.00    +0.000 C 
ATOM      3  C   UNL     1       6.875   4.457  16.855  0.00  0.00    +0.000 C 
ATOM      4  N   UNL     1       5.772   4.123  17.768  0.00  0.00    +0.000 NA
ATOM      5  C   UNL     1       5.411   5.276  18.614  0.00  0.00    +0.000 C 
ATOM      6  C   UNL     1       6.600   5.813  19.417  0.00  0.00    +0.000 C 
ENDROOT
BRANCH   1  10
ATOM      7  O   UNL     1       7.470   9.484  17.200  0.00  0.00    +0.000 OA
ATOM      8  C   UNL     1       7.957   8.639  17.943  0.00  0.00    +0.000 C 
ATOM      9  N   UNL     1       8.865   8.852  18.941  0.00  0.00    +0.000 N 
ATOM     10  N   UNL     1       7.574   7.347  17.741  0.00  0.00    +0.000 N 
ATOM     11  H   UNL     1       9.310   8.037  19.324  0.00  0.00    +0.000 HD
ATOM     12  H   UNL     1       6.857   7.314  17.025  0.00  0.00    +0.000 HD
BRANCH   9  13
ATOM     13  C   UNL     1       9.429  10.093  19.311  0.00  0.00    +0.000 A 
ATOM     14  C   UNL     1      10.358  10.782  18.527  0.00  0.00    +0.000 A 
ATOM     15  C   UNL     1      10.933  11.973  18.981  0.00  0.00    +0.000 A 
ATOM     16  C   UNL     1      10.579  12.488  20.225  0.00  0.00    +0.000 A 
ATOM     17  C   UNL     1       9.629  11.823  20.995  0.00  0.00    +0.000 A 
ATOM     18 CL   UNL     1       9.191  12.453  22.537  0.00  0.00    +0.000 Cl
ATOM     19  C   UNL     1       9.042  10.640  20.540  0.00  0.00    +0.000 A 
ENDBRANCH   9  13
ENDBRANCH   1  10
BRANCH   4  20
ATOM     20  C   UNL     1       4.577   3.669  17.018  0.00  0.00    +0.000 C 
BRANCH  20  21
ATOM     21  C   UNL     1       3.396   3.272  17.902  0.00  0.00    +0.000 C 
ATOM     22  C   UNL     1       2.209   3.897  17.734  0.00  0.00    +0.000 C 
ATOM     23  C   UNL     1       0.856   3.706  18.373  0.00  0.00    +0.000 C 
ATOM     24  C   UNL     1       0.603   2.509  19.286  0.00  0.00    +0.000 C 
ATOM     25  C   UNL     1       1.114   2.658  20.718  0.00  0.00    +0.000 C 
ATOM     26  C   UNL     1       2.479   3.311  20.906  0.00  0.00    +0.000 C 
ATOM     27  C   UNL     1       3.665   2.516  20.370  0.00  0.00    +0.000 C 
ATOM     28  C   UNL     1       3.673   2.154  18.882  0.00  0.00    +0.000 C 
ENDBRANCH  20  21
ENDBRANCH   4  20
TORSDOF 4
ENDMDL
MODEL 3
REMARK VINA RESULT:      -7.7      6.602      7.215
REMARK  Name = 
REMARK  4 active torsions:
REMARK  status: ('A' for Active; 'I' for Inactive)
REMARK    1  A    between atoms: N_3  and  C_4
REMARK    2  A    between atoms: N_11  and  C_12
REMARK    3  A    between atoms: N_15  and  C_16
REMARK    4  A    between atoms: C_16  and  C_17
REMARK                            x       y       z     vdW  Elec       q    Type
REMARK                         _______ _______ _______ _____ _____    ______ ____
ROOT
ATOM      1  C   UNL     1       0.143  10.745  20.131  0.00  0.00    +0.000 C 
ATOM      2  C   UNL     1      -0.228   9.544  21.000  0.00  0.00    +0.000 C 
ATOM      3  C   UNL     1       0.905   8.524  21.097  0.00  0.00    +0.000 C 
ATOM      4  N   UNL     1       1.351   8.075  19.769  0.00  0.00    +0.000 NA
ATOM      5  C   UNL     1       1.778   9.214  18.937  0.00  0.00    +0.000 C 
ATOM      6  C   UNL     1       0.683  10.274  18.781  0.00  0.00    +0.000 C 
ENDROOT
BRANCH   1  10
ATOM      7  O   UNL     1       2.639  13.156  21.159  0.00  0.00    +0.000 OA
ATOM      8  C   UNL     1       1.750  12.741  20.425  0.00  0.00    +0.000 C 
ATOM      9  N   UNL     1       1.319  13.307  19.259  0.00  0.00    +0.000 N 
ATOM     10  N   UNL     1       1.103  11.608  20.820  0.00  0.00    +0.000 N 
ATOM     11  H   UNL     1       0.457  12.957  18.881  0.00  0.00    +0.000 HD
ATOM     12  H   UNL     1       1.543  11.241  21.657  0.00  0.00    +0.000 HD
BRANCH   9  13
ATOM     13  C   UNL     1       1.812  14.493  18.671  0.00  0.00    +0.000 A 
ATOM     14  C   UNL     1       2.991  14.550  17.922  0.00  0.00    +0.000 A 
ATOM     15  C   UNL     1       3.463  15.768  17.425  0.00  0.00    +0.000 A 
ATOM     16  C   UNL     1       2.756  16.942  17.669  0.00  0.00    +0.000 A 
ATOM     17  C   UNL     1       1.564  16.886  18.385  0.00  0.00    +0.000 A 
ATOM     18 CL   UNL     1       0.688  18.336  18.694  0.00  0.00    +0.000 Cl
ATOM     19  C   UNL     1       1.081  15.670  18.873  0.00  0.00    +0.000 A 
ENDBRANCH   9  13
ENDBRANCH   1  10
BRANCH   4  20
ATOM     20  C   UNL     1       2.463   7.102  19.881  0.00  0.00    +0.000 C 
BRANCH  20  21
ATOM     21  C   UNL     1       2.074   5.664  19.541  0.00  0.00    +0.000 C 
ATOM     22  C   UNL     1       1.666   4.841  20.531  0.00  0.00    +0.000 C 
ATOM     23  C   UNL     1       1.156   3.422  20.533  0.00  0.00    +0.000 C 
ATOM     24  C   UNL     1       0.845   2.718  19.214  0.00  0.00    +0.000 C 
ATOM     25  C   UNL     1       2.054   2.146  18.476  0.00  0.00    +0.000 C 
ATOM     26  C   UNL     1       3.320   2.996  18.450  0.00  0.00    +0.000 C 
ATOM     27  C   UNL     1       3.220   4.296  17.658  0.00  0.00    +0.000 C 
ATOM     28  C   UNL     1       2.149   5.309  18.073  0.00  0.00    +0.000 C 
ENDBRANCH  20  21
ENDBRANCH   4  20
TORSDOF 4
ENDMDL
MODEL 4
REMARK VINA RESULT:      -7.7      6.937      7.510
REMARK  Name = 
REMARK  4 active torsions:
REMARK  status: ('A' for Active; 'I' for Inactive)
REMARK    1  A    between atoms: N_3  and  C_4
REMARK    2  A    between atoms: N_11  and  C_12
REMARK    3  A    between atoms: N_15  and  C_16
REMARK    4  A    between atoms: C_16  and  C_17
REMARK                            x       y       z     vdW  Elec       q    Type
REMARK                         _______ _______ _______ _____ _____    ______ ____
ROOT
ATOM      1  C   UNL     1       0.058  10.464  20.396  0.00  0.00    +0.000 C 
ATOM      2  C   UNL     1      -0.103   9.240  21.296  0.00  0.00    +0.000 C 
ATOM      3  C   UNL     1       1.087   8.287  21.202  0.00  0.00    +0.000 C 
ATOM      4  N   UNL     1       1.343   7.870  19.814  0.00  0.00    +0.000 NA
ATOM      5  C   UNL     1       1.568   9.035  18.940  0.00  0.00    +0.000 C 
ATOM      6  C   UNL     1       0.405  10.030  18.972  0.00  0.00    +0.000 C 
ENDROOT
BRANCH   1  10
ATOM      7  O   UNL     1       2.374  13.142  21.146  0.00  0.00    +0.000 OA
ATOM      8  C   UNL     1       1.352  12.680  20.654  0.00  0.00    +0.000 C 
ATOM      9  N   UNL     1       0.451  13.340  19.867  0.00  0.00    +0.000 N 
ATOM     10  N   UNL     1       1.064  11.378  20.937  0.00  0.00    +0.000 N 
ATOM     11  H   UNL     1      -0.429  12.880  19.708  0.00  0.00    +0.000 HD
ATOM     12  H   UNL     1       1.825  10.971  21.470  0.00  0.00    +0.000 HD
BRANCH   9  13
ATOM     13  C   UNL     1       0.519  14.694  19.469  0.00  0.00    +0.000 A 
ATOM     14  C   UNL     1      -0.463  15.638  19.778  0.00  0.00    +0.000 A 
ATOM     15  C   UNL     1      -0.372  16.948  19.296  0.00  0.00    +0.000 A 
ATOM     16  C   UNL     1       0.707  17.324  18.502  0.00  0.00    +0.000 A 
ATOM     17  C   UNL     1       1.705  16.397  18.218  0.00  0.00    +0.000 A 
ATOM     18 CL   UNL     1       3.039  16.856  17.232  0.00  0.00    +0.000 Cl
ATOM     19  C   UNL     1       1.625  15.091  18.709  0.00  0.00    +0.000 A 
ENDBRANCH   9  13
ENDBRANCH   1  10
BRANCH   4  20
ATOM     20  C   UNL     1       2.512   6.962  19.738  0.00  0.00    +0.000 C 
BRANCH  20  21
ATOM     21  C   UNL     1       2.165   5.526  19.347  0.00  0.00    +0.000 C 
ATOM     22  C   UNL     1       1.627   4.704  20.273  0.00  0.00    +0.000 C 
ATOM     23  C   UNL     1       1.116   3.286  20.206  0.00  0.00    +0.000 C 
ATOM     24  C   UNL     1       0.979   2.586  18.856  0.00  0.00    +0.000 C 
ATOM     25  C   UNL     1       2.273   2.009  18.283  0.00  0.00    +0.000 C 
ATOM     26  C   UNL     1       3.535   2.854  18.426  0.00  0.00    +0.000 C 
ATOM     27  C   UNL     1       3.545   4.155  17.630  0.00  0.00    +0.000 C 
ATOM     28  C   UNL     1       2.433   5.172  17.901  0.00  0.00    +0.000 C 
ENDBRANCH  20  21
ENDBRANCH   4  20
TORSDOF 4
ENDMDL
MODEL 5
REMARK VINA RESULT:      -7.6      0.513      1.481
REMARK  Name = 
REMARK  4 active torsions:
REMARK  status: ('A' for Active; 'I' for Inactive)
REMARK    1  A    between atoms: N_3  and  C_4
REMARK    2  A    between atoms: N_11  and  C_12
REMARK    3  A    between atoms: N_15  and  C_16
REMARK    4  A    between atoms: C_16  and  C_17
REMARK                            x       y       z     vdW  Elec       q    Type
REMARK                         _______ _______ _______ _____ _____    ______ ____
ROOT
ATOM      1  C   UNL     1       8.103   6.135  18.600  0.00  0.00    +0.000 C 
ATOM      2  C   UNL     1       8.298   4.919  17.696  0.00  0.00    +0.000 C 
ATOM      3  C   UNL     1       6.976   4.390  17.141  0.00  0.00    +0.000 C 
ATOM      4  N   UNL     1       6.018   4.081  18.213  0.00  0.00    +0.000 NA
ATOM      5  C   UNL     1       5.764   5.262  19.058  0.00  0.00    +0.000 C 
ATOM      6  C   UNL     1       7.047   5.840  19.664  0.00  0.00    +0.000 C 
ENDROOT
BRANCH   1  10
ATOM      7  O   UNL     1       7.457   9.431  17.252  0.00  0.00    +0.000 OA
ATOM      8  C   UNL     1       8.036   8.639  17.985  0.00  0.00    +0.000 C 
ATOM      9  N   UNL     1       8.958   8.938  18.948  0.00  0.00    +0.000 N 
ATOM     10  N   UNL     1       7.753   7.318  17.811  0.00  0.00    +0.000 N 
ATOM     11  H   UNL     1       9.482   8.167  19.324  0.00  0.00    +0.000 HD
ATOM     12  H   UNL     1       7.016   7.216  17.123  0.00  0.00    +0.000 HD
BRANCH   9  13
ATOM     13  C   UNL     1       9.432  10.226  19.284  0.00  0.00    +0.000 A 
ATOM     14  C   UNL     1       9.330  10.775  20.565  0.00  0.00    +0.000 A 
ATOM     15  C   UNL     1       9.756  12.082  20.817  0.00  0.00    +0.000 A 
ATOM     16  C   UNL     1      10.293  12.852  19.789  0.00  0.00    +0.000 A 
ATOM     17  C   UNL     1      10.427  12.298  18.519  0.00  0.00    +0.000 A 
ATOM     18 CL   UNL     1      11.086  13.247  17.242  0.00  0.00    +0.000 Cl
ATOM     19  C   UNL     1      10.016  10.988  18.265  0.00  0.00    +0.000 A 
ENDBRANCH   9  13
ENDBRANCH   1  10
BRANCH   4  20
ATOM     20  C   UNL     1       4.736   3.588  17.657  0.00  0.00    +0.000 C 
BRANCH  20  21
ATOM     21  C   UNL     1       3.600   3.511  18.675  0.00  0.00    +0.000 C 
ATOM     22  C   UNL     1       3.752   2.741  19.775  0.00  0.00    +0.000 C 
ATOM     23  C   UNL     1       2.881   2.501  20.982  0.00  0.00    +0.000 C 
ATOM     24  C   UNL     1       1.630   3.350  21.203  0.00  0.00    +0.000 C 
ATOM     25  C   UNL     1       0.403   2.930  20.395  0.00  0.00    +0.000 C 
ATOM     26  C   UNL     1       0.632   2.517  18.944  0.00  0.00    +0.000 C 
ATOM     27  C   UNL     1       1.094   3.633  18.011  0.00  0.00    +0.000 C 
ATOM     28  C   UNL     1       2.394   4.366  18.357  0.00  0.00    +0.000 C 
ENDBRANCH  20  21
ENDBRANCH   4  20
TORSDOF 4
ENDMDL
MODEL 6
REMARK VINA RESULT:      -7.4      6.551      7.106
REMARK  Name = 
REMARK  4 active torsions:
REMARK  status: ('A' for Active; 'I' for Inactive)
REMARK    1  A    between atoms: N_3  and  C_4
REMARK    2  A    between atoms: N_11  and  C_12
REMARK    3  A    between atoms: N_15  and  C_16
REMARK    4  A    between atoms: C_16  and  C_17
REMARK                            x       y       z     vdW  Elec       q    Type
REMARK                         _______ _______ _______ _____ _____    ______ ____
ROOT
ATOM      1  C   UNL     1       0.222  10.626  20.061  0.00  0.00    +0.000 C 
ATOM      2  C   UNL     1      -0.127   9.406  20.913  0.00  0.00    +0.000 C 
ATOM      3  C   UNL     1       1.050   8.442  21.056  0.00  0.00    +0.000 C 
ATOM      4  N   UNL     1       1.570   8.018  19.747  0.00  0.00    +0.000 NA
ATOM      5  C   UNL     1       1.975   9.178  18.932  0.00  0.00    +0.000 C 
ATOM      6  C   UNL     1       0.837  10.185  18.734  0.00  0.00    +0.000 C 
ENDROOT
BRANCH   1  10
ATOM      7  O   UNL     1       2.566  13.141  21.189  0.00  0.00    +0.000 OA
ATOM      8  C   UNL     1       1.733  12.685  20.414  0.00  0.00    +0.000 C 
ATOM      9  N   UNL     1       1.343  13.223  19.221  0.00  0.00    +0.000 N 
ATOM     10  N   UNL     1       1.110  11.532  20.789  0.00  0.00    +0.000 N 
ATOM     11  H   UNL     1       0.515  12.836  18.803  0.00  0.00    +0.000 HD
ATOM     12  H   UNL     1       1.519  11.190  21.651  0.00  0.00    +0.000 HD
BRANCH   9  13
ATOM     13  C   UNL     1       1.820  14.421  18.645  0.00  0.00    +0.000 A 
ATOM     14  C   UNL     1       3.008  14.505  17.914  0.00  0.00    +0.000 A 
ATOM     15  C   UNL     1       3.463  15.735  17.428  0.00  0.00    +0.000 A 
ATOM     16  C   UNL     1       2.728  16.893  17.668  0.00  0.00    +0.000 A 
ATOM     17  C   UNL     1       1.528  16.810  18.366  0.00  0.00    +0.000 A 
ATOM     18 CL   UNL     1       0.618  18.241  18.669  0.00  0.00    +0.000 Cl
ATOM     19  C   UNL     1       1.063  15.582  18.842  0.00  0.00    +0.000 A 
ENDBRANCH   9  13
ENDBRANCH   1  10
BRANCH   4  20
ATOM     20  C   UNL     1       2.722   7.099  19.902  0.00  0.00    +0.000 C 
BRANCH  20  21
ATOM     21  C   UNL     1       2.449   5.669  19.438  0.00  0.00    +0.000 C 
ATOM     22  C   UNL     1       1.951   5.463  18.199  0.00  0.00    +0.000 C 
ATOM     23  C   UNL     1       1.640   4.211  17.419  0.00  0.00    +0.000 C 
ATOM     24  C   UNL     1       2.071   2.848  17.957  0.00  0.00    +0.000 C 
ATOM     25  C   UNL     1       1.162   2.250  19.030  0.00  0.00    +0.000 C 
ATOM     26  C   UNL     1       0.621   3.201  20.092  0.00  0.00    +0.000 C 
ATOM     27  C   UNL     1       1.663   3.785  21.040  0.00  0.00    +0.000 C 
ATOM     28  C   UNL     1       2.816   4.590  20.431  0.00  0.00    +0.000 C 
ENDBRANCH  20  21
ENDBRANCH   4  20
TORSDOF 4
ENDMDL
MODEL 7
REMARK VINA RESULT:      -7.4      7.473      7.966
REMARK  Name = 
REMARK  4 active torsions:
REMARK  status: ('A' for Active; 'I' for Inactive)
REMARK    1  A    between atoms: N_3  and  C_4
REMARK    2  A    between atoms: N_11  and  C_12
REMARK    3  A    between atoms: N_15  and  C_16
REMARK    4  A    between atoms: C_16  and  C_17
REMARK                            x       y       z     vdW  Elec       q    Type
REMARK                         _______ _______ _______ _____ _____    ______ ____
ROOT
ATOM      1  C   UNL     1       0.346  10.345  19.188  0.00  0.00    +0.000 C 
ATOM      2  C   UNL     1       0.240   9.337  20.332  0.00  0.00    +0.000 C 
ATOM      3  C   UNL     1       1.484   8.458  20.450  0.00  0.00    +0.000 C 
ATOM      4  N   UNL     1       1.785   7.767  19.187  0.00  0.00    +0.000 NA
ATOM      5  C   UNL     1       1.958   8.727  18.081  0.00  0.00    +0.000 C 
ATOM      6  C   UNL     1       0.739   9.635  17.894  0.00  0.00    +0.000 C 
ENDROOT
BRANCH   1  10
ATOM      7  O   UNL     1       2.154  13.430  19.742  0.00  0.00    +0.000 OA
ATOM      8  C   UNL     1       1.135  12.763  19.613  0.00  0.00    +0.000 C 
ATOM      9  N   UNL     1      -0.149  13.228  19.573  0.00  0.00    +0.000 N 
ATOM     10  N   UNL     1       1.290  11.412  19.522  0.00  0.00    +0.000 N 
ATOM     11  H   UNL     1      -0.879  12.542  19.660  0.00  0.00    +0.000 HD
ATOM     12  H   UNL     1       2.277  11.185  19.498  0.00  0.00    +0.000 HD
BRANCH   9  13
ATOM     13  C   UNL     1      -0.556  14.577  19.681  0.00  0.00    +0.000 A 
ATOM     14  C   UNL     1      -1.281  15.079  20.765  0.00  0.00    +0.000 A 
ATOM     15  C   UNL     1      -1.714  16.408  20.780  0.00  0.00    +0.000 A 
ATOM     16  C   UNL     1      -1.422  17.248  19.709  0.00  0.00    +0.000 A 
ATOM     17  C   UNL     1      -0.673  16.763  18.642  0.00  0.00    +0.000 A 
ATOM     18 CL   UNL     1      -0.313  17.797  17.313  0.00  0.00    +0.000 Cl
ATOM     19  C   UNL     1      -0.226  15.439  18.629  0.00  0.00    +0.000 A 
ENDBRANCH   9  13
ENDBRANCH   1  10
BRANCH   4  20
ATOM     20  C   UNL     1       3.005   6.934  19.312  0.00  0.00    +0.000 C 
BRANCH  20  21
ATOM     21  C   UNL     1       2.764   5.437  19.121  0.00  0.00    +0.000 C 
ATOM     22  C   UNL     1       2.586   4.954  17.872  0.00  0.00    +0.000 C 
ATOM     23  C   UNL     1       2.400   3.557  17.335  0.00  0.00    +0.000 C 
ATOM     24  C   UNL     1       2.586   2.353  18.255  0.00  0.00    +0.000 C 
ATOM     25  C   UNL     1       1.395   2.026  19.155  0.00  0.00    +0.000 C 
ATOM     26  C   UNL     1       0.666   3.201  19.799  0.00  0.00    +0.000 C 
ATOM     27  C   UNL     1       1.469   3.982  20.834  0.00  0.00    +0.000 C 
ATOM     28  C   UNL     1       2.791   4.615  20.390  0.00  0.00    +0.000 C 
ENDBRANCH  20  21
ENDBRANCH   4  20
TORSDOF 4
ENDMDL
MODEL 8
REMARK VINA RESULT:      -7.4      1.277      2.100
REMARK  Name = 
REMARK  4 active torsions:
REMARK  status: ('A' for Active; 'I' for Inactive)
REMARK    1  A    between atoms: N_3  and  C_4
REMARK    2  A    between atoms: N_11  and  C_12
REMARK    3  A    between atoms: N_15  and  C_16
REMARK    4  A    between atoms: C_16  and  C_17
REMARK                            x       y       z     vdW  Elec       q    Type
REMARK                         _______ _______ _______ _____ _____    ______ ____
ROOT
ATOM      1  C   UNL     1       8.126   6.175  18.597  0.00  0.00    +0.000 C 
ATOM      2  C   UNL     1       8.295   5.003  17.632  0.00  0.00    +0.000 C 
ATOM      3  C   UNL     1       6.958   4.501  17.087  0.00  0.00    +0.000 C 
ATOM      4  N   UNL     1       6.028   4.142  18.168  0.00  0.00    +0.000 NA
ATOM      5  C   UNL     1       5.799   5.282  19.075  0.00  0.00    +0.000 C 
ATOM      6  C   UNL     1       7.098   5.830  19.673  0.00  0.00    +0.000 C 
ENDROOT
BRANCH   1  10
ATOM      7  O   UNL     1       7.459   9.532  17.420  0.00  0.00    +0.000 OA
ATOM      8  C   UNL     1       8.058   8.704  18.096  0.00  0.00    +0.000 C 
ATOM      9  N   UNL     1       9.018   8.953  19.036  0.00  0.00    +0.000 N 
ATOM     10  N   UNL     1       7.757   7.394  17.875  0.00  0.00    +0.000 N 
ATOM     11  H   UNL     1       9.548   8.163  19.358  0.00  0.00    +0.000 HD
ATOM     12  H   UNL     1       6.995   7.328  17.211  0.00  0.00    +0.000 HD
BRANCH   9  13
ATOM     13  C   UNL     1       9.515  10.222  19.411  0.00  0.00    +0.000 A 
ATOM     14  C   UNL     1      10.407  10.962  18.629  0.00  0.00    +0.000 A 
ATOM     15  C   UNL     1      10.917  12.180  19.088  0.00  0.00    +0.000 A 
ATOM     16  C   UNL     1      10.535  12.671  20.333  0.00  0.00    +0.000 A 
ATOM     17  C   UNL     1       9.621  11.955  21.101  0.00  0.00    +0.000 A 
ATOM     18 CL   UNL     1       9.149  12.556  22.644  0.00  0.00    +0.000 Cl
ATOM     19  C   UNL     1       9.099  10.744  20.641  0.00  0.00    +0.000 A 
ENDBRANCH   9  13
ENDBRANCH   1  10
BRANCH   4  20
ATOM     20  C   UNL     1       4.731   3.677  17.624  0.00  0.00    +0.000 C 
BRANCH  20  21
ATOM     21  C   UNL     1       3.609   3.598  18.658  0.00  0.00    +0.000 C 
ATOM     22  C   UNL     1       3.786   2.844  19.765  0.00  0.00    +0.000 C 
ATOM     23  C   UNL     1       2.934   2.607  20.986  0.00  0.00    +0.000 C 
ATOM     24  C   UNL     1       1.675   3.442  21.214  0.00  0.00    +0.000 C 
ATOM     25  C   UNL     1       0.443   2.997  20.427  0.00  0.00    +0.000 C 
ATOM     26  C   UNL     1       0.659   2.570  18.979  0.00  0.00    +0.000 C 
ATOM     27  C   UNL     1       1.094   3.680  18.027  0.00  0.00    +0.000 C 
ATOM     28  C   UNL     1       2.388   4.434  18.346  0.00  0.00    +0.000 C 
ENDBRANCH  20  21
ENDBRANCH   4  20
TORSDOF 4
ENDMDL
MODEL 9
REMARK VINA RESULT:      -7.4      7.491      8.020
REMARK  Name = 
REMARK  4 active torsions:
REMARK  status: ('A' for Active; 'I' for Inactive)
REMARK    1  A    between atoms: N_3  and  C_4
REMARK    2  A    between atoms: N_11  and  C_12
REMARK    3  A    between atoms: N_15  and  C_16
REMARK    4  A    between atoms: C_16  and  C_17
REMARK                            x       y       z     vdW  Elec       q    Type
REMARK                         _______ _______ _______ _____ _____    ______ ____
ROOT
ATOM      1  C   UNL     1       0.227  10.735  19.773  0.00  0.00    +0.000 C 
ATOM      2  C   UNL     1      -0.036   9.620  20.783  0.00  0.00    +0.000 C 
ATOM      3  C   UNL     1       1.109   8.611  20.846  0.00  0.00    +0.000 C 
ATOM      4  N   UNL     1       1.409   8.041  19.524  0.00  0.00    +0.000 NA
ATOM      5  C   UNL     1       1.732   9.099  18.549  0.00  0.00    +0.000 C 
ATOM      6  C   UNL     1       0.618  10.143  18.420  0.00  0.00    +0.000 C 
ENDROOT
BRANCH   1  10
ATOM      7  O   UNL     1       2.376  13.521  20.623  0.00  0.00    +0.000 OA
ATOM      8  C   UNL     1       1.305  13.017  20.304  0.00  0.00    +0.000 C 
ATOM      9  N   UNL     1       0.148  13.676  19.999  0.00  0.00    +0.000 N 
ATOM     10  N   UNL     1       1.250  11.656  20.270  0.00  0.00    +0.000 N 
ATOM     11  H   UNL     1      -0.687  13.120  19.950  0.00  0.00    +0.000 HD
ATOM     12  H   UNL     1       2.172  11.274  20.449  0.00  0.00    +0.000 HD
BRANCH   9  13
ATOM     13  C   UNL     1      -0.044  15.076  19.998  0.00  0.00    +0.000 A 
ATOM     14  C   UNL     1      -0.189  15.835  21.163  0.00  0.00    +0.000 A 
ATOM     15  C   UNL     1      -0.446  17.207  21.094  0.00  0.00    +0.000 A 
ATOM     16  C   UNL     1      -0.557  17.834  19.856  0.00  0.00    +0.000 A 
ATOM     17  C   UNL     1      -0.380  17.090  18.693  0.00  0.00    +0.000 A 
ATOM     18 CL   UNL     1      -0.521  17.860  17.160  0.00  0.00    +0.000 Cl
ATOM     19  C   UNL     1      -0.110  15.721  18.757  0.00  0.00    +0.000 A 
ENDBRANCH   9  13
ENDBRANCH   1  10
BRANCH   4  20
ATOM     20  C   UNL     1       2.534   7.080  19.599  0.00  0.00    +0.000 C 
BRANCH  20  21
ATOM     21  C   UNL     1       2.131   5.624  19.372  0.00  0.00    +0.000 C 
ATOM     22  C   UNL     1       1.702   4.889  20.420  0.00  0.00    +0.000 C 
ATOM     23  C   UNL     1       1.175   3.480  20.532  0.00  0.00    +0.000 C 
ATOM     24  C   UNL     1       0.869   2.676  19.270  0.00  0.00    +0.000 C 
ATOM     25  C   UNL     1       2.079   2.031  18.595  0.00  0.00    +0.000 C 
ATOM     26  C   UNL     1       3.356   2.862  18.515  0.00  0.00    +0.000 C 
ATOM     27  C   UNL     1       3.281   4.094  17.619  0.00  0.00    +0.000 C 
ATOM     28  C   UNL     1       2.218   5.150  17.938  0.00  0.00    +0.000 C 
ENDBRANCH  20  21
ENDBRANCH   4  20
TORSDOF 4
ENDMDL
