MODEL 1
REMARK VINA RESULT:      -7.6      0.000      0.000
REMARK  Name = 
REMARK  7 active torsions:
REMARK  status: ('A' for Active; 'I' for Inactive)
REMARK    1  A    between atoms: C_1  and  O_2
REMARK    2  A    between atoms: O_2  and  C_3
REMARK    3  A    between atoms: C_9  and  C_10
REMARK    4  A    between atoms: C_10  and  C_12
REMARK    5  A    between atoms: C_12  and  N_13
REMARK    6  A    between atoms: C_23  and  C_24
REMARK    7  A    between atoms: N_25  and  C_26
REMARK                            x       y       z     vdW  Elec       q    Type
REMARK                         _______ _______ _______ _____ _____    ______ ____
ROOT
ATOM      1  C   UNL     1       5.799   6.290  16.843  0.00  0.00    +0.000 A 
ATOM      2  C   UNL     1       5.908   5.003  16.332  0.00  0.00    +0.000 A 
ATOM      3  C   UNL     1       4.982   4.010  16.675  0.00  0.00    +0.000 A 
ATOM      4  C   UNL     1       3.936   4.343  17.556  0.00  0.00    +0.000 A 
ATOM      5  C   UNL     1       3.796   5.618  18.092  0.00  0.00    +0.000 A 
ATOM      6  C   UNL     1       4.754   6.596  17.721  0.00  0.00    +0.000 A 
ATOM      7  C   UNL     1       2.636   5.622  18.956  0.00  0.00    +0.000 A 
ATOM      8  C   UNL     1       2.112   4.325  18.921  0.00  0.00    +0.000 A 
ATOM      9  C   UNL     1       0.946   3.678  19.597  0.00  0.00    +0.000 C 
ATOM     10  N   UNL     1       2.913   3.577  18.067  0.00  0.00    +0.000 N 
ATOM     11  C   UNL     1       2.757   2.174  17.738  0.00  0.00    +0.000 C 
ENDROOT
BRANCH   1  13
ATOM     12  C   UNL     1       7.637   7.570  17.613  0.00  0.00    +0.000 C 
ATOM     13  O   UNL     1       6.670   7.318  16.602  0.00  0.00    +0.000 OA
ENDBRANCH   1  13
BRANCH   7  14
ATOM     14  C   UNL     1       2.189   6.832  19.688  0.00  0.00    +0.000 C 
ATOM     15  O   UNL     1       1.910   6.731  20.884  0.00  0.00    +0.000 OA
BRANCH  14  16
ATOM     16  C   UNL     1       2.077   8.188  18.968  0.00  0.00    +0.000 C 
BRANCH  16  17
ATOM     17  N   UNL     1       0.859   9.002  19.258  0.00  0.00    +0.000 NA
ATOM     18  C   UNL     1       1.057   9.913  20.397  0.00  0.00    +0.000 C 
ATOM     19  C   UNL     1      -0.201  10.718  20.714  0.00  0.00    +0.000 C 
ATOM     20  C   UNL     1      -0.659  11.488  19.479  0.00  0.00    +0.000 C 
ATOM     21  C   UNL     1      -0.897  10.509  18.335  0.00  0.00    +0.000 C 
ATOM     22  C   UNL     1       0.362   9.689  18.056  0.00  0.00    +0.000 C 
ATOM     23  O   UNL     1       0.356  12.442  19.111  0.00  0.00    +0.000 OA
ATOM     24  C   UNL     1      -0.337  13.662  18.888  0.00  0.00    +0.000 C 
ATOM     25  C   UNL     1      -1.500  13.568  19.835  0.00  0.00    +0.000 C 
ATOM     26  O   UNL     1      -1.882  12.193  19.763  0.00  0.00    +0.000 OA
ENDBRANCH  16  17
ENDBRANCH  14  16
ENDBRANCH   7  14
TORSDOF 4
ENDMDL
MODEL 2
REMARK VINA RESULT:      -7.5      1.430      1.532
REMARK  Name = 
REMARK  7 active torsions:
REMARK  status: ('A' for Active; 'I' for Inactive)
REMARK    1  A    between atoms: C_1  and  O_2
REMARK    2  A    between atoms: O_2  and  C_3
REMARK    3  A    between atoms: C_9  and  C_10
REMARK    4  A    between atoms: C_10  and  C_12
REMARK    5  A    between atoms: C_12  and  N_13
REMARK    6  A    between atoms: C_23  and  C_24
REMARK    7  A    between atoms: N_25  and  C_26
REMARK                            x       y       z     vdW  Elec       q    Type
REMARK                         _______ _______ _______ _____ _____    ______ ____
ROOT
ATOM      1  C   UNL     1       6.717   6.179  16.784  0.00  0.00    +0.000 A 
ATOM      2  C   UNL     1       6.903   4.827  16.525  0.00  0.00    +0.000 A 
ATOM      3  C   UNL     1       5.894   3.894  16.797  0.00  0.00    +0.000 A 
ATOM      4  C   UNL     1       4.683   4.357  17.346  0.00  0.00    +0.000 A 
ATOM      5  C   UNL     1       4.461   5.700  17.625  0.00  0.00    +0.000 A 
ATOM      6  C   UNL     1       5.507   6.614  17.335  0.00  0.00    +0.000 A 
ATOM      7  C   UNL     1       3.134   5.835  18.183  0.00  0.00    +0.000 A 
ATOM      8  C   UNL     1       2.594   4.544  18.236  0.00  0.00    +0.000 A 
ATOM      9  C   UNL     1       1.285   4.006  18.716  0.00  0.00    +0.000 C 
ATOM     10  N   UNL     1       3.548   3.675  17.722  0.00  0.00    +0.000 N 
ATOM     11  C   UNL     1       3.431   2.235  17.594  0.00  0.00    +0.000 C 
ENDROOT
BRANCH   1  13
ATOM     12  C   UNL     1       7.789   8.108  17.642  0.00  0.00    +0.000 C 
ATOM     13  O   UNL     1       7.650   7.161  16.591  0.00  0.00    +0.000 OA
ENDBRANCH   1  13
BRANCH   7  14
ATOM     14  C   UNL     1       2.566   7.144  18.589  0.00  0.00    +0.000 C 
ATOM     15  O   UNL     1       2.362   7.995  17.722  0.00  0.00    +0.000 OA
BRANCH  14  16
ATOM     16  C   UNL     1       2.238   7.432  20.065  0.00  0.00    +0.000 C 
BRANCH  16  17
ATOM     17  N   UNL     1       1.100   8.364  20.327  0.00  0.00    +0.000 NA
ATOM     18  C   UNL     1       1.065   8.817  21.728  0.00  0.00    +0.000 C 
ATOM     19  C   UNL     1      -0.120   9.741  22.002  0.00  0.00    +0.000 C 
ATOM     20  C   UNL     1      -0.090  10.932  21.049  0.00  0.00    +0.000 C 
ATOM     21  C   UNL     1      -0.100  10.427  19.611  0.00  0.00    +0.000 C 
ATOM     22  C   UNL     1       1.072   9.477  19.365  0.00  0.00    +0.000 C 
ATOM     23  O   UNL     1       1.099  11.707  21.294  0.00  0.00    +0.000 OA
ATOM     24  C   UNL     1       0.662  13.057  21.360  0.00  0.00    +0.000 C 
ATOM     25  C   UNL     1      -0.731  12.935  21.909  0.00  0.00    +0.000 C 
ATOM     26  O   UNL     1      -1.244  11.766  21.266  0.00  0.00    +0.000 OA
ENDBRANCH  16  17
ENDBRANCH  14  16
ENDBRANCH   7  14
TORSDOF 4
ENDMDL
MODEL 3
REMARK VINA RESULT:      -7.5      1.742      1.924
REMARK  Name = 
REMARK  7 active torsions:
REMARK  status: ('A' for Active; 'I' for Inactive)
REMARK    1  A    between atoms: C_1  and  O_2
REMARK    2  A    between atoms: O_2  and  C_3
REMARK    3  A    between atoms: C_9  and  C_10
REMARK    4  A    between atoms: C_10  and  C_12
REMARK    5  A    between atoms: C_12  and  N_13
REMARK    6  A    between atoms: C_23  and  C_24
REMARK    7  A    between atoms: N_25  and  C_26
REMARK                            x       y       z     vdW  Elec       q    Type
REMARK                         _______ _______ _______ _____ _____    ______ ____
ROOT
ATOM      1  C   UNL     1       5.296   5.167  16.121  0.00  0.00    +0.000 A 
ATOM      2  C   UNL     1       5.291   3.783  16.242  0.00  0.00    +0.000 A 
ATOM      3  C   UNL     1       4.411   3.139  17.121  0.00  0.00    +0.000 A 
ATOM      4  C   UNL     1       3.532   3.927  17.887  0.00  0.00    +0.000 A 
ATOM      5  C   UNL     1       3.510   5.313  17.798  0.00  0.00    +0.000 A 
ATOM      6  C   UNL     1       4.416   5.929  16.897  0.00  0.00    +0.000 A 
ATOM      7  C   UNL     1       2.508   5.812  18.714  0.00  0.00    +0.000 A 
ATOM      8  C   UNL     1       1.956   4.690  19.344  0.00  0.00    +0.000 A 
ATOM      9  C   UNL     1       0.902   4.526  20.391  0.00  0.00    +0.000 C 
ATOM     10  N   UNL     1       2.589   3.569  18.824  0.00  0.00    +0.000 N 
ATOM     11  C   UNL     1       2.349   2.187  19.193  0.00  0.00    +0.000 C 
ENDROOT
BRANCH   1  13
ATOM     12  C   UNL     1       7.008   5.143  14.484  0.00  0.00    +0.000 C 
ATOM     13  O   UNL     1       6.139   5.892  15.324  0.00  0.00    +0.000 OA
ENDBRANCH   1  13
BRANCH   7  14
ATOM     14  C   UNL     1       2.215   7.257  18.869  0.00  0.00    +0.000 C 
ATOM     15  O   UNL     1       1.967   7.923  17.862  0.00  0.00    +0.000 OA
BRANCH  14  16
ATOM     16  C   UNL     1       2.218   7.913  20.261  0.00  0.00    +0.000 C 
BRANCH  16  17
ATOM     17  N   UNL     1       0.980   8.649  20.659  0.00  0.00    +0.000 NA
ATOM     18  C   UNL     1       1.000   9.044  22.077  0.00  0.00    +0.000 C 
ATOM     19  C   UNL     1      -0.283   9.764  22.488  0.00  0.00    +0.000 C 
ATOM     20  C   UNL     1      -0.517  10.976  21.592  0.00  0.00    +0.000 C 
ATOM     21  C   UNL     1      -0.576  10.523  20.138  0.00  0.00    +0.000 C 
ATOM     22  C   UNL     1       0.700   9.775  19.754  0.00  0.00    +0.000 C 
ATOM     23  O   UNL     1       0.558  11.917  21.775  0.00  0.00    +0.000 OA
ATOM     24  C   UNL     1      -0.071  13.180  21.939  0.00  0.00    +0.000 C 
ATOM     25  C   UNL     1      -1.376  12.826  22.593  0.00  0.00    +0.000 C 
ATOM     26  O   UNL     1      -1.760  11.614  21.941  0.00  0.00    +0.000 OA
ENDBRANCH  16  17
ENDBRANCH  14  16
ENDBRANCH   7  14
TORSDOF 4
ENDMDL
MODEL 4
REMARK VINA RESULT:      -7.4      1.038      1.102
REMARK  Name = 
REMARK  7 active torsions:
REMARK  status: ('A' for Active; 'I' for Inactive)
REMARK    1  A    between atoms: C_1  and  O_2
REMARK    2  A    between atoms: O_2  and  C_3
REMARK    3  A    between atoms: C_9  and  C_10
REMARK    4  A    between atoms: C_10  and  C_12
REMARK    5  A    between atoms: C_12  and  N_13
REMARK    6  A    between atoms: C_23  and  C_24
REMARK    7  A    between atoms: N_25  and  C_26
REMARK                            x       y       z     vdW  Elec       q    Type
REMARK                         _______ _______ _______ _____ _____    ______ ____
ROOT
ATOM      1  C   UNL     1       5.545   6.192  16.802  0.00  0.00    +0.000 A 
ATOM      2  C   UNL     1       5.613   4.929  16.226  0.00  0.00    +0.000 A 
ATOM      3  C   UNL     1       4.700   3.926  16.577  0.00  0.00    +0.000 A 
ATOM      4  C   UNL     1       3.711   4.223  17.532  0.00  0.00    +0.000 A 
ATOM      5  C   UNL     1       3.613   5.472  18.134  0.00  0.00    +0.000 A 
ATOM      6  C   UNL     1       4.555   6.461  17.754  0.00  0.00    +0.000 A 
ATOM      7  C   UNL     1       2.506   5.442  19.064  0.00  0.00    +0.000 A 
ATOM      8  C   UNL     1       1.970   4.150  19.000  0.00  0.00    +0.000 A 
ATOM      9  C   UNL     1       0.841   3.479  19.713  0.00  0.00    +0.000 C 
ATOM     10  N   UNL     1       2.713   3.439  18.067  0.00  0.00    +0.000 N 
ATOM     11  C   UNL     1       2.526   2.054  17.682  0.00  0.00    +0.000 C 
ENDROOT
BRANCH   1  13
ATOM     12  C   UNL     1       7.415   7.444  17.538  0.00  0.00    +0.000 C 
ATOM     13  O   UNL     1       6.408   7.225  16.558  0.00  0.00    +0.000 OA
ENDBRANCH   1  13
BRANCH   7  14
ATOM     14  C   UNL     1       2.113   6.619  19.878  0.00  0.00    +0.000 C 
ATOM     15  O   UNL     1       1.811   6.447  21.060  0.00  0.00    +0.000 OA
BRANCH  14  16
ATOM     16  C   UNL     1       2.084   8.027  19.257  0.00  0.00    +0.000 C 
BRANCH  16  17
ATOM     17  N   UNL     1       1.033   8.960  19.762  0.00  0.00    +0.000 NA
ATOM     18  C   UNL     1       1.199   9.262  21.193  0.00  0.00    +0.000 C 
ATOM     19  C   UNL     1       0.102  10.188  21.715  0.00  0.00    +0.000 C 
ATOM     20  C   UNL     1       0.061  11.471  20.892  0.00  0.00    +0.000 C 
ATOM     21  C   UNL     1      -0.157  11.123  19.425  0.00  0.00    +0.000 C 
ATOM     22  C   UNL     1       0.930  10.169  18.930  0.00  0.00    +0.000 C 
ATOM     23  O   UNL     1       1.306  12.179  21.054  0.00  0.00    +0.000 OA
ATOM     24  C   UNL     1       0.941  13.527  21.315  0.00  0.00    +0.000 C 
ATOM     25  C   UNL     1      -0.374  13.390  22.029  0.00  0.00    +0.000 C 
ATOM     26  O   UNL     1      -1.017  12.313  21.345  0.00  0.00    +0.000 OA
ENDBRANCH  16  17
ENDBRANCH  14  16
ENDBRANCH   7  14
TORSDOF 4
ENDMDL
MODEL 5
REMARK VINA RESULT:      -7.3      2.591      8.468
REMARK  Name = 
REMARK  7 active torsions:
REMARK  status: ('A' for Active; 'I' for Inactive)
REMARK    1  A    between atoms: C_1  and  O_2
REMARK    2  A    between atoms: O_2  and  C_3
REMARK    3  A    between atoms: C_9  and  C_10
REMARK    4  A    between atoms: C_10  and  C_12
REMARK    5  A    between atoms: C_12  and  N_13
REMARK    6  A    between atoms: C_23  and  C_24
REMARK    7  A    between atoms: N_25  and  C_26
REMARK                            x       y       z     vdW  Elec       q    Type
REMARK                         _______ _______ _______ _____ _____    ______ ____
ROOT
ATOM      1  C   UNL     1      -2.076  11.160  17.367  0.00  0.00    +0.000 A 
ATOM      2  C   UNL     1      -2.753  11.888  18.336  0.00  0.00    +0.000 A 
ATOM      3  C   UNL     1      -2.341  11.864  19.676  0.00  0.00    +0.000 A 
ATOM      4  C   UNL     1      -1.226  11.079  20.020  0.00  0.00    +0.000 A 
ATOM      5  C   UNL     1      -0.526  10.332  19.081  0.00  0.00    +0.000 A 
ATOM      6  C   UNL     1      -0.973  10.382  17.735  0.00  0.00    +0.000 A 
ATOM      7  C   UNL     1       0.549   9.641  19.758  0.00  0.00    +0.000 A 
ATOM      8  C   UNL     1       0.453   9.991  21.111  0.00  0.00    +0.000 A 
ATOM      9  C   UNL     1       1.243   9.608  22.321  0.00  0.00    +0.000 C 
ATOM     10  N   UNL     1      -0.622  10.861  21.238  0.00  0.00    +0.000 N 
ATOM     11  C   UNL     1      -1.105  11.469  22.463  0.00  0.00    +0.000 C 
ENDROOT
BRANCH   1  13
ATOM     12  C   UNL     1      -3.730  10.613  15.763  0.00  0.00    +0.000 C 
ATOM     13  O   UNL     1      -2.419  11.084  16.044  0.00  0.00    +0.000 OA
ENDBRANCH   1  13
BRANCH   7  14
ATOM     14  C   UNL     1       1.503   8.755  19.048  0.00  0.00    +0.000 C 
ATOM     15  O   UNL     1       1.712   8.950  17.849  0.00  0.00    +0.000 OA
BRANCH  14  16
ATOM     16  C   UNL     1       2.220   7.616  19.795  0.00  0.00    +0.000 C 
BRANCH  16  17
ATOM     17  N   UNL     1       1.989   6.231  19.283  0.00  0.00    +0.000 NA
ATOM     18  C   UNL     1       2.999   5.830  18.290  0.00  0.00    +0.000 C 
ATOM     19  C   UNL     1       2.740   4.428  17.743  0.00  0.00    +0.000 C 
ATOM     20  C   UNL     1       2.676   3.421  18.887  0.00  0.00    +0.000 C 
ATOM     21  C   UNL     1       1.591   3.843  19.870  0.00  0.00    +0.000 C 
ATOM     22  C   UNL     1       1.847   5.261  20.380  0.00  0.00    +0.000 C 
ATOM     23  O   UNL     1       3.954   3.372  19.550  0.00  0.00    +0.000 OA
ATOM     24  C   UNL     1       4.254   1.990  19.688  0.00  0.00    +0.000 C 
ATOM     25  C   UNL     1       3.587   1.377  18.490  0.00  0.00    +0.000 C 
ATOM     26  O   UNL     1       2.366   2.111  18.373  0.00  0.00    +0.000 OA
ENDBRANCH  16  17
ENDBRANCH  14  16
ENDBRANCH   7  14
TORSDOF 4
ENDMDL
MODEL 6
REMARK VINA RESULT:      -7.2      0.842      1.247
REMARK  Name = 
REMARK  7 active torsions:
REMARK  status: ('A' for Active; 'I' for Inactive)
REMARK    1  A    between atoms: C_1  and  O_2
REMARK    2  A    between atoms: O_2  and  C_3
REMARK    3  A    between atoms: C_9  and  C_10
REMARK    4  A    between atoms: C_10  and  C_12
REMARK    5  A    between atoms: C_12  and  N_13
REMARK    6  A    between atoms: C_23  and  C_24
REMARK    7  A    between atoms: N_25  and  C_26
REMARK                            x       y       z     vdW  Elec       q    Type
REMARK                         _______ _______ _______ _____ _____    ______ ____
ROOT
ATOM      1  C   UNL     1       5.976   5.973  16.710  0.00  0.00    +0.000 A 
ATOM      2  C   UNL     1       6.060   4.643  16.318  0.00  0.00    +0.000 A 
ATOM      3  C   UNL     1       5.088   3.712  16.712  0.00  0.00    +0.000 A 
ATOM      4  C   UNL     1       4.024   4.154  17.520  0.00  0.00    +0.000 A 
ATOM      5  C   UNL     1       3.909   5.475  17.937  0.00  0.00    +0.000 A 
ATOM      6  C   UNL     1       4.911   6.387  17.519  0.00  0.00    +0.000 A 
ATOM      7  C   UNL     1       2.720   5.591  18.752  0.00  0.00    +0.000 A 
ATOM      8  C   UNL     1       2.154   4.312  18.811  0.00  0.00    +0.000 A 
ATOM      9  C   UNL     1       0.944   3.764  19.496  0.00  0.00    +0.000 C 
ATOM     10  N   UNL     1       2.959   3.468  18.056  0.00  0.00    +0.000 N 
ATOM     11  C   UNL     1       2.767   2.046  17.845  0.00  0.00    +0.000 C 
ENDROOT
BRANCH   1  13
ATOM     12  C   UNL     1       7.558   7.538  17.522  0.00  0.00    +0.000 C 
ATOM     13  O   UNL     1       6.889   6.948  16.414  0.00  0.00    +0.000 OA
ENDBRANCH   1  13
BRANCH   7  14
ATOM     14  C   UNL     1       2.289   6.874  19.359  0.00  0.00    +0.000 C 
ATOM     15  O   UNL     1       2.264   6.969  20.588  0.00  0.00    +0.000 OA
BRANCH  14  16
ATOM     16  C   UNL     1       1.882   8.063  18.471  0.00  0.00    +0.000 C 
BRANCH  16  17
ATOM     17  N   UNL     1       1.718   9.383  19.153  0.00  0.00    +0.000 NA
ATOM     18  C   UNL     1       1.698  10.503  18.198  0.00  0.00    +0.000 C 
ATOM     19  C   UNL     1       1.566  11.853  18.900  0.00  0.00    +0.000 C 
ATOM     20  C   UNL     1       0.320  11.869  19.779  0.00  0.00    +0.000 C 
ATOM     21  C   UNL     1       0.396  10.725  20.783  0.00  0.00    +0.000 C 
ATOM     22  C   UNL     1       0.563   9.387  20.064  0.00  0.00    +0.000 C 
ATOM     23  O   UNL     1      -0.849  11.723  18.950  0.00  0.00    +0.000 OA
ATOM     24  C   UNL     1      -1.752  12.727  19.392  0.00  0.00    +0.000 C 
ATOM     25  C   UNL     1      -0.838  13.823  19.860  0.00  0.00    +0.000 C 
ATOM     26  O   UNL     1       0.235  13.119  20.490  0.00  0.00    +0.000 OA
ENDBRANCH  16  17
ENDBRANCH  14  16
ENDBRANCH   7  14
TORSDOF 4
ENDMDL
MODEL 7
REMARK VINA RESULT:      -7.2      2.467      8.403
REMARK  Name = 
REMARK  7 active torsions:
REMARK  status: ('A' for Active; 'I' for Inactive)
REMARK    1  A    between atoms: C_1  and  O_2
REMARK    2  A    between atoms: O_2  and  C_3
REMARK    3  A    between atoms: C_9  and  C_10
REMARK    4  A    between atoms: C_10  and  C_12
REMARK    5  A    between atoms: C_12  and  N_13
REMARK    6  A    between atoms: C_23  and  C_24
REMARK    7  A    between atoms: N_25  and  C_26
REMARK                            x       y       z     vdW  Elec       q    Type
REMARK                         _______ _______ _______ _____ _____    ______ ____
ROOT
ATOM      1  C   UNL     1      -2.775  10.256  16.490  0.00  0.00    +0.000 A 
ATOM      2  C   UNL     1      -3.796  11.085  16.937  0.00  0.00    +0.000 A 
ATOM      3  C   UNL     1      -3.691  11.764  18.159  0.00  0.00    +0.000 A 
ATOM      4  C   UNL     1      -2.528  11.582  18.929  0.00  0.00    +0.000 A 
ATOM      5  C   UNL     1      -1.488  10.757  18.519  0.00  0.00    +0.000 A 
ATOM      6  C   UNL     1      -1.630  10.087  17.277  0.00  0.00    +0.000 A 
ATOM      7  C   UNL     1      -0.458  10.786  19.534  0.00  0.00    +0.000 A 
ATOM      8  C   UNL     1      -0.923  11.633  20.546  0.00  0.00    +0.000 A 
ATOM      9  C   UNL     1      -0.350  12.066  21.857  0.00  0.00    +0.000 C 
ATOM     10  N   UNL     1      -2.171  12.101  20.153  0.00  0.00    +0.000 N 
ATOM     11  C   UNL     1      -3.035  12.997  20.897  0.00  0.00    +0.000 C 
ENDROOT
BRANCH   1  13
ATOM     12  C   UNL     1      -3.443  10.122  14.222  0.00  0.00    +0.000 C 
ATOM     13  O   UNL     1      -2.796   9.521  15.336  0.00  0.00    +0.000 OA
ENDBRANCH   1  13
BRANCH   7  14
ATOM     14  C   UNL     1       0.805  10.018  19.413  0.00  0.00    +0.000 C 
ATOM     15  O   UNL     1       1.738  10.508  18.773  0.00  0.00    +0.000 OA
BRANCH  14  16
ATOM     16  C   UNL     1       0.949   8.635  20.074  0.00  0.00    +0.000 C 
BRANCH  16  17
ATOM     17  N   UNL     1       2.102   7.796  19.627  0.00  0.00    +0.000 NA
ATOM     18  C   UNL     1       2.154   6.504  20.332  0.00  0.00    +0.000 C 
ATOM     19  C   UNL     1       3.353   5.664  19.899  0.00  0.00    +0.000 C 
ATOM     20  C   UNL     1       3.332   5.455  18.388  0.00  0.00    +0.000 C 
ATOM     21  C   UNL     1       3.323   6.811  17.692  0.00  0.00    +0.000 C 
ATOM     22  C   UNL     1       2.137   7.651  18.164  0.00  0.00    +0.000 C 
ATOM     23  O   UNL     1       2.155   4.706  18.028  0.00  0.00    +0.000 OA
ATOM     24  C   UNL     1       2.611   3.688  17.149  0.00  0.00    +0.000 C 
ATOM     25  C   UNL     1       4.007   3.420  17.636  0.00  0.00    +0.000 C 
ATOM     26  O   UNL     1       4.499   4.718  17.976  0.00  0.00    +0.000 OA
ENDBRANCH  16  17
ENDBRANCH  14  16
ENDBRANCH   7  14
TORSDOF 4
ENDMDL
MODEL 8
REMARK VINA RESULT:      -7.2      1.958      3.758
REMARK  Name = 
REMARK  7 active torsions:
REMARK  status: ('A' for Active; 'I' for Inactive)
REMARK    1  A    between atoms: C_1  and  O_2
REMARK    2  A    between atoms: O_2  and  C_3
REMARK    3  A    between atoms: C_9  and  C_10
REMARK    4  A    between atoms: C_10  and  C_12
REMARK    5  A    between atoms: C_12  and  N_13
REMARK    6  A    between atoms: C_23  and  C_24
REMARK    7  A    between atoms: N_25  and  C_26
REMARK                            x       y       z     vdW  Elec       q    Type
REMARK                         _______ _______ _______ _____ _____    ______ ____
ROOT
ATOM      1  C   UNL     1       2.019   2.787  19.538  0.00  0.00    +0.000 A 
ATOM      2  C   UNL     1       2.915   1.946  18.889  0.00  0.00    +0.000 A 
ATOM      3  C   UNL     1       3.852   2.454  17.979  0.00  0.00    +0.000 A 
ATOM      4  C   UNL     1       3.864   3.840  17.733  0.00  0.00    +0.000 A 
ATOM      5  C   UNL     1       2.982   4.712  18.358  0.00  0.00    +0.000 A 
ATOM      6  C   UNL     1       2.047   4.160  19.272  0.00  0.00    +0.000 A 
ATOM      7  C   UNL     1       3.252   6.050  17.882  0.00  0.00    +0.000 A 
ATOM      8  C   UNL     1       4.300   5.938  16.960  0.00  0.00    +0.000 A 
ATOM      9  C   UNL     1       5.024   6.935  16.114  0.00  0.00    +0.000 C 
ATOM     10  N   UNL     1       4.650   4.596  16.893  0.00  0.00    +0.000 N 
ATOM     11  C   UNL     1       5.679   4.009  16.057  0.00  0.00    +0.000 C 
ENDROOT
BRANCH   1  13
ATOM     12  C   UNL     1       1.286   2.651  21.786  0.00  0.00    +0.000 C 
ATOM     13  O   UNL     1       1.044   2.387  20.410  0.00  0.00    +0.000 OA
ENDBRANCH   1  13
BRANCH   7  14
ATOM     14  C   UNL     1       2.494   7.235  18.353  0.00  0.00    +0.000 C 
ATOM     15  O   UNL     1       1.944   7.956  17.518  0.00  0.00    +0.000 OA
BRANCH  14  16
ATOM     16  C   UNL     1       2.395   7.557  19.855  0.00  0.00    +0.000 C 
BRANCH  16  17
ATOM     17  N   UNL     1       1.204   8.345  20.294  0.00  0.00    +0.000 NA
ATOM     18  C   UNL     1       1.285   8.730  21.713  0.00  0.00    +0.000 C 
ATOM     19  C   UNL     1       0.050   9.505  22.167  0.00  0.00    +0.000 C 
ATOM     20  C   UNL     1      -0.156  10.732  21.285  0.00  0.00    +0.000 C 
ATOM     21  C   UNL     1      -0.280  10.292  19.831  0.00  0.00    +0.000 C 
ATOM     22  C   UNL     1       0.948   9.489  19.404  0.00  0.00    +0.000 C 
ATOM     23  O   UNL     1       0.966  11.622  21.440  0.00  0.00    +0.000 OA
ATOM     24  C   UNL     1       0.401  12.911  21.630  0.00  0.00    +0.000 C 
ATOM     25  C   UNL     1      -0.899  12.613  22.322  0.00  0.00    +0.000 C 
ATOM     26  O   UNL     1      -1.358  11.423  21.675  0.00  0.00    +0.000 OA
ENDBRANCH  16  17
ENDBRANCH  14  16
ENDBRANCH   7  14
TORSDOF 4
ENDMDL
MODEL 9
REMARK VINA RESULT:      -7.1      2.483      8.386
REMARK  Name = 
REMARK  7 active torsions:
REMARK  status: ('A' for Active; 'I' for Inactive)
REMARK    1  A    between atoms: C_1  and  O_2
REMARK    2  A    between atoms: O_2  and  C_3
REMARK    3  A    between atoms: C_9  and  C_10
REMARK    4  A    between atoms: C_10  and  C_12
REMARK    5  A    between atoms: C_12  and  N_13
REMARK    6  A    between atoms: C_23  and  C_24
REMARK    7  A    between atoms: N_25  and  C_26
REMARK                            x       y       z     vdW  Elec       q    Type
REMARK                         _______ _______ _______ _____ _____    ______ ____
ROOT
ATOM      1  C   UNL     1      -2.677  10.268  16.360  0.00  0.00    +0.000 A 
ATOM      2  C   UNL     1      -3.747  10.996  16.867  0.00  0.00    +0.000 A 
ATOM      3  C   UNL     1      -3.670  11.610  18.124  0.00  0.00    +0.000 A 
ATOM      4  C   UNL     1      -2.485  11.470  18.868  0.00  0.00    +0.000 A 
ATOM      5  C   UNL     1      -1.395  10.746  18.398  0.00  0.00    +0.000 A 
ATOM      6  C   UNL     1      -1.510  10.138  17.122  0.00  0.00    +0.000 A 
ATOM      7  C   UNL     1      -0.353  10.792  19.400  0.00  0.00    +0.000 A 
ATOM      8  C   UNL     1      -0.861  11.545  20.465  0.00  0.00    +0.000 A 
ATOM      9  C   UNL     1      -0.298  11.943  21.791  0.00  0.00    +0.000 C 
ATOM     10  N   UNL     1      -2.145  11.944  20.115  0.00  0.00    +0.000 N 
ATOM     11  C   UNL     1      -3.058  12.731  20.920  0.00  0.00    +0.000 C 
ENDROOT
BRANCH   1  13
ATOM     12  C   UNL     1      -3.624  10.018  14.204  0.00  0.00    +0.000 C 
ATOM     13  O   UNL     1      -2.664   9.600  15.166  0.00  0.00    +0.000 OA
ENDBRANCH   1  13
BRANCH   7  14
ATOM     14  C   UNL     1       0.959  10.125  19.219  0.00  0.00    +0.000 C 
ATOM     15  O   UNL     1       1.675  10.471  18.278  0.00  0.00    +0.000 OA
BRANCH  14  16
ATOM     16  C   UNL     1       1.419   9.022  20.190  0.00  0.00    +0.000 C 
BRANCH  16  17
ATOM     17  N   UNL     1       1.520   7.640  19.634  0.00  0.00    +0.000 NA
ATOM     18  C   UNL     1       2.445   7.567  18.491  0.00  0.00    +0.000 C 
ATOM     19  C   UNL     1       2.519   6.160  17.902  0.00  0.00    +0.000 C 
ATOM     20  C   UNL     1       2.915   5.158  18.981  0.00  0.00    +0.000 C 
ATOM     21  C   UNL     1       1.912   5.229  20.127  0.00  0.00    +0.000 C 
ATOM     22  C   UNL     1       1.825   6.651  20.680  0.00  0.00    +0.000 C 
ATOM     23  O   UNL     1       4.237   5.472  19.460  0.00  0.00    +0.000 OA
ATOM     24  C   UNL     1       4.936   4.235  19.474  0.00  0.00    +0.000 C 
ATOM     25  C   UNL     1       4.302   3.475  18.344  0.00  0.00    +0.000 C 
ATOM     26  O   UNL     1       2.919   3.824  18.438  0.00  0.00    +0.000 OA
ENDBRANCH  16  17
ENDBRANCH  14  16
ENDBRANCH   7  14
TORSDOF 4
ENDMDL
