MODEL 1
REMARK VINA RESULT:      -7.4      0.000      0.000
REMARK  Name = 
REMARK  11 active torsions:
REMARK  status: ('A' for Active; 'I' for Inactive)
REMARK    1  A    between atoms: C_1  and  C_2
REMARK    2  A    between atoms: C_2  and  N_3
REMARK    3  A    between atoms: C_4  and  S_5
REMARK    4  A    between atoms: S_5  and  C_6
REMARK    5  A    between atoms: C_6  and  C_7
REMARK    6  A    between atoms: N_9  and  C_10
REMARK    7  A    between atoms: C_13  and  O_14
REMARK    8  A    between atoms: O_14  and  C_15
REMARK    9  A    between atoms: C_16  and  O_17
REMARK   10  A    between atoms: O_17  and  C_18
REMARK   11  A    between atoms: C_22  and  C_23
REMARK                            x       y       z     vdW  Elec       q    Type
REMARK                         _______ _______ _______ _____ _____    ______ ____
ROOT
ATOM      1  C   UNL     1       8.107   7.168  18.499  0.00  0.00    +0.000 C 
ENDROOT
BRANCH   1   2
ATOM      2  C   UNL     1       8.299   8.691  18.354  0.00  0.00    +0.000 C 
ATOM      3  O   UNL     1       7.625   9.346  17.559  0.00  0.00    +0.000 OA
ATOM      4  N   UNL     1       9.299   9.267  19.144  0.00  0.00    +0.000 N 
ATOM      5  H   UNL     1       9.962   8.650  19.594  0.00  0.00    +0.000 HD
BRANCH   4   6
ATOM      6  C   UNL     1       9.564  10.669  19.228  0.00  0.00    +0.000 A 
ATOM      7  C   UNL     1       9.898  11.441  18.108  0.00  0.00    +0.000 A 
ATOM      8  C   UNL     1      10.164  12.808  18.230  0.00  0.00    +0.000 A 
ATOM      9  C   UNL     1      10.090  13.449  19.461  0.00  0.00    +0.000 A 
ATOM     10  C   UNL     1       9.768  12.699  20.606  0.00  0.00    +0.000 A 
ATOM     11  C   UNL     1       9.487  11.316  20.469  0.00  0.00    +0.000 A 
BRANCH   9  12
ATOM     12  O   UNL     1      10.423  14.777  19.394  0.00  0.00    +0.000 OA
ATOM     13  C   UNL     1       9.367  15.696  19.137  0.00  0.00    +0.000 C 
ENDBRANCH   9  12
BRANCH  10  14
ATOM     14  O   UNL     1       9.787  13.362  21.804  0.00  0.00    +0.000 OA
ATOM     15  C   UNL     1       8.550  13.705  22.407  0.00  0.00    +0.000 C 
ENDBRANCH  10  14
ENDBRANCH   4   6
ENDBRANCH   1   2
BRANCH   1  16
ATOM     16  S   UNL     1       6.798   6.628  17.314  0.00  0.00    +0.000 S 
BRANCH  16  18
ATOM     17  N   UNL     1       4.533   5.308  18.117  0.00  0.00    +0.000 N 
ATOM     18  C   UNL     1       5.911   5.407  18.145  0.00  0.00    +0.000 A 
ATOM     19  N   UNL     1       6.414   4.453  18.885  0.00  0.00    +0.000 NA
ATOM     20  N   UNL     1       5.365   3.705  19.365  0.00  0.00    +0.000 NA
ATOM     21  C   UNL     1       4.232   4.205  18.900  0.00  0.00    +0.000 A 
BRANCH  21  22
ATOM     22  C   UNL     1       2.928   3.682  19.240  0.00  0.00    +0.000 A 
ATOM     23  C   UNL     1       2.151   3.879  20.368  0.00  0.00    +0.000 A 
ATOM     24  C   UNL     1       0.942   3.118  20.360  0.00  0.00    +0.000 A 
ATOM     25  C   UNL     1       0.781   2.427  19.184  0.00  0.00    +0.000 A 
ATOM     26  S   UNL     1       2.097   2.665  18.121  0.00  0.00    +0.000 S 
ENDBRANCH  21  22
BRANCH  17  28
ATOM     27  C   UNL     1       2.920   7.191  18.347  0.00  0.00    +0.000 C 
ATOM     28  C   UNL     1       3.595   6.174  17.439  0.00  0.00    +0.000 C 
ENDBRANCH  17  28
ENDBRANCH  16  18
ENDBRANCH   1  16
TORSDOF 8
ENDMDL
MODEL 2
REMARK VINA RESULT:      -6.9      4.523      7.461
REMARK  Name = 
REMARK  11 active torsions:
REMARK  status: ('A' for Active; 'I' for Inactive)
REMARK    1  A    between atoms: C_1  and  C_2
REMARK    2  A    between atoms: C_2  and  N_3
REMARK    3  A    between atoms: C_4  and  S_5
REMARK    4  A    between atoms: S_5  and  C_6
REMARK    5  A    between atoms: C_6  and  C_7
REMARK    6  A    between atoms: N_9  and  C_10
REMARK    7  A    between atoms: C_13  and  O_14
REMARK    8  A    between atoms: O_14  and  C_15
REMARK    9  A    between atoms: C_16  and  O_17
REMARK   10  A    between atoms: O_17  and  C_18
REMARK   11  A    between atoms: C_22  and  C_23
REMARK                            x       y       z     vdW  Elec       q    Type
REMARK                         _______ _______ _______ _____ _____    ______ ____
ROOT
ATOM      1  C   UNL     1       1.756   2.338  18.672  0.00  0.00    +0.000 C 
ENDROOT
BRANCH   1   2
ATOM      2  C   UNL     1       1.599   3.834  18.330  0.00  0.00    +0.000 C 
ATOM      3  O   UNL     1       1.037   4.196  17.296  0.00  0.00    +0.000 OA
ATOM      4  N   UNL     1       2.161   4.739  19.236  0.00  0.00    +0.000 N 
ATOM      5  H   UNL     1       2.801   4.378  19.931  0.00  0.00    +0.000 HD
BRANCH   4   6
ATOM      6  C   UNL     1       2.037   6.160  19.150  0.00  0.00    +0.000 A 
ATOM      7  C   UNL     1       2.333   6.873  17.981  0.00  0.00    +0.000 A 
ATOM      8  C   UNL     1       2.213   8.265  17.937  0.00  0.00    +0.000 A 
ATOM      9  C   UNL     1       1.781   8.985  19.044  0.00  0.00    +0.000 A 
ATOM     10  C   UNL     1       1.485   8.300  20.236  0.00  0.00    +0.000 A 
ATOM     11  C   UNL     1       1.598   6.887  20.265  0.00  0.00    +0.000 A 
BRANCH   9  12
ATOM     12  O   UNL     1       1.763  10.340  18.829  0.00  0.00    +0.000 OA
ATOM     13  C   UNL     1       0.524  11.010  19.027  0.00  0.00    +0.000 C 
ENDBRANCH   9  12
BRANCH  10  14
ATOM     14  O   UNL     1       1.141   9.064  21.320  0.00  0.00    +0.000 OA
ATOM     15  C   UNL     1      -0.133   8.863  21.911  0.00  0.00    +0.000 C 
ENDBRANCH  10  14
ENDBRANCH   4   6
ENDBRANCH   1   2
BRANCH   1  16
ATOM     16  S   UNL     1       3.443   1.794  18.156  0.00  0.00    +0.000 S 
BRANCH  16  18
ATOM     17  N   UNL     1       5.037   4.011  17.909  0.00  0.00    +0.000 N 
ATOM     18  C   UNL     1       4.508   3.025  18.720  0.00  0.00    +0.000 A 
ATOM     19  N   UNL     1       4.940   3.173  19.945  0.00  0.00    +0.000 NA
ATOM     20  N   UNL     1       5.771   4.268  19.962  0.00  0.00    +0.000 NA
ATOM     21  C   UNL     1       5.826   4.785  18.745  0.00  0.00    +0.000 A 
BRANCH  21  22
ATOM     22  C   UNL     1       6.642   5.925  18.397  0.00  0.00    +0.000 A 
ATOM     23  C   UNL     1       7.888   6.310  18.862  0.00  0.00    +0.000 A 
ATOM     24  C   UNL     1       8.332   7.555  18.321  0.00  0.00    +0.000 A 
ATOM     25  C   UNL     1       7.454   8.048  17.387  0.00  0.00    +0.000 A 
ATOM     26  S   UNL     1       6.091   7.036  17.198  0.00  0.00    +0.000 S 
ENDBRANCH  21  22
BRANCH  17  28
ATOM     27  C   UNL     1       6.014   3.764  15.632  0.00  0.00    +0.000 C 
ATOM     28  C   UNL     1       4.834   4.197  16.490  0.00  0.00    +0.000 C 
ENDBRANCH  17  28
ENDBRANCH  16  18
ENDBRANCH   1  16
TORSDOF 8
ENDMDL
MODEL 3
REMARK VINA RESULT:      -6.9      6.804     10.227
REMARK  Name = 
REMARK  11 active torsions:
REMARK  status: ('A' for Active; 'I' for Inactive)
REMARK    1  A    between atoms: C_1  and  C_2
REMARK    2  A    between atoms: C_2  and  N_3
REMARK    3  A    between atoms: C_4  and  S_5
REMARK    4  A    between atoms: S_5  and  C_6
REMARK    5  A    between atoms: C_6  and  C_7
REMARK    6  A    between atoms: N_9  and  C_10
REMARK    7  A    between atoms: C_13  and  O_14
REMARK    8  A    between atoms: O_14  and  C_15
REMARK    9  A    between atoms: C_16  and  O_17
REMARK   10  A    between atoms: O_17  and  C_18
REMARK   11  A    between atoms: C_22  and  C_23
REMARK                            x       y       z     vdW  Elec       q    Type
REMARK                         _______ _______ _______ _____ _____    ______ ____
ROOT
ATOM      1  C   UNL     1       0.948   9.580  20.110  0.00  0.00    +0.000 C 
ENDROOT
BRANCH   1   2
ATOM      2  C   UNL     1       1.509   8.144  20.045  0.00  0.00    +0.000 C 
ATOM      3  O   UNL     1       1.381   7.366  20.990  0.00  0.00    +0.000 OA
ATOM      4  N   UNL     1       2.197   7.802  18.877  0.00  0.00    +0.000 N 
ATOM      5  H   UNL     1       2.466   8.547  18.249  0.00  0.00    +0.000 HD
BRANCH   4   6
ATOM      6  C   UNL     1       2.703   6.497  18.583  0.00  0.00    +0.000 A 
ATOM      7  C   UNL     1       1.914   5.499  17.995  0.00  0.00    +0.000 A 
ATOM      8  C   UNL     1       2.437   4.229  17.735  0.00  0.00    +0.000 A 
ATOM      9  C   UNL     1       3.759   3.920  18.034  0.00  0.00    +0.000 A 
ATOM     10  C   UNL     1       4.574   4.898  18.633  0.00  0.00    +0.000 A 
ATOM     11  C   UNL     1       4.036   6.186  18.882  0.00  0.00    +0.000 A 
BRANCH   9  12
ATOM     12  O   UNL     1       4.083   2.619  17.746  0.00  0.00    +0.000 OA
ATOM     13  C   UNL     1       3.407   1.606  18.482  0.00  0.00    +0.000 C 
ENDBRANCH   9  12
BRANCH  10  14
ATOM     14  O   UNL     1       5.843   4.516  18.981  0.00  0.00    +0.000 OA
ATOM     15  C   UNL     1       6.899   4.775  18.069  0.00  0.00    +0.000 C 
ENDBRANCH  10  14
ENDBRANCH   4   6
ENDBRANCH   1   2
BRANCH   1  16
ATOM     16  S   UNL     1       0.208   9.993  18.470  0.00  0.00    +0.000 S 
BRANCH  16  18
ATOM     17  N   UNL     1      -2.435  10.692  18.261  0.00  0.00    +0.000 N 
ATOM     18  C   UNL     1      -1.197  10.924  18.829  0.00  0.00    +0.000 A 
ATOM     19  N   UNL     1      -1.264  11.936  19.653  0.00  0.00    +0.000 NA
ATOM     20  N   UNL     1      -2.560  12.396  19.640  0.00  0.00    +0.000 NA
ATOM     21  C   UNL     1      -3.273  11.647  18.815  0.00  0.00    +0.000 A 
BRANCH  21  22
ATOM     22  C   UNL     1      -4.671  11.878  18.532  0.00  0.00    +0.000 A 
ATOM     23  C   UNL     1      -5.315  12.113  17.329  0.00  0.00    +0.000 A 
ATOM     24  C   UNL     1      -6.712  12.371  17.477  0.00  0.00    +0.000 A 
ATOM     25  C   UNL     1      -7.120  12.239  18.782  0.00  0.00    +0.000 A 
ATOM     26  S   UNL     1      -5.820  11.847  19.819  0.00  0.00    +0.000 S 
ENDBRANCH  21  22
BRANCH  17  28
ATOM     27  C   UNL     1      -2.586  10.125  15.841  0.00  0.00    +0.000 C 
ATOM     28  C   UNL     1      -2.790   9.687  17.284  0.00  0.00    +0.000 C 
ENDBRANCH  17  28
ENDBRANCH  16  18
ENDBRANCH   1  16
TORSDOF 8
ENDMDL
MODEL 4
REMARK VINA RESULT:      -6.8      6.100      9.277
REMARK  Name = 
REMARK  11 active torsions:
REMARK  status: ('A' for Active; 'I' for Inactive)
REMARK    1  A    between atoms: C_1  and  C_2
REMARK    2  A    between atoms: C_2  and  N_3
REMARK    3  A    between atoms: C_4  and  S_5
REMARK    4  A    between atoms: S_5  and  C_6
REMARK    5  A    between atoms: C_6  and  C_7
REMARK    6  A    between atoms: N_9  and  C_10
REMARK    7  A    between atoms: C_13  and  O_14
REMARK    8  A    between atoms: O_14  and  C_15
REMARK    9  A    between atoms: C_16  and  O_17
REMARK   10  A    between atoms: O_17  and  C_18
REMARK   11  A    between atoms: C_22  and  C_23
REMARK                            x       y       z     vdW  Elec       q    Type
REMARK                         _______ _______ _______ _____ _____    ______ ____
ROOT
ATOM      1  C   UNL     1       1.249   6.853  20.795  0.00  0.00    +0.000 C 
ENDROOT
BRANCH   1   2
ATOM      2  C   UNL     1       2.349   6.048  20.073  0.00  0.00    +0.000 C 
ATOM      3  O   UNL     1       2.837   5.038  20.579  0.00  0.00    +0.000 OA
ATOM      4  N   UNL     1       2.778   6.555  18.842  0.00  0.00    +0.000 N 
ATOM      5  H   UNL     1       2.509   7.498  18.597  0.00  0.00    +0.000 HD
BRANCH   4   6
ATOM      6  C   UNL     1       3.711   5.906  17.975  0.00  0.00    +0.000 A 
ATOM      7  C   UNL     1       3.475   4.637  17.430  0.00  0.00    +0.000 A 
ATOM      8  C   UNL     1       4.416   4.025  16.597  0.00  0.00    +0.000 A 
ATOM      9  C   UNL     1       5.607   4.661  16.268  0.00  0.00    +0.000 A 
ATOM     10  C   UNL     1       5.878   5.932  16.808  0.00  0.00    +0.000 A 
ATOM     11  C   UNL     1       4.911   6.547  17.641  0.00  0.00    +0.000 A 
BRANCH   9  12
ATOM     12  O   UNL     1       6.423   3.895  15.476  0.00  0.00    +0.000 OA
ATOM     13  C   UNL     1       6.270   4.031  14.068  0.00  0.00    +0.000 C 
ENDBRANCH   9  12
BRANCH  10  14
ATOM     14  O   UNL     1       7.100   6.479  16.517  0.00  0.00    +0.000 OA
ATOM     15  C   UNL     1       7.628   7.459  17.396  0.00  0.00    +0.000 C 
ENDBRANCH  10  14
ENDBRANCH   4   6
ENDBRANCH   1   2
BRANCH   1  16
ATOM     16  S   UNL     1       1.341   8.608  20.231  0.00  0.00    +0.000 S 
BRANCH  16  18
ATOM     17  N   UNL     1      -0.068  10.724  21.256  0.00  0.00    +0.000 N 
ATOM     18  C   UNL     1       0.580   9.524  21.476  0.00  0.00    +0.000 A 
ATOM     19  N   UNL     1       0.525   9.211  22.744  0.00  0.00    +0.000 NA
ATOM     20  N   UNL     1      -0.164  10.212  23.389  0.00  0.00    +0.000 NA
ATOM     21  C   UNL     1      -0.535  11.119  22.500  0.00  0.00    +0.000 A 
BRANCH  21  22
ATOM     22  C   UNL     1      -1.246  12.329  22.843  0.00  0.00    +0.000 A 
ATOM     23  C   UNL     1      -0.816  13.645  22.867  0.00  0.00    +0.000 A 
ATOM     24  C   UNL     1      -1.811  14.555  23.339  0.00  0.00    +0.000 A 
ATOM     25  C   UNL     1      -3.007  13.924  23.579  0.00  0.00    +0.000 A 
ATOM     26  S   UNL     1      -2.914  12.246  23.275  0.00  0.00    +0.000 S 
ENDBRANCH  21  22
BRANCH  17  28
ATOM     27  C   UNL     1      -1.579  11.252  19.348  0.00  0.00    +0.000 C 
ATOM     28  C   UNL     1      -0.219  11.436  20.007  0.00  0.00    +0.000 C 
ENDBRANCH  17  28
ENDBRANCH  16  18
ENDBRANCH   1  16
TORSDOF 8
ENDMDL
MODEL 5
REMARK VINA RESULT:      -6.8      6.045      7.446
REMARK  Name = 
REMARK  11 active torsions:
REMARK  status: ('A' for Active; 'I' for Inactive)
REMARK    1  A    between atoms: C_1  and  C_2
REMARK    2  A    between atoms: C_2  and  N_3
REMARK    3  A    between atoms: C_4  and  S_5
REMARK    4  A    between atoms: S_5  and  C_6
REMARK    5  A    between atoms: C_6  and  C_7
REMARK    6  A    between atoms: N_9  and  C_10
REMARK    7  A    between atoms: C_13  and  O_14
REMARK    8  A    between atoms: O_14  and  C_15
REMARK    9  A    between atoms: C_16  and  O_17
REMARK   10  A    between atoms: O_17  and  C_18
REMARK   11  A    between atoms: C_22  and  C_23
REMARK                            x       y       z     vdW  Elec       q    Type
REMARK                         _______ _______ _______ _____ _____    ______ ____
ROOT
ATOM      1  C   UNL     1       2.303   3.840  21.399  0.00  0.00    +0.000 C 
ENDROOT
BRANCH   1   2
ATOM      2  C   UNL     1       1.608   5.088  20.816  0.00  0.00    +0.000 C 
ATOM      3  O   UNL     1       0.440   5.046  20.431  0.00  0.00    +0.000 OA
ATOM      4  N   UNL     1       2.391   6.242  20.719  0.00  0.00    +0.000 N 
ATOM      5  H   UNL     1       3.391   6.148  20.832  0.00  0.00    +0.000 HD
BRANCH   4   6
ATOM      6  C   UNL     1       1.907   7.521  20.302  0.00  0.00    +0.000 A 
ATOM      7  C   UNL     1       1.924   7.932  18.963  0.00  0.00    +0.000 A 
ATOM      8  C   UNL     1       1.455   9.196  18.592  0.00  0.00    +0.000 A 
ATOM      9  C   UNL     1       0.943  10.078  19.535  0.00  0.00    +0.000 A 
ATOM     10  C   UNL     1       0.922   9.699  20.889  0.00  0.00    +0.000 A 
ATOM     11  C   UNL     1       1.388   8.410  21.252  0.00  0.00    +0.000 A 
BRANCH   9  12
ATOM     12  O   UNL     1       0.569  11.282  18.995  0.00  0.00    +0.000 OA
ATOM     13  C   UNL     1      -0.778  11.404  18.555  0.00  0.00    +0.000 C 
ENDBRANCH   9  12
BRANCH  10  14
ATOM     14  O   UNL     1       0.482  10.636  21.787  0.00  0.00    +0.000 OA
ATOM     15  C   UNL     1      -0.640  10.321  22.596  0.00  0.00    +0.000 C 
ENDBRANCH  10  14
ENDBRANCH   4   6
ENDBRANCH   1   2
BRANCH   1  16
ATOM     16  S   UNL     1       2.057   2.433  20.229  0.00  0.00    +0.000 S 
BRANCH  16  18
ATOM     17  N   UNL     1       3.774   3.511  18.383  0.00  0.00    +0.000 N 
ATOM     18  C   UNL     1       2.507   3.046  18.683  0.00  0.00    +0.000 A 
ATOM     19  N   UNL     1       1.733   3.148  17.636  0.00  0.00    +0.000 NA
ATOM     20  N   UNL     1       2.481   3.692  16.618  0.00  0.00    +0.000 NA
ATOM     21  C   UNL     1       3.712   3.902  17.055  0.00  0.00    +0.000 A 
BRANCH  21  22
ATOM     22  C   UNL     1       4.753   4.502  16.253  0.00  0.00    +0.000 A 
ATOM     23  C   UNL     1       5.036   5.834  16.004  0.00  0.00    +0.000 A 
ATOM     24  C   UNL     1       6.116   6.019  15.086  0.00  0.00    +0.000 A 
ATOM     25  C   UNL     1       6.690   4.824  14.725  0.00  0.00    +0.000 A 
ATOM     26  S   UNL     1       5.906   3.495  15.457  0.00  0.00    +0.000 S 
ENDBRANCH  21  22
BRANCH  17  28
ATOM     27  C   UNL     1       5.410   5.015  19.505  0.00  0.00    +0.000 C 
ATOM     28  C   UNL     1       4.920   3.595  19.260  0.00  0.00    +0.000 C 
ENDBRANCH  17  28
ENDBRANCH  16  18
ENDBRANCH   1  16
TORSDOF 8
ENDMDL
MODEL 6
REMARK VINA RESULT:      -6.8      1.452      2.598
REMARK  Name = 
REMARK  11 active torsions:
REMARK  status: ('A' for Active; 'I' for Inactive)
REMARK    1  A    between atoms: C_1  and  C_2
REMARK    2  A    between atoms: C_2  and  N_3
REMARK    3  A    between atoms: C_4  and  S_5
REMARK    4  A    between atoms: S_5  and  C_6
REMARK    5  A    between atoms: C_6  and  C_7
REMARK    6  A    between atoms: N_9  and  C_10
REMARK    7  A    between atoms: C_13  and  O_14
REMARK    8  A    between atoms: O_14  and  C_15
REMARK    9  A    between atoms: C_16  and  O_17
REMARK   10  A    between atoms: O_17  and  C_18
REMARK   11  A    between atoms: C_22  and  C_23
REMARK                            x       y       z     vdW  Elec       q    Type
REMARK                         _______ _______ _______ _____ _____    ______ ____
ROOT
ATOM      1  C   UNL     1       7.598   7.158  18.047  0.00  0.00    +0.000 C 
ENDROOT
BRANCH   1   2
ATOM      2  C   UNL     1       8.015   8.643  18.065  0.00  0.00    +0.000 C 
ATOM      3  O   UNL     1       7.538   9.449  17.266  0.00  0.00    +0.000 OA
ATOM      4  N   UNL     1       8.985   9.002  19.007  0.00  0.00    +0.000 N 
ATOM      5  H   UNL     1       9.497   8.261  19.466  0.00  0.00    +0.000 HD
BRANCH   4   6
ATOM      6  C   UNL     1       9.429  10.339  19.249  0.00  0.00    +0.000 A 
ATOM      7  C   UNL     1       9.399  10.924  20.521  0.00  0.00    +0.000 A 
ATOM      8  C   UNL     1       9.828  12.239  20.719  0.00  0.00    +0.000 A 
ATOM      9  C   UNL     1      10.314  13.004  19.665  0.00  0.00    +0.000 A 
ATOM     10  C   UNL     1      10.348  12.449  18.373  0.00  0.00    +0.000 A 
ATOM     11  C   UNL     1       9.921  11.109  18.187  0.00  0.00    +0.000 A 
BRANCH   9  12
ATOM     12  O   UNL     1      10.650  14.280  20.039  0.00  0.00    +0.000 OA
ATOM     13  C   UNL     1       9.784  14.934  20.958  0.00  0.00    +0.000 C 
ENDBRANCH   9  12
BRANCH  10  14
ATOM     14  O   UNL     1      10.759  13.271  17.358  0.00  0.00    +0.000 OA
ATOM     15  C   UNL     1      12.131  13.260  16.994  0.00  0.00    +0.000 C 
ENDBRANCH  10  14
ENDBRANCH   4   6
ENDBRANCH   1   2
BRANCH   1  16
ATOM     16  S   UNL     1       6.384   6.908  16.680  0.00  0.00    +0.000 S 
BRANCH  16  18
ATOM     17  N   UNL     1       4.475   5.366  17.905  0.00  0.00    +0.000 N 
ATOM     18  C   UNL     1       4.877   6.612  17.462  0.00  0.00    +0.000 A 
ATOM     19  N   UNL     1       3.953   7.499  17.722  0.00  0.00    +0.000 NA
ATOM     20  N   UNL     1       2.915   6.846  18.344  0.00  0.00    +0.000 NA
ATOM     21  C   UNL     1       3.225   5.566  18.468  0.00  0.00    +0.000 A 
BRANCH  21  22
ATOM     22  C   UNL     1       2.339   4.582  19.044  0.00  0.00    +0.000 A 
ATOM     23  C   UNL     1       1.544   3.626  18.435  0.00  0.00    +0.000 A 
ATOM     24  C   UNL     1       0.746   2.883  19.358  0.00  0.00    +0.000 A 
ATOM     25  C   UNL     1       1.016   3.229  20.660  0.00  0.00    +0.000 A 
ATOM     26  S   UNL     1       2.192   4.463  20.760  0.00  0.00    +0.000 S 
ENDBRANCH  21  22
BRANCH  17  28
ATOM     27  C   UNL     1       5.202   3.530  16.389  0.00  0.00    +0.000 C 
ATOM     28  C   UNL     1       5.187   4.113  17.794  0.00  0.00    +0.000 C 
ENDBRANCH  17  28
ENDBRANCH  16  18
ENDBRANCH   1  16
TORSDOF 8
ENDMDL
MODEL 7
REMARK VINA RESULT:      -6.8      6.597      9.734
REMARK  Name = 
REMARK  11 active torsions:
REMARK  status: ('A' for Active; 'I' for Inactive)
REMARK    1  A    between atoms: C_1  and  C_2
REMARK    2  A    between atoms: C_2  and  N_3
REMARK    3  A    between atoms: C_4  and  S_5
REMARK    4  A    between atoms: S_5  and  C_6
REMARK    5  A    between atoms: C_6  and  C_7
REMARK    6  A    between atoms: N_9  and  C_10
REMARK    7  A    between atoms: C_13  and  O_14
REMARK    8  A    between atoms: O_14  and  C_15
REMARK    9  A    between atoms: C_16  and  O_17
REMARK   10  A    between atoms: O_17  and  C_18
REMARK   11  A    between atoms: C_22  and  C_23
REMARK                            x       y       z     vdW  Elec       q    Type
REMARK                         _______ _______ _______ _____ _____    ______ ____
ROOT
ATOM      1  C   UNL     1       1.465   8.087  20.468  0.00  0.00    +0.000 C 
ENDROOT
BRANCH   1   2
ATOM      2  C   UNL     1       2.230   7.486  19.270  0.00  0.00    +0.000 C 
ATOM      3  O   UNL     1       2.308   8.085  18.198  0.00  0.00    +0.000 OA
ATOM      4  N   UNL     1       2.787   6.218  19.465  0.00  0.00    +0.000 N 
ATOM      5  H   UNL     1       2.492   5.690  20.275  0.00  0.00    +0.000 HD
BRANCH   4   6
ATOM      6  C   UNL     1       3.613   5.538  18.518  0.00  0.00    +0.000 A 
ATOM      7  C   UNL     1       3.116   4.548  17.660  0.00  0.00    +0.000 A 
ATOM      8  C   UNL     1       3.956   3.893  16.755  0.00  0.00    +0.000 A 
ATOM      9  C   UNL     1       5.305   4.212  16.664  0.00  0.00    +0.000 A 
ATOM     10  C   UNL     1       5.837   5.195  17.519  0.00  0.00    +0.000 A 
ATOM     11  C   UNL     1       4.973   5.861  18.424  0.00  0.00    +0.000 A 
BRANCH   9  12
ATOM     12  O   UNL     1       5.979   3.441  15.752  0.00  0.00    +0.000 OA
ATOM     13  C   UNL     1       6.118   3.966  14.437  0.00  0.00    +0.000 C 
ENDBRANCH   9  12
BRANCH  10  14
ATOM     14  O   UNL     1       7.187   5.414  17.444  0.00  0.00    +0.000 OA
ATOM     15  C   UNL     1       7.945   5.372  18.643  0.00  0.00    +0.000 C 
ENDBRANCH  10  14
ENDBRANCH   4   6
ENDBRANCH   1   2
BRANCH   1  16
ATOM     16  S   UNL     1       0.953   9.806  20.032  0.00  0.00    +0.000 S 
BRANCH  16  18
ATOM     17  N   UNL     1      -0.699  11.503  21.414  0.00  0.00    +0.000 N 
ATOM     18  C   UNL     1       0.139  10.404  21.428  0.00  0.00    +0.000 A 
ATOM     19  N   UNL     1       0.213   9.911  22.637  0.00  0.00    +0.000 NA
ATOM     20  N   UNL     1      -0.580  10.687  23.449  0.00  0.00    +0.000 NA
ATOM     21  C   UNL     1      -1.141  11.639  22.721  0.00  0.00    +0.000 A 
BRANCH  21  22
ATOM     22  C   UNL     1      -2.007  12.658  23.267  0.00  0.00    +0.000 A 
ATOM     23  C   UNL     1      -3.342  12.599  23.630  0.00  0.00    +0.000 A 
ATOM     24  C   UNL     1      -3.865  13.855  24.064  0.00  0.00    +0.000 A 
ATOM     25  C   UNL     1      -2.893  14.825  24.108  0.00  0.00    +0.000 A 
ATOM     26  S   UNL     1      -1.377  14.231  23.592  0.00  0.00    +0.000 S 
ENDBRANCH  21  22
BRANCH  17  28
ATOM     27  C   UNL     1      -2.313  11.943  19.570  0.00  0.00    +0.000 C 
ATOM     28  C   UNL     1      -1.035  12.348  20.291  0.00  0.00    +0.000 C 
ENDBRANCH  17  28
ENDBRANCH  16  18
ENDBRANCH   1  16
TORSDOF 8
ENDMDL
MODEL 8
REMARK VINA RESULT:      -6.7      1.274      1.482
REMARK  Name = 
REMARK  11 active torsions:
REMARK  status: ('A' for Active; 'I' for Inactive)
REMARK    1  A    between atoms: C_1  and  C_2
REMARK    2  A    between atoms: C_2  and  N_3
REMARK    3  A    between atoms: C_4  and  S_5
REMARK    4  A    between atoms: S_5  and  C_6
REMARK    5  A    between atoms: C_6  and  C_7
REMARK    6  A    between atoms: N_9  and  C_10
REMARK    7  A    between atoms: C_13  and  O_14
REMARK    8  A    between atoms: O_14  and  C_15
REMARK    9  A    between atoms: C_16  and  O_17
REMARK   10  A    between atoms: O_17  and  C_18
REMARK   11  A    between atoms: C_22  and  C_23
REMARK                            x       y       z     vdW  Elec       q    Type
REMARK                         _______ _______ _______ _____ _____    ______ ____
ROOT
ATOM      1  C   UNL     1       8.438   7.850  18.918  0.00  0.00    +0.000 C 
ENDROOT
BRANCH   1   2
ATOM      2  C   UNL     1       8.607   9.319  18.479  0.00  0.00    +0.000 C 
ATOM      3  O   UNL     1       7.859   9.825  17.642  0.00  0.00    +0.000 OA
ATOM      4  N   UNL     1       9.672  10.019  19.055  0.00  0.00    +0.000 N 
ATOM      5  H   UNL     1      10.377   9.487  19.548  0.00  0.00    +0.000 HD
BRANCH   4   6
ATOM      6  C   UNL     1       9.936  11.410  18.856  0.00  0.00    +0.000 A 
ATOM      7  C   UNL     1      10.680  11.887  17.770  0.00  0.00    +0.000 A 
ATOM      8  C   UNL     1      10.931  13.253  17.614  0.00  0.00    +0.000 A 
ATOM      9  C   UNL     1      10.436  14.183  18.520  0.00  0.00    +0.000 A 
ATOM     10  C   UNL     1       9.692  13.735  19.627  0.00  0.00    +0.000 A 
ATOM     11  C   UNL     1       9.434  12.348  19.768  0.00  0.00    +0.000 A 
BRANCH   9  12
ATOM     12  O   UNL     1      10.814  15.469  18.229  0.00  0.00    +0.000 OA
ATOM     13  C   UNL     1      10.714  15.881  16.871  0.00  0.00    +0.000 C 
ENDBRANCH   9  12
BRANCH  10  14
ATOM     14  O   UNL     1       9.297  14.684  20.531  0.00  0.00    +0.000 OA
ATOM     15  C   UNL     1      10.074  14.864  21.705  0.00  0.00    +0.000 C 
ENDBRANCH  10  14
ENDBRANCH   4   6
ENDBRANCH   1   2
BRANCH   1  16
ATOM     16  S   UNL     1       7.575   6.932  17.570  0.00  0.00    +0.000 S 
BRANCH  16  18
ATOM     17  N   UNL     1       5.278   5.458  17.838  0.00  0.00    +0.000 N 
ATOM     18  C   UNL     1       6.486   5.866  18.373  0.00  0.00    +0.000 A 
ATOM     19  N   UNL     1       6.658   5.328  19.552  0.00  0.00    +0.000 NA
ATOM     20  N   UNL     1       5.554   4.553  19.819  0.00  0.00    +0.000 NA
ATOM     21  C   UNL     1       4.725   4.616  18.790  0.00  0.00    +0.000 A 
BRANCH  21  22
ATOM     22  C   UNL     1       3.444   3.949  18.753  0.00  0.00    +0.000 A 
ATOM     23  C   UNL     1       2.214   4.343  19.249  0.00  0.00    +0.000 A 
ATOM     24  C   UNL     1       1.193   3.359  19.076  0.00  0.00    +0.000 A 
ATOM     25  C   UNL     1       1.648   2.270  18.371  0.00  0.00    +0.000 A 
ATOM     26  S   UNL     1       3.298   2.423  17.960  0.00  0.00    +0.000 S 
ENDBRANCH  21  22
BRANCH  17  28
ATOM     27  C   UNL     1       5.226   5.043  15.384  0.00  0.00    +0.000 C 
ATOM     28  C   UNL     1       4.697   5.836  16.570  0.00  0.00    +0.000 C 
ENDBRANCH  17  28
ENDBRANCH  16  18
ENDBRANCH   1  16
TORSDOF 8
ENDMDL
MODEL 9
REMARK VINA RESULT:      -6.7      3.590     10.647
REMARK  Name = 
REMARK  11 active torsions:
REMARK  status: ('A' for Active; 'I' for Inactive)
REMARK    1  A    between atoms: C_1  and  C_2
REMARK    2  A    between atoms: C_2  and  N_3
REMARK    3  A    between atoms: C_4  and  S_5
REMARK    4  A    between atoms: S_5  and  C_6
REMARK    5  A    between atoms: C_6  and  C_7
REMARK    6  A    between atoms: N_9  and  C_10
REMARK    7  A    between atoms: C_13  and  O_14
REMARK    8  A    between atoms: O_14  and  C_15
REMARK    9  A    between atoms: C_16  and  O_17
REMARK   10  A    between atoms: O_17  and  C_18
REMARK   11  A    between atoms: C_22  and  C_23
REMARK                            x       y       z     vdW  Elec       q    Type
REMARK                         _______ _______ _______ _____ _____    ______ ____
ROOT
ATOM      1  C   UNL     1       8.253   9.270  17.461  0.00  0.00    +0.000 C 
ENDROOT
BRANCH   1   2
ATOM      2  C   UNL     1       7.606   7.889  17.696  0.00  0.00    +0.000 C 
ATOM      3  O   UNL     1       8.068   7.100  18.520  0.00  0.00    +0.000 OA
ATOM      4  N   UNL     1       6.501   7.580  16.897  0.00  0.00    +0.000 N 
ATOM      5  H   UNL     1       6.319   8.164  16.092  0.00  0.00    +0.000 HD
BRANCH   4   6
ATOM      6  C   UNL     1       5.705   6.400  17.029  0.00  0.00    +0.000 A 
ATOM      7  C   UNL     1       6.091   5.167  16.487  0.00  0.00    +0.000 A 
ATOM      8  C   UNL     1       5.281   4.036  16.623  0.00  0.00    +0.000 A 
ATOM      9  C   UNL     1       4.077   4.092  17.315  0.00  0.00    +0.000 A 
ATOM     10  C   UNL     1       3.657   5.318  17.863  0.00  0.00    +0.000 A 
ATOM     11  C   UNL     1       4.493   6.455  17.729  0.00  0.00    +0.000 A 
BRANCH   9  12
ATOM     12  O   UNL     1       3.400   2.899  17.312  0.00  0.00    +0.000 OA
ATOM     13  C   UNL     1       3.600   2.039  18.428  0.00  0.00    +0.000 C 
ENDBRANCH   9  12
BRANCH  10  14
ATOM     14  O   UNL     1       2.426   5.337  18.465  0.00  0.00    +0.000 OA
ATOM     15  C   UNL     1       2.337   5.788  19.807  0.00  0.00    +0.000 C 
ENDBRANCH  10  14
ENDBRANCH   4   6
ENDBRANCH   1   2
BRANCH   1  16
ATOM     16  S   UNL     1       8.985   9.851  19.053  0.00  0.00    +0.000 S 
BRANCH  16  18
ATOM     17  N   UNL     1       9.820  12.449  19.325  0.00  0.00    +0.000 N 
ATOM     18  C   UNL     1       9.905  11.249  18.644  0.00  0.00    +0.000 A 
ATOM     19  N   UNL     1      10.770  11.348  17.668  0.00  0.00    +0.000 NA
ATOM     20  N   UNL     1      11.270  12.629  17.687  0.00  0.00    +0.000 NA
ATOM     21  C   UNL     1      10.714  13.294  18.686  0.00  0.00    +0.000 A 
BRANCH  21  22
ATOM     22  C   UNL     1      10.986  14.684  18.971  0.00  0.00    +0.000 A 
ATOM     23  C   UNL     1      11.895  15.258  19.842  0.00  0.00    +0.000 A 
ATOM     24  C   UNL     1      11.805  16.683  19.893  0.00  0.00    +0.000 A 
ATOM     25  C   UNL     1      10.889  17.169  18.992  0.00  0.00    +0.000 A 
ATOM     26  S   UNL     1      10.121  15.914  18.125  0.00  0.00    +0.000 S 
ENDBRANCH  21  22
BRANCH  17  28
ATOM     27  C   UNL     1       9.606  12.494  21.805  0.00  0.00    +0.000 C 
ATOM     28  C   UNL     1       8.972  12.772  20.450  0.00  0.00    +0.000 C 
ENDBRANCH  17  28
ENDBRANCH  16  18
ENDBRANCH   1  16
TORSDOF 8
ENDMDL
