MODEL 1
REMARK VINA RESULT:      -7.6      0.000      0.000
REMARK  Name = 
REMARK  6 active torsions:
REMARK  status: ('A' for Active; 'I' for Inactive)
REMARK    1  A    between atoms: C_1  and  O_2
REMARK    2  A    between atoms: O_2  and  C_3
REMARK    3  A    between atoms: C_6  and  C_7
REMARK    4  A    between atoms: C_10  and  S_11
REMARK    5  A    between atoms: S_11  and  C_12
REMARK    6  A    between atoms: C_12  and  C_13
REMARK                            x       y       z     vdW  Elec       q    Type
REMARK                         _______ _______ _______ _____ _____    ______ ____
ROOT
ATOM      1  C   UNL     1       8.340   8.933  18.214  0.00  0.00    +0.000 A 
ATOM      2  N   UNL     1       7.418   8.900  17.275  0.00  0.00    +0.000 NA
ATOM      3  N   UNL     1       6.996   7.597  17.185  0.00  0.00    +0.000 NA
ATOM      4  C   UNL     1       7.672   6.910  18.081  0.00  0.00    +0.000 A 
ATOM      5  O   UNL     1       8.551   7.698  18.789  0.00  0.00    +0.000 OA
ENDROOT
BRANCH   1   9
ATOM      6  C   UNL     1      10.572  12.272  19.719  0.00  0.00    +0.000 A 
ATOM      7  C   UNL     1       9.917  11.396  20.581  0.00  0.00    +0.000 A 
ATOM      8  C   UNL     1       9.201  10.308  20.074  0.00  0.00    +0.000 A 
ATOM      9  C   UNL     1       9.111  10.078  18.690  0.00  0.00    +0.000 A 
ATOM     10  C   UNL     1       9.756  10.977  17.830  0.00  0.00    +0.000 A 
ATOM     11  C   UNL     1      10.481  12.068  18.342  0.00  0.00    +0.000 A 
BRANCH   6  13
ATOM     12  C   UNL     1      11.982  14.159  19.474  0.00  0.00    +0.000 C 
ATOM     13  O   UNL     1      11.223  13.309  20.327  0.00  0.00    +0.000 OA
ENDBRANCH   6  13
ENDBRANCH   1   9
BRANCH   4  14
ATOM     14  S   UNL     1       7.481   5.192  18.255  0.00  0.00    +0.000 S 
BRANCH  14  15
ATOM     15  C   UNL     1       6.145   4.822  17.096  0.00  0.00    +0.000 C 
BRANCH  15  16
ATOM     16  C   UNL     1       4.826   4.678  17.821  0.00  0.00    +0.000 A 
ATOM     17  C   UNL     1       3.712   4.077  17.222  0.00  0.00    +0.000 A 
ATOM     18  C   UNL     1       2.526   3.947  17.944  0.00  0.00    +0.000 A 
ATOM     19  C   UNL     1       2.497   4.422  19.243  0.00  0.00    +0.000 A 
ATOM     20 CL   UNL     1       1.076   4.305  20.195  0.00  0.00    +0.000 Cl
ATOM     21  N   UNL     1       3.547   5.000  19.861  0.00  0.00    +0.000 NA
ATOM     22  C   UNL     1       4.686   5.105  19.139  0.00  0.00    +0.000 A 
ENDBRANCH  15  16
ENDBRANCH  14  15
ENDBRANCH   4  14
TORSDOF 5
ENDMDL
MODEL 2
REMARK VINA RESULT:      -7.3      0.744      1.503
REMARK  Name = 
REMARK  6 active torsions:
REMARK  status: ('A' for Active; 'I' for Inactive)
REMARK    1  A    between atoms: C_1  and  O_2
REMARK    2  A    between atoms: O_2  and  C_3
REMARK    3  A    between atoms: C_6  and  C_7
REMARK    4  A    between atoms: C_10  and  S_11
REMARK    5  A    between atoms: S_11  and  C_12
REMARK    6  A    between atoms: C_12  and  C_13
REMARK                            x       y       z     vdW  Elec       q    Type
REMARK                         _______ _______ _______ _____ _____    ______ ____
ROOT
ATOM      1  C   UNL     1       8.419   9.030  18.267  0.00  0.00    +0.000 A 
ATOM      2  N   UNL     1       7.607   8.989  17.232  0.00  0.00    +0.000 NA
ATOM      3  N   UNL     1       7.167   7.693  17.128  0.00  0.00    +0.000 NA
ATOM      4  C   UNL     1       7.722   7.018  18.113  0.00  0.00    +0.000 A 
ATOM      5  O   UNL     1       8.535   7.808  18.894  0.00  0.00    +0.000 OA
ENDROOT
BRANCH   1   9
ATOM      6  C   UNL     1      10.620  12.414  19.715  0.00  0.00    +0.000 A 
ATOM      7  C   UNL     1      10.508  12.158  18.350  0.00  0.00    +0.000 A 
ATOM      8  C   UNL     1       9.780  11.055  17.896  0.00  0.00    +0.000 A 
ATOM      9  C   UNL     1       9.158  10.172  18.796  0.00  0.00    +0.000 A 
ATOM     10  C   UNL     1       9.295  10.427  20.168  0.00  0.00    +0.000 A 
ATOM     11  C   UNL     1      10.023  11.540  20.623  0.00  0.00    +0.000 A 
BRANCH   6  13
ATOM     12  C   UNL     1      10.681  14.577  20.676  0.00  0.00    +0.000 C 
ATOM     13  O   UNL     1      11.373  13.508  20.041  0.00  0.00    +0.000 OA
ENDBRANCH   6  13
ENDBRANCH   1   9
BRANCH   4  14
ATOM     14  S   UNL     1       7.472   5.310  18.309  0.00  0.00    +0.000 S 
BRANCH  14  15
ATOM     15  C   UNL     1       6.068   4.987  17.220  0.00  0.00    +0.000 C 
BRANCH  15  16
ATOM     16  C   UNL     1       4.812   4.725  18.020  0.00  0.00    +0.000 A 
ATOM     17  C   UNL     1       4.488   5.473  19.159  0.00  0.00    +0.000 A 
ATOM     18  C   UNL     1       3.304   5.207  19.846  0.00  0.00    +0.000 A 
ATOM     19  C   UNL     1       2.483   4.202  19.367  0.00  0.00    +0.000 A 
ATOM     20 CL   UNL     1       1.013   3.810  20.158  0.00  0.00    +0.000 Cl
ATOM     21  N   UNL     1       2.751   3.464  18.271  0.00  0.00    +0.000 NA
ATOM     22  C   UNL     1       3.902   3.749  17.621  0.00  0.00    +0.000 A 
ENDBRANCH  15  16
ENDBRANCH  14  15
ENDBRANCH   4  14
TORSDOF 5
ENDMDL
MODEL 3
REMARK VINA RESULT:      -7.3      1.279      1.316
REMARK  Name = 
REMARK  6 active torsions:
REMARK  status: ('A' for Active; 'I' for Inactive)
REMARK    1  A    between atoms: C_1  and  O_2
REMARK    2  A    between atoms: O_2  and  C_3
REMARK    3  A    between atoms: C_6  and  C_7
REMARK    4  A    between atoms: C_10  and  S_11
REMARK    5  A    between atoms: S_11  and  C_12
REMARK    6  A    between atoms: C_12  and  C_13
REMARK                            x       y       z     vdW  Elec       q    Type
REMARK                         _______ _______ _______ _____ _____    ______ ____
ROOT
ATOM      1  C   UNL     1       8.078   8.419  18.091  0.00  0.00    +0.000 A 
ATOM      2  N   UNL     1       8.348   7.308  18.745  0.00  0.00    +0.000 NA
ATOM      3  N   UNL     1       7.616   6.313  18.146  0.00  0.00    +0.000 NA
ATOM      4  C   UNL     1       6.952   6.866  17.153  0.00  0.00    +0.000 A 
ATOM      5  O   UNL     1       7.200   8.216  17.048  0.00  0.00    +0.000 OA
ENDROOT
BRANCH   1   9
ATOM      6  C   UNL     1       9.633  12.331  18.909  0.00  0.00    +0.000 A 
ATOM      7  C   UNL     1       9.931  11.250  19.736  0.00  0.00    +0.000 A 
ATOM      8  C   UNL     1       9.422   9.980  19.450  0.00  0.00    +0.000 A 
ATOM      9  C   UNL     1       8.590   9.764  18.337  0.00  0.00    +0.000 A 
ATOM     10  C   UNL     1       8.279  10.862  17.524  0.00  0.00    +0.000 A 
ATOM     11  C   UNL     1       8.797  12.137  17.810  0.00  0.00    +0.000 A 
BRANCH   6  13
ATOM     12  C   UNL     1      11.496  13.479  19.813  0.00  0.00    +0.000 C 
ATOM     13  O   UNL     1      10.169  13.526  19.300  0.00  0.00    +0.000 OA
ENDBRANCH   6  13
ENDBRANCH   1   9
BRANCH   4  14
ATOM     14  S   UNL     1       5.849   5.956  16.168  0.00  0.00    +0.000 S 
BRANCH  14  15
ATOM     15  C   UNL     1       5.808   4.351  16.997  0.00  0.00    +0.000 C 
BRANCH  15  16
ATOM     16  C   UNL     1       4.517   4.171  17.762  0.00  0.00    +0.000 A 
ATOM     17  C   UNL     1       3.329   3.774  17.134  0.00  0.00    +0.000 A 
ATOM     18  C   UNL     1       2.172   3.598  17.892  0.00  0.00    +0.000 A 
ATOM     19  C   UNL     1       2.244   3.825  19.254  0.00  0.00    +0.000 A 
ATOM     20 CL   UNL     1       0.864   3.636  20.255  0.00  0.00    +0.000 Cl
ATOM     21  N   UNL     1       3.365   4.200  19.902  0.00  0.00    +0.000 NA
ATOM     22  C   UNL     1       4.474   4.355  19.142  0.00  0.00    +0.000 A 
ENDBRANCH  15  16
ENDBRANCH  14  15
ENDBRANCH   4  14
TORSDOF 5
ENDMDL
MODEL 4
REMARK VINA RESULT:      -7.3      1.403      1.693
REMARK  Name = 
REMARK  6 active torsions:
REMARK  status: ('A' for Active; 'I' for Inactive)
REMARK    1  A    between atoms: C_1  and  O_2
REMARK    2  A    between atoms: O_2  and  C_3
REMARK    3  A    between atoms: C_6  and  C_7
REMARK    4  A    between atoms: C_10  and  S_11
REMARK    5  A    between atoms: S_11  and  C_12
REMARK    6  A    between atoms: C_12  and  C_13
REMARK                            x       y       z     vdW  Elec       q    Type
REMARK                         _______ _______ _______ _____ _____    ______ ____
ROOT
ATOM      1  C   UNL     1       8.081   8.355  18.111  0.00  0.00    +0.000 A 
ATOM      2  N   UNL     1       8.351   7.220  18.721  0.00  0.00    +0.000 NA
ATOM      3  N   UNL     1       7.609   6.251  18.092  0.00  0.00    +0.000 NA
ATOM      4  C   UNL     1       6.941   6.843  17.125  0.00  0.00    +0.000 A 
ATOM      5  O   UNL     1       7.195   8.195  17.067  0.00  0.00    +0.000 OA
ENDROOT
BRANCH   1   9
ATOM      6  C   UNL     1       9.565  12.307  18.870  0.00  0.00    +0.000 A 
ATOM      7  C   UNL     1       8.766  12.038  17.761  0.00  0.00    +0.000 A 
ATOM      8  C   UNL     1       8.285  10.746  17.533  0.00  0.00    +0.000 A 
ATOM      9  C   UNL     1       8.602   9.688  18.402  0.00  0.00    +0.000 A 
ATOM     10  C   UNL     1       9.424   9.964  19.503  0.00  0.00    +0.000 A 
ATOM     11  C   UNL     1       9.903  11.266  19.734  0.00  0.00    +0.000 A 
BRANCH   6  13
ATOM     12  C   UNL     1       9.263  14.429  19.875  0.00  0.00    +0.000 C 
ATOM     13  O   UNL     1       9.993  13.601  18.977  0.00  0.00    +0.000 OA
ENDBRANCH   6  13
ENDBRANCH   1   9
BRANCH   4  14
ATOM     14  S   UNL     1       5.825   5.975  16.115  0.00  0.00    +0.000 S 
BRANCH  14  15
ATOM     15  C   UNL     1       5.702   4.375  16.945  0.00  0.00    +0.000 C 
BRANCH  15  16
ATOM     16  C   UNL     1       4.427   4.281  17.750  0.00  0.00    +0.000 A 
ATOM     17  C   UNL     1       3.254   3.726  17.223  0.00  0.00    +0.000 A 
ATOM     18  C   UNL     1       2.111   3.640  18.018  0.00  0.00    +0.000 A 
ATOM     19  C   UNL     1       2.183   4.111  19.316  0.00  0.00    +0.000 A 
ATOM     20 CL   UNL     1       0.821   4.047  20.356  0.00  0.00    +0.000 Cl
ATOM     21  N   UNL     1       3.292   4.645  19.868  0.00  0.00    +0.000 NA
ATOM     22  C   UNL     1       4.386   4.708  19.075  0.00  0.00    +0.000 A 
ENDBRANCH  15  16
ENDBRANCH  14  15
ENDBRANCH   4  14
TORSDOF 5
ENDMDL
MODEL 5
REMARK VINA RESULT:      -7.1      4.774      6.935
REMARK  Name = 
REMARK  6 active torsions:
REMARK  status: ('A' for Active; 'I' for Inactive)
REMARK    1  A    between atoms: C_1  and  O_2
REMARK    2  A    between atoms: O_2  and  C_3
REMARK    3  A    between atoms: C_6  and  C_7
REMARK    4  A    between atoms: C_10  and  S_11
REMARK    5  A    between atoms: S_11  and  C_12
REMARK    6  A    between atoms: C_12  and  C_13
REMARK                            x       y       z     vdW  Elec       q    Type
REMARK                         _______ _______ _______ _____ _____    ______ ____
ROOT
ATOM      1  C   UNL     1       2.637   6.338  19.210  0.00  0.00    +0.000 A 
ATOM      2  N   UNL     1       2.838   5.609  20.288  0.00  0.00    +0.000 NA
ATOM      3  N   UNL     1       3.345   4.407  19.860  0.00  0.00    +0.000 NA
ATOM      4  C   UNL     1       3.439   4.473  18.549  0.00  0.00    +0.000 A 
ATOM      5  O   UNL     1       3.010   5.684  18.056  0.00  0.00    +0.000 OA
ENDROOT
BRANCH   1   9
ATOM      6  C   UNL     1       1.020  10.307  19.047  0.00  0.00    +0.000 A 
ATOM      7  C   UNL     1       0.933   9.541  20.207  0.00  0.00    +0.000 A 
ATOM      8  C   UNL     1       1.473   8.252  20.245  0.00  0.00    +0.000 A 
ATOM      9  C   UNL     1       2.100   7.692  19.118  0.00  0.00    +0.000 A 
ATOM     10  C   UNL     1       2.163   8.463  17.949  0.00  0.00    +0.000 A 
ATOM     11  C   UNL     1       1.625   9.761  17.915  0.00  0.00    +0.000 A 
BRANCH   6  13
ATOM     12  C   UNL     1       1.290  12.651  18.850  0.00  0.00    +0.000 C 
ATOM     13  O   UNL     1       0.439  11.542  19.121  0.00  0.00    +0.000 OA
ENDBRANCH   6  13
ENDBRANCH   1   9
BRANCH   4  14
ATOM     14  S   UNL     1       3.985   3.125  17.599  0.00  0.00    +0.000 S 
BRANCH  14  15
ATOM     15  C   UNL     1       4.963   3.921  16.306  0.00  0.00    +0.000 C 
BRANCH  15  16
ATOM     16  C   UNL     1       5.861   4.989  16.888  0.00  0.00    +0.000 A 
ATOM     17  C   UNL     1       6.789   4.709  17.899  0.00  0.00    +0.000 A 
ATOM     18  C   UNL     1       7.612   5.725  18.383  0.00  0.00    +0.000 A 
ATOM     19  C   UNL     1       7.478   6.989  17.836  0.00  0.00    +0.000 A 
ATOM     20 CL   UNL     1       8.447   8.294  18.379  0.00  0.00    +0.000 Cl
ATOM     21  N   UNL     1       6.605   7.301  16.857  0.00  0.00    +0.000 NA
ATOM     22  C   UNL     1       5.826   6.293  16.402  0.00  0.00    +0.000 A 
ENDBRANCH  15  16
ENDBRANCH  14  15
ENDBRANCH   4  14
TORSDOF 5
ENDMDL
MODEL 6
REMARK VINA RESULT:      -7.1      5.642      7.846
REMARK  Name = 
REMARK  6 active torsions:
REMARK  status: ('A' for Active; 'I' for Inactive)
REMARK    1  A    between atoms: C_1  and  O_2
REMARK    2  A    between atoms: O_2  and  C_3
REMARK    3  A    between atoms: C_6  and  C_7
REMARK    4  A    between atoms: C_10  and  S_11
REMARK    5  A    between atoms: S_11  and  C_12
REMARK    6  A    between atoms: C_12  and  C_13
REMARK                            x       y       z     vdW  Elec       q    Type
REMARK                         _______ _______ _______ _____ _____    ______ ____
ROOT
ATOM      1  C   UNL     1       1.778   8.040  19.885  0.00  0.00    +0.000 A 
ATOM      2  N   UNL     1       2.292   8.290  18.698  0.00  0.00    +0.000 NA
ATOM      3  N   UNL     1       2.999   7.173  18.333  0.00  0.00    +0.000 NA
ATOM      4  C   UNL     1       2.867   6.297  19.307  0.00  0.00    +0.000 A 
ATOM      5  O   UNL     1       2.091   6.776  20.338  0.00  0.00    +0.000 OA
ENDROOT
BRANCH   1   9
ATOM      6  C   UNL     1      -0.690  10.643  22.236  0.00  0.00    +0.000 A 
ATOM      7  C   UNL     1      -0.684  10.717  20.845  0.00  0.00    +0.000 A 
ATOM      8  C   UNL     1       0.120   9.855  20.094  0.00  0.00    +0.000 A 
ATOM      9  C   UNL     1       0.950   8.908  20.717  0.00  0.00    +0.000 A 
ATOM     10  C   UNL     1       0.954   8.856  22.118  0.00  0.00    +0.000 A 
ATOM     11  C   UNL     1       0.140   9.720  22.871  0.00  0.00    +0.000 A 
BRANCH   6  13
ATOM     12  C   UNL     1      -1.044  12.898  22.867  0.00  0.00    +0.000 C 
ATOM     13  O   UNL     1      -1.499  11.549  22.863  0.00  0.00    +0.000 OA
ENDBRANCH   6  13
ENDBRANCH   1   9
BRANCH   4  14
ATOM     14  S   UNL     1       3.666   4.755  19.268  0.00  0.00    +0.000 S 
BRANCH  14  15
ATOM     15  C   UNL     1       5.402   5.212  19.062  0.00  0.00    +0.000 C 
BRANCH  15  16
ATOM     16  C   UNL     1       5.824   5.092  17.615  0.00  0.00    +0.000 A 
ATOM     17  C   UNL     1       5.016   4.470  16.655  0.00  0.00    +0.000 A 
ATOM     18  C   UNL     1       5.442   4.409  15.328  0.00  0.00    +0.000 A 
ATOM     19  C   UNL     1       6.663   4.976  15.009  0.00  0.00    +0.000 A 
ATOM     20 CL   UNL     1       7.260   4.938  13.402  0.00  0.00    +0.000 Cl
ATOM     21  N   UNL     1       7.468   5.592  15.898  0.00  0.00    +0.000 NA
ATOM     22  C   UNL     1       7.025   5.642  17.175  0.00  0.00    +0.000 A 
ENDBRANCH  15  16
ENDBRANCH  14  15
ENDBRANCH   4  14
TORSDOF 5
ENDMDL
MODEL 7
REMARK VINA RESULT:      -7.1      5.914      7.631
REMARK  Name = 
REMARK  6 active torsions:
REMARK  status: ('A' for Active; 'I' for Inactive)
REMARK    1  A    between atoms: C_1  and  O_2
REMARK    2  A    between atoms: O_2  and  C_3
REMARK    3  A    between atoms: C_6  and  C_7
REMARK    4  A    between atoms: C_10  and  S_11
REMARK    5  A    between atoms: S_11  and  C_12
REMARK    6  A    between atoms: C_12  and  C_13
REMARK                            x       y       z     vdW  Elec       q    Type
REMARK                         _______ _______ _______ _____ _____    ______ ____
ROOT
ATOM      1  C   UNL     1       2.252   7.755  19.027  0.00  0.00    +0.000 A 
ATOM      2  N   UNL     1       2.985   8.103  17.990  0.00  0.00    +0.000 NA
ATOM      3  N   UNL     1       3.512   6.945  17.475  0.00  0.00    +0.000 NA
ATOM      4  C   UNL     1       3.061   5.954  18.214  0.00  0.00    +0.000 A 
ATOM      5  O   UNL     1       2.239   6.391  19.228  0.00  0.00    +0.000 OA
ENDROOT
BRANCH   1   9
ATOM      6  C   UNL     1       0.026  10.203  21.755  0.00  0.00    +0.000 A 
ATOM      7  C   UNL     1       0.678   9.051  22.188  0.00  0.00    +0.000 A 
ATOM      8  C   UNL     1       1.406   8.269  21.287  0.00  0.00    +0.000 A 
ATOM      9  C   UNL     1       1.487   8.613  19.927  0.00  0.00    +0.000 A 
ATOM     10  C   UNL     1       0.810   9.762  19.496  0.00  0.00    +0.000 A 
ATOM     11  C   UNL     1       0.083  10.551  20.405  0.00  0.00    +0.000 A 
BRANCH   6  13
ATOM     12  C   UNL     1      -1.614  11.836  22.259  0.00  0.00    +0.000 C 
ATOM     13  O   UNL     1      -0.670  10.875  22.721  0.00  0.00    +0.000 OA
ENDBRANCH   6  13
ENDBRANCH   1   9
BRANCH   4  14
ATOM     14  S   UNL     1       3.541   4.308  17.935  0.00  0.00    +0.000 S 
BRANCH  14  15
ATOM     15  C   UNL     1       5.342   4.397  18.042  0.00  0.00    +0.000 C 
BRANCH  15  16
ATOM     16  C   UNL     1       5.958   4.561  16.671  0.00  0.00    +0.000 A 
ATOM     17  C   UNL     1       5.510   3.831  15.563  0.00  0.00    +0.000 A 
ATOM     18  C   UNL     1       6.096   4.039  14.315  0.00  0.00    +0.000 A 
ATOM     19  C   UNL     1       7.110   4.975  14.219  0.00  0.00    +0.000 A 
ATOM     20 CL   UNL     1       7.886   5.286  12.722  0.00  0.00    +0.000 Cl
ATOM     21  N   UNL     1       7.567   5.707  15.256  0.00  0.00    +0.000 NA
ATOM     22  C   UNL     1       6.974   5.488  16.452  0.00  0.00    +0.000 A 
ENDBRANCH  15  16
ENDBRANCH  14  15
ENDBRANCH   4  14
TORSDOF 5
ENDMDL
MODEL 8
REMARK VINA RESULT:      -7.0      0.993      1.535
REMARK  Name = 
REMARK  6 active torsions:
REMARK  status: ('A' for Active; 'I' for Inactive)
REMARK    1  A    between atoms: C_1  and  O_2
REMARK    2  A    between atoms: O_2  and  C_3
REMARK    3  A    between atoms: C_6  and  C_7
REMARK    4  A    between atoms: C_10  and  S_11
REMARK    5  A    between atoms: S_11  and  C_12
REMARK    6  A    between atoms: C_12  and  C_13
REMARK                            x       y       z     vdW  Elec       q    Type
REMARK                         _______ _______ _______ _____ _____    ______ ____
ROOT
ATOM      1  C   UNL     1       8.471   9.214  18.248  0.00  0.00    +0.000 A 
ATOM      2  N   UNL     1       7.552   9.260  17.306  0.00  0.00    +0.000 NA
ATOM      3  N   UNL     1       7.099   7.976  17.135  0.00  0.00    +0.000 NA
ATOM      4  C   UNL     1       7.754   7.220  17.991  0.00  0.00    +0.000 A 
ATOM      5  O   UNL     1       8.649   7.942  18.747  0.00  0.00    +0.000 OA
ENDROOT
BRANCH   1   9
ATOM      6  C   UNL     1      10.847  12.454  19.749  0.00  0.00    +0.000 A 
ATOM      7  C   UNL     1      10.806  12.161  18.388  0.00  0.00    +0.000 A 
ATOM      8  C   UNL     1      10.020  11.106  17.915  0.00  0.00    +0.000 A 
ATOM      9  C   UNL     1       9.266  10.310  18.795  0.00  0.00    +0.000 A 
ATOM     10  C   UNL     1       9.331  10.599  20.164  0.00  0.00    +0.000 A 
ATOM     11  C   UNL     1      10.118  11.664  20.637  0.00  0.00    +0.000 A 
BRANCH   6  13
ATOM     12  C   UNL     1      11.777  14.546  19.143  0.00  0.00    +0.000 C 
ATOM     13  O   UNL     1      11.666  13.493  20.095  0.00  0.00    +0.000 OA
ENDBRANCH   6  13
ENDBRANCH   1   9
BRANCH   4  14
ATOM     14  S   UNL     1       7.522   5.499  18.059  0.00  0.00    +0.000 S 
BRANCH  14  15
ATOM     15  C   UNL     1       6.479   5.298  19.520  0.00  0.00    +0.000 C 
BRANCH  15  16
ATOM     16  C   UNL     1       5.107   4.790  19.139  0.00  0.00    +0.000 A 
ATOM     17  C   UNL     1       4.723   3.459  19.346  0.00  0.00    +0.000 A 
ATOM     18  C   UNL     1       3.437   3.048  18.999  0.00  0.00    +0.000 A 
ATOM     19  C   UNL     1       2.577   3.986  18.458  0.00  0.00    +0.000 A 
ATOM     20 CL   UNL     1       0.980   3.560  18.000  0.00  0.00    +0.000 Cl
ATOM     21  N   UNL     1       2.900   5.279  18.248  0.00  0.00    +0.000 NA
ATOM     22  C   UNL     1       4.152   5.649  18.602  0.00  0.00    +0.000 A 
ENDBRANCH  15  16
ENDBRANCH  14  15
ENDBRANCH   4  14
TORSDOF 5
ENDMDL
MODEL 9
REMARK VINA RESULT:      -7.0      5.901      7.397
REMARK  Name = 
REMARK  6 active torsions:
REMARK  status: ('A' for Active; 'I' for Inactive)
REMARK    1  A    between atoms: C_1  and  O_2
REMARK    2  A    between atoms: O_2  and  C_3
REMARK    3  A    between atoms: C_6  and  C_7
REMARK    4  A    between atoms: C_10  and  S_11
REMARK    5  A    between atoms: S_11  and  C_12
REMARK    6  A    between atoms: C_12  and  C_13
REMARK                            x       y       z     vdW  Elec       q    Type
REMARK                         _______ _______ _______ _____ _____    ______ ____
ROOT
ATOM      1  C   UNL     1       2.117   6.332  20.132  0.00  0.00    +0.000 A 
ATOM      2  N   UNL     1       1.537   5.325  20.751  0.00  0.00    +0.000 NA
ATOM      3  N   UNL     1       2.316   4.220  20.517  0.00  0.00    +0.000 NA
ATOM      4  C   UNL     1       3.335   4.614  19.783  0.00  0.00    +0.000 A 
ATOM      5  O   UNL     1       3.283   5.960  19.498  0.00  0.00    +0.000 OA
ENDROOT
BRANCH   1   9
ATOM      6  C   UNL     1       0.878  10.426  19.813  0.00  0.00    +0.000 A 
ATOM      7  C   UNL     1       1.398   9.743  18.717  0.00  0.00    +0.000 A 
ATOM      8  C   UNL     1       1.789   8.407  18.836  0.00  0.00    +0.000 A 
ATOM      9  C   UNL     1       1.683   7.725  20.060  0.00  0.00    +0.000 A 
ATOM     10  C   UNL     1       1.179   8.426  21.164  0.00  0.00    +0.000 A 
ATOM     11  C   UNL     1       0.780   9.769  21.040  0.00  0.00    +0.000 A 
BRANCH   6  13
ATOM     12  C   UNL     1      -0.573  11.955  18.736  0.00  0.00    +0.000 C 
ATOM     13  O   UNL     1       0.549  11.732  19.582  0.00  0.00    +0.000 OA
ENDBRANCH   6  13
ENDBRANCH   1   9
BRANCH   4  14
ATOM     14  S   UNL     1       4.538   3.500  19.209  0.00  0.00    +0.000 S 
BRANCH  14  15
ATOM     15  C   UNL     1       5.894   4.593  18.730  0.00  0.00    +0.000 C 
BRANCH  15  16
ATOM     16  C   UNL     1       6.126   4.544  17.237  0.00  0.00    +0.000 A 
ATOM     17  C   UNL     1       5.096   4.249  16.335  0.00  0.00    +0.000 A 
ATOM     18  C   UNL     1       5.358   4.241  14.965  0.00  0.00    +0.000 A 
ATOM     19  C   UNL     1       6.644   4.532  14.546  0.00  0.00    +0.000 A 
ATOM     20 CL   UNL     1       7.049   4.538  12.880  0.00  0.00    +0.000 Cl
ATOM     21  N   UNL     1       7.663   4.829  15.377  0.00  0.00    +0.000 NA
ATOM     22  C   UNL     1       7.377   4.837  16.699  0.00  0.00    +0.000 A 
ENDBRANCH  15  16
ENDBRANCH  14  15
ENDBRANCH   4  14
TORSDOF 5
ENDMDL
