MODEL 1
REMARK VINA RESULT:      -8.9      0.000      0.000
REMARK  Name = 
REMARK  4 active torsions:
REMARK  status: ('A' for Active; 'I' for Inactive)
REMARK    1  A    between atoms: C_2  and  C_5
REMARK    2  A    between atoms: N_3  and  O_4
REMARK    3  A    between atoms: C_12  and  C_13
REMARK    4  A    between atoms: C_18  and  C_19
REMARK                            x       y       z     vdW  Elec       q    Type
REMARK                         _______ _______ _______ _____ _____    ______ ____
ROOT
ATOM      1  C   UNL     1       3.828   4.456  17.668  0.00  0.00    +0.000 C 
ATOM      2  C   UNL     1       4.580   4.084  16.391  0.00  0.00    +0.000 C 
ATOM      3  C   UNL     1       5.769   4.993  16.222  0.00  0.00    +0.000 C 
ATOM      4  C   UNL     1       7.104   4.546  16.781  0.00  0.00    +0.000 C 
ATOM      5  C   UNL     1       6.872   4.528  15.296  0.00  0.00    +0.000 C 
ATOM      6  C   UNL     1       5.406   6.459  16.239  0.00  0.00    +0.000 C 
ATOM      7  N   UNL     1       4.684   6.780  17.469  0.00  0.00    +0.000 NA
ATOM      8  C   UNL     1       3.462   5.956  17.660  0.00  0.00    +0.000 C 
ATOM      9  H   UNL     1       4.442   7.770  17.471  0.00  0.00    +0.000 HD
ENDROOT
BRANCH   8  10
ATOM     10  C   UNL     1       2.838   6.339  19.031  0.00  0.00    +0.000 C 
ATOM     11  O   UNL     1       2.860   5.527  19.963  0.00  0.00    +0.000 OA
ATOM     12  N   UNL     1       2.259   7.595  19.197  0.00  0.00    +0.000 N 
ATOM     13  C   UNL     1       1.830   7.948  20.553  0.00  0.00    +0.000 C 
ATOM     14  C   UNL     1       0.758   8.999  20.566  0.00  0.00    +0.000 C 
ATOM     15  C   UNL     1       0.262   9.587  19.465  0.00  0.00    +0.000 C 
ATOM     16  C   UNL     1       0.791   9.254  18.101  0.00  0.00    +0.000 C 
ATOM     17  C   UNL     1       2.205   8.667  18.200  0.00  0.00    +0.000 C 
BRANCH  15  18
ATOM     18  C   UNL     1      -0.791  10.601  19.571  0.00  0.00    +0.000 A 
ATOM     19  C   UNL     1      -0.891  11.394  20.720  0.00  0.00    +0.000 A 
ATOM     20  C   UNL     1      -1.905  12.349  20.831  0.00  0.00    +0.000 A 
ATOM     21  C   UNL     1      -2.825  12.513  19.796  0.00  0.00    +0.000 A 
ATOM     22  C   UNL     1      -2.732  11.723  18.651  0.00  0.00    +0.000 A 
ATOM     23  C   UNL     1      -1.720  10.768  18.538  0.00  0.00    +0.000 A 
ENDBRANCH  15  18
ENDBRANCH   8  10
BRANCH   1  25
ATOM     24  O   UNL     1       1.535   3.852  17.144  0.00  0.00    +0.000 OA
ATOM     25  C   UNL     1       2.571   3.608  17.763  0.00  0.00    +0.000 C 
ATOM     26  N   UNL     1       2.667   2.535  18.614  0.00  0.00    +0.000 N 
ATOM     27  H   UNL     1       3.332   2.532  19.394  0.00  0.00    +0.000 HD
BRANCH  26  28
ATOM     28  O   UNL     1       1.479   1.783  18.783  0.00  0.00    +0.000 OA
ATOM     29  H   UNL     1       1.819   0.931  19.135  0.00  0.00    +0.000 HD
ENDBRANCH  26  28
ENDBRANCH   1  25
TORSDOF 4
ENDMDL
MODEL 2
REMARK VINA RESULT:      -8.4      0.646      1.144
REMARK  Name = 
REMARK  4 active torsions:
REMARK  status: ('A' for Active; 'I' for Inactive)
REMARK    1  A    between atoms: C_2  and  C_5
REMARK    2  A    between atoms: N_3  and  O_4
REMARK    3  A    between atoms: C_12  and  C_13
REMARK    4  A    between atoms: C_18  and  C_19
REMARK                            x       y       z     vdW  Elec       q    Type
REMARK                         _______ _______ _______ _____ _____    ______ ____
ROOT
ATOM      1  C   UNL     1       3.329   4.705  17.914  0.00  0.00    +0.000 C 
ATOM      2  C   UNL     1       3.999   4.198  16.637  0.00  0.00    +0.000 C 
ATOM      3  C   UNL     1       5.285   4.949  16.410  0.00  0.00    +0.000 C 
ATOM      4  C   UNL     1       6.570   4.363  16.959  0.00  0.00    +0.000 C 
ATOM      5  C   UNL     1       6.300   4.319  15.480  0.00  0.00    +0.000 C 
ATOM      6  C   UNL     1       5.103   6.448  16.377  0.00  0.00    +0.000 C 
ATOM      7  N   UNL     1       4.456   6.899  17.608  0.00  0.00    +0.000 NA
ATOM      8  C   UNL     1       3.148   6.237  17.855  0.00  0.00    +0.000 C 
ATOM      9  H   UNL     1       4.336   7.910  17.576  0.00  0.00    +0.000 HD
ENDROOT
BRANCH   8  10
ATOM     10  C   UNL     1       2.608   6.743  19.222  0.00  0.00    +0.000 C 
ATOM     11  O   UNL     1       2.740   6.040  20.231  0.00  0.00    +0.000 OA
ATOM     12  N   UNL     1       1.982   7.985  19.299  0.00  0.00    +0.000 N 
ATOM     13  C   UNL     1       1.637   8.467  20.639  0.00  0.00    +0.000 C 
ATOM     14  C   UNL     1       0.518   9.467  20.624  0.00  0.00    +0.000 C 
ATOM     15  C   UNL     1      -0.086   9.910  19.509  0.00  0.00    +0.000 C 
ATOM     16  C   UNL     1       0.356   9.450  18.151  0.00  0.00    +0.000 C 
ATOM     17  C   UNL     1       1.801   8.937  18.200  0.00  0.00    +0.000 C 
BRANCH  15  18
ATOM     18  C   UNL     1      -1.178  10.885  19.590  0.00  0.00    +0.000 A 
ATOM     19  C   UNL     1      -2.151  10.936  18.585  0.00  0.00    +0.000 A 
ATOM     20  C   UNL     1      -3.182  11.877  18.650  0.00  0.00    +0.000 A 
ATOM     21  C   UNL     1      -3.243  12.772  19.718  0.00  0.00    +0.000 A 
ATOM     22  C   UNL     1      -2.274  12.728  20.720  0.00  0.00    +0.000 A 
ATOM     23  C   UNL     1      -1.242  11.789  20.656  0.00  0.00    +0.000 A 
ENDBRANCH  15  18
ENDBRANCH   8  10
BRANCH   1  25
ATOM     24  O   UNL     1       1.095   4.061  17.214  0.00  0.00    +0.000 OA
ATOM     25  C   UNL     1       1.982   4.020  18.067  0.00  0.00    +0.000 C 
ATOM     26  N   UNL     1       1.812   3.350  19.253  0.00  0.00    +0.000 N 
ATOM     27  H   UNL     1       2.338   3.611  20.092  0.00  0.00    +0.000 HD
BRANCH  26  28
ATOM     28  O   UNL     1       0.532   2.778  19.452  0.00  0.00    +0.000 OA
ATOM     29  H   UNL     1       0.620   2.373  20.342  0.00  0.00    +0.000 HD
ENDBRANCH  26  28
ENDBRANCH   1  25
TORSDOF 4
ENDMDL
MODEL 3
REMARK VINA RESULT:      -8.1      3.319      8.653
REMARK  Name = 
REMARK  4 active torsions:
REMARK  status: ('A' for Active; 'I' for Inactive)
REMARK    1  A    between atoms: C_2  and  C_5
REMARK    2  A    between atoms: N_3  and  O_4
REMARK    3  A    between atoms: C_12  and  C_13
REMARK    4  A    between atoms: C_18  and  C_19
REMARK                            x       y       z     vdW  Elec       q    Type
REMARK                         _______ _______ _______ _____ _____    ______ ____
ROOT
ATOM      1  C   UNL     1      -0.732  11.357  19.524  0.00  0.00    +0.000 C 
ATOM      2  C   UNL     1      -1.616  11.937  20.628  0.00  0.00    +0.000 C 
ATOM      3  C   UNL     1      -0.790  12.172  21.865  0.00  0.00    +0.000 C 
ATOM      4  C   UNL     1      -0.163  13.537  22.065  0.00  0.00    +0.000 C 
ATOM      5  C   UNL     1      -1.345  13.129  22.898  0.00  0.00    +0.000 C 
ATOM      6  C   UNL     1      -0.058  10.938  22.337  0.00  0.00    +0.000 C 
ATOM      7  N   UNL     1       0.773  10.407  21.258  0.00  0.00    +0.000 NA
ATOM      8  C   UNL     1      -0.001  10.094  20.027  0.00  0.00    +0.000 C 
ATOM      9  H   UNL     1       1.261   9.575  21.585  0.00  0.00    +0.000 HD
ENDROOT
BRANCH   8  10
ATOM     10  C   UNL     1       1.005   9.617  18.942  0.00  0.00    +0.000 C 
ATOM     11  O   UNL     1       1.160  10.285  17.913  0.00  0.00    +0.000 OA
ATOM     12  N   UNL     1       1.723   8.439  19.139  0.00  0.00    +0.000 N 
ATOM     13  C   UNL     1       2.761   8.129  18.152  0.00  0.00    +0.000 C 
ATOM     14  C   UNL     1       3.081   6.664  18.089  0.00  0.00    +0.000 C 
ATOM     15  C   UNL     1       2.511   5.731  18.871  0.00  0.00    +0.000 C 
ATOM     16  C   UNL     1       1.511   6.106  19.925  0.00  0.00    +0.000 C 
ATOM     17  C   UNL     1       1.674   7.579  20.323  0.00  0.00    +0.000 C 
BRANCH  15  18
ATOM     18  C   UNL     1       2.880   4.319  18.735  0.00  0.00    +0.000 A 
ATOM     19  C   UNL     1       2.260   3.519  17.769  0.00  0.00    +0.000 A 
ATOM     20  C   UNL     1       2.596   2.169  17.650  0.00  0.00    +0.000 A 
ATOM     21  C   UNL     1       3.552   1.611  18.499  0.00  0.00    +0.000 A 
ATOM     22  C   UNL     1       4.170   2.402  19.467  0.00  0.00    +0.000 A 
ATOM     23  C   UNL     1       3.835   3.752  19.587  0.00  0.00    +0.000 A 
ENDBRANCH  15  18
ENDBRANCH   8  10
BRANCH   1  25
ATOM     24  O   UNL     1      -2.332  10.030  18.269  0.00  0.00    +0.000 OA
ATOM     25  C   UNL     1      -1.601  11.020  18.325  0.00  0.00    +0.000 C 
ATOM     26  N   UNL     1      -1.504  11.905  17.280  0.00  0.00    +0.000 N 
ATOM     27  H   UNL     1      -0.666  12.477  17.144  0.00  0.00    +0.000 HD
BRANCH  26  28
ATOM     28  O   UNL     1      -2.240  11.560  16.120  0.00  0.00    +0.000 OA
ATOM     29  H   UNL     1      -1.577  11.687  15.407  0.00  0.00    +0.000 HD
ENDBRANCH  26  28
ENDBRANCH   1  25
TORSDOF 4
ENDMDL
MODEL 4
REMARK VINA RESULT:      -8.1      1.019      1.145
REMARK  Name = 
REMARK  4 active torsions:
REMARK  status: ('A' for Active; 'I' for Inactive)
REMARK    1  A    between atoms: C_2  and  C_5
REMARK    2  A    between atoms: N_3  and  O_4
REMARK    3  A    between atoms: C_12  and  C_13
REMARK    4  A    between atoms: C_18  and  C_19
REMARK                            x       y       z     vdW  Elec       q    Type
REMARK                         _______ _______ _______ _____ _____    ______ ____
ROOT
ATOM      1  C   UNL     1       3.262   5.019  18.171  0.00  0.00    +0.000 C 
ATOM      2  C   UNL     1       3.968   4.392  16.969  0.00  0.00    +0.000 C 
ATOM      3  C   UNL     1       5.210   5.180  16.646  0.00  0.00    +0.000 C 
ATOM      4  C   UNL     1       6.522   4.744  17.265  0.00  0.00    +0.000 C 
ATOM      5  C   UNL     1       6.266   4.497  15.805  0.00  0.00    +0.000 C 
ATOM      6  C   UNL     1       4.943   6.650  16.423  0.00  0.00    +0.000 C 
ATOM      7  N   UNL     1       4.263   7.217  17.586  0.00  0.00    +0.000 NA
ATOM      8  C   UNL     1       2.993   6.518  17.917  0.00  0.00    +0.000 C 
ATOM      9  H   UNL     1       4.085   8.207  17.426  0.00  0.00    +0.000 HD
ENDROOT
BRANCH   8  10
ATOM     10  C   UNL     1       2.417   7.162  19.208  0.00  0.00    +0.000 C 
ATOM     11  O   UNL     1       2.635   6.637  20.306  0.00  0.00    +0.000 OA
ATOM     12  N   UNL     1       1.659   8.328  19.118  0.00  0.00    +0.000 N 
ATOM     13  C   UNL     1       1.278   8.966  20.381  0.00  0.00    +0.000 C 
ATOM     14  C   UNL     1       0.057   9.828  20.249  0.00  0.00    +0.000 C 
ATOM     15  C   UNL     1      -0.605  10.031  19.098  0.00  0.00    +0.000 C 
ATOM     16  C   UNL     1      -0.130   9.423  17.811  0.00  0.00    +0.000 C 
ATOM     17  C   UNL     1       1.363   9.080  17.896  0.00  0.00    +0.000 C 
BRANCH  15  18
ATOM     18  C   UNL     1      -1.796  10.886  19.063  0.00  0.00    +0.000 A 
ATOM     19  C   UNL     1      -2.022  11.819  20.081  0.00  0.00    +0.000 A 
ATOM     20  C   UNL     1      -3.165  12.621  20.059  0.00  0.00    +0.000 A 
ATOM     21  C   UNL     1      -4.088  12.492  19.021  0.00  0.00    +0.000 A 
ATOM     22  C   UNL     1      -3.870  11.561  18.007  0.00  0.00    +0.000 A 
ATOM     23  C   UNL     1      -2.728  10.758  18.027  0.00  0.00    +0.000 A 
ENDBRANCH  15  18
ENDBRANCH   8  10
BRANCH   1  25
ATOM     24  O   UNL     1       1.111   4.088  17.537  0.00  0.00    +0.000 OA
ATOM     25  C   UNL     1       1.955   4.283  18.412  0.00  0.00    +0.000 C 
ATOM     26  N   UNL     1       1.769   3.853  19.702  0.00  0.00    +0.000 N 
ATOM     27  H   UNL     1       2.234   4.315  20.489  0.00  0.00    +0.000 HD
BRANCH  26  28
ATOM     28  O   UNL     1       0.519   3.242  19.967  0.00  0.00    +0.000 OA
ATOM     29  H   UNL     1       0.059   3.325  19.103  0.00  0.00    +0.000 HD
ENDBRANCH  26  28
ENDBRANCH   1  25
TORSDOF 4
ENDMDL
MODEL 5
REMARK VINA RESULT:      -7.8      3.749      9.019
REMARK  Name = 
REMARK  4 active torsions:
REMARK  status: ('A' for Active; 'I' for Inactive)
REMARK    1  A    between atoms: C_2  and  C_5
REMARK    2  A    between atoms: N_3  and  O_4
REMARK    3  A    between atoms: C_12  and  C_13
REMARK    4  A    between atoms: C_18  and  C_19
REMARK                            x       y       z     vdW  Elec       q    Type
REMARK                         _______ _______ _______ _____ _____    ______ ____
ROOT
ATOM      1  C   UNL     1       0.423  13.392  20.316  0.00  0.00    +0.000 C 
ATOM      2  C   UNL     1      -0.306  14.618  19.767  0.00  0.00    +0.000 C 
ATOM      3  C   UNL     1      -1.597  14.816  20.518  0.00  0.00    +0.000 C 
ATOM      4  C   UNL     1      -1.596  15.730  21.726  0.00  0.00    +0.000 C 
ATOM      5  C   UNL     1      -2.238  16.185  20.445  0.00  0.00    +0.000 C 
ATOM      6  C   UNL     1      -2.487  13.596  20.505  0.00  0.00    +0.000 C 
ATOM      7  N   UNL     1      -1.759  12.442  21.031  0.00  0.00    +0.000 NA
ATOM      8  C   UNL     1      -0.504  12.157  20.287  0.00  0.00    +0.000 C 
ATOM      9  H   UNL     1      -2.367  11.624  21.017  0.00  0.00    +0.000 HD
ENDROOT
BRANCH   8  10
ATOM     10  C   UNL     1       0.206  10.966  20.990  0.00  0.00    +0.000 C 
ATOM     11  O   UNL     1       0.463  11.032  22.197  0.00  0.00    +0.000 OA
ATOM     12  N   UNL     1       0.547   9.835  20.252  0.00  0.00    +0.000 N 
ATOM     13  C   UNL     1       1.072   8.692  21.004  0.00  0.00    +0.000 C 
ATOM     14  C   UNL     1       1.913   7.780  20.159  0.00  0.00    +0.000 C 
ATOM     15  C   UNL     1       2.139   7.958  18.846  0.00  0.00    +0.000 C 
ATOM     16  C   UNL     1       1.512   9.099  18.099  0.00  0.00    +0.000 C 
ATOM     17  C   UNL     1       0.263   9.604  18.833  0.00  0.00    +0.000 C 
BRANCH  15  18
ATOM     18  C   UNL     1       2.980   7.019  18.100  0.00  0.00    +0.000 A 
ATOM     19  C   UNL     1       2.749   5.642  18.191  0.00  0.00    +0.000 A 
ATOM     20  C   UNL     1       3.561   4.744  17.494  0.00  0.00    +0.000 A 
ATOM     21  C   UNL     1       4.609   5.218  16.706  0.00  0.00    +0.000 A 
ATOM     22  C   UNL     1       4.847   6.589  16.615  0.00  0.00    +0.000 A 
ATOM     23  C   UNL     1       4.036   7.488  17.311  0.00  0.00    +0.000 A 
ENDBRANCH  15  18
ENDBRANCH   8  10
BRANCH   1  25
ATOM     24  O   UNL     1       2.811  13.235  19.908  0.00  0.00    +0.000 OA
ATOM     25  C   UNL     1       1.662  13.140  19.475  0.00  0.00    +0.000 C 
ATOM     26  N   UNL     1       1.409  12.804  18.168  0.00  0.00    +0.000 N 
ATOM     27  H   UNL     1       0.540  13.087  17.705  0.00  0.00    +0.000 HD
BRANCH  26  28
ATOM     28  O   UNL     1       2.552  12.650  17.346  0.00  0.00    +0.000 OA
ATOM     29  H   UNL     1       2.154  12.467  16.467  0.00  0.00    +0.000 HD
ENDBRANCH  26  28
ENDBRANCH   1  25
TORSDOF 4
ENDMDL
MODEL 6
REMARK VINA RESULT:      -7.5      3.465      8.794
REMARK  Name = 
REMARK  4 active torsions:
REMARK  status: ('A' for Active; 'I' for Inactive)
REMARK    1  A    between atoms: C_2  and  C_5
REMARK    2  A    between atoms: N_3  and  O_4
REMARK    3  A    between atoms: C_12  and  C_13
REMARK    4  A    between atoms: C_18  and  C_19
REMARK                            x       y       z     vdW  Elec       q    Type
REMARK                         _______ _______ _______ _____ _____    ______ ____
ROOT
ATOM      1  C   UNL     1      -1.102  11.776  19.770  0.00  0.00    +0.000 C 
ATOM      2  C   UNL     1      -2.003  12.387  20.844  0.00  0.00    +0.000 C 
ATOM      3  C   UNL     1      -1.214  12.586  22.111  0.00  0.00    +0.000 C 
ATOM      4  C   UNL     1      -0.542  13.925  22.339  0.00  0.00    +0.000 C 
ATOM      5  C   UNL     1      -1.769  13.561  23.127  0.00  0.00    +0.000 C 
ATOM      6  C   UNL     1      -0.548  11.323  22.605  0.00  0.00    +0.000 C 
ATOM      7  N   UNL     1       0.301  10.764  21.554  0.00  0.00    +0.000 NA
ATOM      8  C   UNL     1      -0.439  10.484  20.295  0.00  0.00    +0.000 C 
ATOM      9  H   UNL     1       0.744   9.912  21.895  0.00  0.00    +0.000 HD
ENDROOT
BRANCH   8  10
ATOM     10  C   UNL     1       0.586   9.971  19.245  0.00  0.00    +0.000 C 
ATOM     11  O   UNL     1       0.692  10.550  18.158  0.00  0.00    +0.000 OA
ATOM     12  N   UNL     1       1.377   8.863  19.539  0.00  0.00    +0.000 N 
ATOM     13  C   UNL     1       2.426   8.527  18.572  0.00  0.00    +0.000 C 
ATOM     14  C   UNL     1       2.835   7.084  18.640  0.00  0.00    +0.000 C 
ATOM     15  C   UNL     1       2.330   6.194  19.510  0.00  0.00    +0.000 C 
ATOM     16  C   UNL     1       1.317   6.603  20.539  0.00  0.00    +0.000 C 
ATOM     17  C   UNL     1       1.391   8.113  20.798  0.00  0.00    +0.000 C 
BRANCH  15  18
ATOM     18  C   UNL     1       2.785   4.801  19.500  0.00  0.00    +0.000 A 
ATOM     19  C   UNL     1       4.135   4.502  19.286  0.00  0.00    +0.000 A 
ATOM     20  C   UNL     1       4.567   3.174  19.258  0.00  0.00    +0.000 A 
ATOM     21  C   UNL     1       3.651   2.139  19.441  0.00  0.00    +0.000 A 
ATOM     22  C   UNL     1       2.303   2.430  19.651  0.00  0.00    +0.000 A 
ATOM     23  C   UNL     1       1.870   3.757  19.679  0.00  0.00    +0.000 A 
ENDBRANCH  15  18
ENDBRANCH   8  10
BRANCH   1  25
ATOM     24  O   UNL     1      -2.887  10.690  18.534  0.00  0.00    +0.000 OA
ATOM     25  C   UNL     1      -1.939  11.475  18.539  0.00  0.00    +0.000 C 
ATOM     26  N   UNL     1      -1.549  12.144  17.405  0.00  0.00    +0.000 N 
ATOM     27  H   UNL     1      -0.587  12.475  17.286  0.00  0.00    +0.000 HD
BRANCH  26  28
ATOM     28  O   UNL     1      -2.262  11.811  16.227  0.00  0.00    +0.000 OA
ATOM     29  H   UNL     1      -3.148  12.197  16.403  0.00  0.00    +0.000 HD
ENDBRANCH  26  28
ENDBRANCH   1  25
TORSDOF 4
ENDMDL
MODEL 7
REMARK VINA RESULT:      -7.5      3.536      8.742
REMARK  Name = 
REMARK  4 active torsions:
REMARK  status: ('A' for Active; 'I' for Inactive)
REMARK    1  A    between atoms: C_2  and  C_5
REMARK    2  A    between atoms: N_3  and  O_4
REMARK    3  A    between atoms: C_12  and  C_13
REMARK    4  A    between atoms: C_18  and  C_19
REMARK                            x       y       z     vdW  Elec       q    Type
REMARK                         _______ _______ _______ _____ _____    ______ ____
ROOT
ATOM      1  C   UNL     1      -1.135  11.917  19.273  0.00  0.00    +0.000 C 
ATOM      2  C   UNL     1      -1.994  12.725  20.245  0.00  0.00    +0.000 C 
ATOM      3  C   UNL     1      -1.164  13.128  21.436  0.00  0.00    +0.000 C 
ATOM      4  C   UNL     1      -0.465  14.471  21.407  0.00  0.00    +0.000 C 
ATOM      5  C   UNL     1      -1.674  14.277  22.279  0.00  0.00    +0.000 C 
ATOM      6  C   UNL     1      -0.504  11.958  22.127  0.00  0.00    +0.000 C 
ATOM      7  N   UNL     1       0.304  11.205  21.170  0.00  0.00    +0.000 NA
ATOM      8  C   UNL     1      -0.477  10.724  20.000  0.00  0.00    +0.000 C 
ATOM      9  H   UNL     1       0.743  10.417  21.644  0.00  0.00    +0.000 HD
ENDROOT
BRANCH   8  10
ATOM     10  C   UNL     1       0.508  10.012  19.030  0.00  0.00    +0.000 C 
ATOM     11  O   UNL     1       0.586  10.384  17.854  0.00  0.00    +0.000 OA
ATOM     12  N   UNL     1       1.294   8.961  19.496  0.00  0.00    +0.000 N 
ATOM     13  C   UNL     1       2.308   8.439  18.575  0.00  0.00    +0.000 C 
ATOM     14  C   UNL     1       2.702   7.025  18.889  0.00  0.00    +0.000 C 
ATOM     15  C   UNL     1       2.214   6.315  19.920  0.00  0.00    +0.000 C 
ATOM     16  C   UNL     1       1.239   6.919  20.887  0.00  0.00    +0.000 C 
ATOM     17  C   UNL     1       1.339   8.450  20.868  0.00  0.00    +0.000 C 
BRANCH  15  18
ATOM     18  C   UNL     1       2.651   4.934  20.148  0.00  0.00    +0.000 A 
ATOM     19  C   UNL     1       1.982   4.128  21.076  0.00  0.00    +0.000 A 
ATOM     20  C   UNL     1       2.408   2.818  21.307  0.00  0.00    +0.000 A 
ATOM     21  C   UNL     1       3.507   2.310  20.615  0.00  0.00    +0.000 A 
ATOM     22  C   UNL     1       4.180   3.110  19.693  0.00  0.00    +0.000 A 
ATOM     23  C   UNL     1       3.756   4.420  19.460  0.00  0.00    +0.000 A 
ENDBRANCH  15  18
ENDBRANCH   8  10
BRANCH   1  25
ATOM     24  O   UNL     1      -2.867  10.544  18.267  0.00  0.00    +0.000 OA
ATOM     25  C   UNL     1      -2.013  11.421  18.137  0.00  0.00    +0.000 C 
ATOM     26  N   UNL     1      -1.775  12.022  16.926  0.00  0.00    +0.000 N 
ATOM     27  H   UNL     1      -0.865  12.439  16.709  0.00  0.00    +0.000 HD
BRANCH  26  28
ATOM     28  O   UNL     1      -2.523  11.513  15.836  0.00  0.00    +0.000 OA
ATOM     29  H   UNL     1      -2.610  12.302  15.257  0.00  0.00    +0.000 HD
ENDBRANCH  26  28
ENDBRANCH   1  25
TORSDOF 4
ENDMDL
MODEL 8
REMARK VINA RESULT:      -7.4      1.073      1.231
REMARK  Name = 
REMARK  4 active torsions:
REMARK  status: ('A' for Active; 'I' for Inactive)
REMARK    1  A    between atoms: C_2  and  C_5
REMARK    2  A    between atoms: N_3  and  O_4
REMARK    3  A    between atoms: C_12  and  C_13
REMARK    4  A    between atoms: C_18  and  C_19
REMARK                            x       y       z     vdW  Elec       q    Type
REMARK                         _______ _______ _______ _____ _____    ______ ____
ROOT
ATOM      1  C   UNL     1       4.251   4.118  18.170  0.00  0.00    +0.000 C 
ATOM      2  C   UNL     1       5.042   3.626  16.959  0.00  0.00    +0.000 C 
ATOM      3  C   UNL     1       5.861   4.758  16.397  0.00  0.00    +0.000 C 
ATOM      4  C   UNL     1       7.287   4.927  16.882  0.00  0.00    +0.000 C 
ATOM      5  C   UNL     1       7.026   4.394  15.501  0.00  0.00    +0.000 C 
ATOM      6  C   UNL     1       5.039   5.979  16.058  0.00  0.00    +0.000 C 
ATOM      7  N   UNL     1       4.293   6.420  17.235  0.00  0.00    +0.000 NA
ATOM      8  C   UNL     1       3.414   5.361  17.798  0.00  0.00    +0.000 C 
ATOM      9  H   UNL     1       3.740   7.242  16.997  0.00  0.00    +0.000 HD
ENDROOT
BRANCH   8  10
ATOM     10  C   UNL     1       2.744   5.930  19.080  0.00  0.00    +0.000 C 
ATOM     11  O   UNL     1       2.509   5.180  20.034  0.00  0.00    +0.000 OA
ATOM     12  N   UNL     1       2.414   7.282  19.142  0.00  0.00    +0.000 N 
ATOM     13  C   UNL     1       1.928   7.783  20.431  0.00  0.00    +0.000 C 
ATOM     14  C   UNL     1       1.092   9.021  20.294  0.00  0.00    +0.000 C 
ATOM     15  C   UNL     1       0.838   9.637  19.127  0.00  0.00    +0.000 C 
ATOM     16  C   UNL     1       1.425   9.135  17.840  0.00  0.00    +0.000 C 
ATOM     17  C   UNL     1       2.676   8.290  18.112  0.00  0.00    +0.000 C 
BRANCH  15  18
ATOM     18  C   UNL     1       0.003  10.841  19.085  0.00  0.00    +0.000 A 
ATOM     19  C   UNL     1       0.583  12.091  18.839  0.00  0.00    +0.000 A 
ATOM     20  C   UNL     1      -0.208  13.242  18.817  0.00  0.00    +0.000 A 
ATOM     21  C   UNL     1      -1.582  13.149  19.043  0.00  0.00    +0.000 A 
ATOM     22  C   UNL     1      -2.164  11.907  19.292  0.00  0.00    +0.000 A 
ATOM     23  C   UNL     1      -1.375  10.755  19.315  0.00  0.00    +0.000 A 
ENDBRANCH  15  18
ENDBRANCH   8  10
BRANCH   1  25
ATOM     24  O   UNL     1       3.609   2.274  19.613  0.00  0.00    +0.000 OA
ATOM     25  C   UNL     1       3.346   2.999  18.654  0.00  0.00    +0.000 C 
ATOM     26  N   UNL     1       2.194   2.838  17.924  0.00  0.00    +0.000 N 
ATOM     27  H   UNL     1       2.137   3.140  16.946  0.00  0.00    +0.000 HD
BRANCH  26  28
ATOM     28  O   UNL     1       1.379   1.745  18.305  0.00  0.00    +0.000 OA
ATOM     29  H   UNL     1       2.013   0.995  18.288  0.00  0.00    +0.000 HD
ENDBRANCH  26  28
ENDBRANCH   1  25
TORSDOF 4
ENDMDL
MODEL 9
REMARK VINA RESULT:      -7.3      2.498      3.738
REMARK  Name = 
REMARK  4 active torsions:
REMARK  status: ('A' for Active; 'I' for Inactive)
REMARK    1  A    between atoms: C_2  and  C_5
REMARK    2  A    between atoms: N_3  and  O_4
REMARK    3  A    between atoms: C_12  and  C_13
REMARK    4  A    between atoms: C_18  and  C_19
REMARK                            x       y       z     vdW  Elec       q    Type
REMARK                         _______ _______ _______ _____ _____    ______ ____
ROOT
ATOM      1  C   UNL     1       4.623   4.957  18.068  0.00  0.00    +0.000 C 
ATOM      2  C   UNL     1       4.921   3.548  18.579  0.00  0.00    +0.000 C 
ATOM      3  C   UNL     1       3.629   2.808  18.802  0.00  0.00    +0.000 C 
ATOM      4  C   UNL     1       3.080   1.959  17.674  0.00  0.00    +0.000 C 
ATOM      5  C   UNL     1       3.698   1.298  18.875  0.00  0.00    +0.000 C 
ATOM      6  C   UNL     1       2.674   3.536  19.719  0.00  0.00    +0.000 C 
ATOM      7  N   UNL     1       2.415   4.880  19.205  0.00  0.00    +0.000 NA
ATOM      8  C   UNL     1       3.653   5.683  19.024  0.00  0.00    +0.000 C 
ATOM      9  H   UNL     1       1.772   5.363  19.830  0.00  0.00    +0.000 HD
ENDROOT
BRANCH   8  10
ATOM     10  C   UNL     1       3.247   7.050  18.404  0.00  0.00    +0.000 C 
ATOM     11  O   UNL     1       3.838   7.468  17.402  0.00  0.00    +0.000 OA
ATOM     12  N   UNL     1       2.219   7.791  18.982  0.00  0.00    +0.000 N 
ATOM     13  C   UNL     1       1.785   8.990  18.260  0.00  0.00    +0.000 C 
ATOM     14  C   UNL     1       1.128   9.999  19.156  0.00  0.00    +0.000 C 
ATOM     15  C   UNL     1       0.920   9.822  20.471  0.00  0.00    +0.000 C 
ATOM     16  C   UNL     1       1.307   8.542  21.153  0.00  0.00    +0.000 C 
ATOM     17  C   UNL     1       1.406   7.398  20.135  0.00  0.00    +0.000 C 
BRANCH  15  18
ATOM     18  C   UNL     1       0.274  10.866  21.272  0.00  0.00    +0.000 A 
ATOM     19  C   UNL     1      -0.606  10.519  22.303  0.00  0.00    +0.000 A 
ATOM     20  C   UNL     1      -1.236  11.513  23.056  0.00  0.00    +0.000 A 
ATOM     21  C   UNL     1      -0.991  12.858  22.779  0.00  0.00    +0.000 A 
ATOM     22  C   UNL     1      -0.118  13.209  21.750  0.00  0.00    +0.000 A 
ATOM     23  C   UNL     1       0.512  12.217  20.996  0.00  0.00    +0.000 A 
ENDBRANCH  15  18
ENDBRANCH   8  10
BRANCH   1  25
ATOM     24  O   UNL     1       6.595   6.081  18.931  0.00  0.00    +0.000 OA
ATOM     25  C   UNL     1       5.928   5.727  17.958  0.00  0.00    +0.000 C 
ATOM     26  N   UNL     1       6.316   6.017  16.674  0.00  0.00    +0.000 N 
ATOM     27  H   UNL     1       5.632   6.083  15.914  0.00  0.00    +0.000 HD
BRANCH  26  28
ATOM     28  O   UNL     1       7.484   6.809  16.554  0.00  0.00    +0.000 OA
ATOM     29  H   UNL     1       7.897   6.706  17.439  0.00  0.00    +0.000 HD
ENDBRANCH  26  28
ENDBRANCH   1  25
TORSDOF 4
ENDMDL
