MODEL 1
REMARK VINA RESULT:      -8.2      0.000      0.000
REMARK  Name = 
REMARK  4 active torsions:
REMARK  status: ('A' for Active; 'I' for Inactive)
REMARK    1  A    between atoms: C_1  and  C_2
REMARK    2  A    between atoms: C_5  and  C_6
REMARK    3  A    between atoms: C_14  and  C_15
REMARK    4  A    between atoms: C_19  and  N_20
REMARK                            x       y       z     vdW  Elec       q    Type
REMARK                         _______ _______ _______ _____ _____    ______ ____
ROOT
ATOM      1  C   UNL     1       4.135   5.477  18.654  0.00  0.00    +0.000 A 
ATOM      2  C   UNL     1       3.710   4.727  19.726  0.00  0.00    +0.000 A 
ATOM      3  N   UNL     1       2.667   5.130  20.461  0.00  0.00    +0.000 NA
ATOM      4  N   UNL     1       2.055   6.295  20.107  0.00  0.00    +0.000 NA
ATOM      5  C   UNL     1       2.469   7.011  19.031  0.00  0.00    +0.000 A 
ATOM      6  N   UNL     1       1.800   8.174  18.720  0.00  0.00    +0.000 N 
ATOM      7  C   UNL     1       2.200   9.028  17.619  0.00  0.00    +0.000 C 
ATOM      8  C   UNL     1       2.009  10.452  18.142  0.00  0.00    +0.000 C 
ATOM      9  C   UNL     1       0.990  10.345  19.283  0.00  0.00    +0.000 C 
ATOM     10  C   UNL     1       1.183   8.914  19.816  0.00  0.00    +0.000 C 
ATOM     11  N   UNL     1       3.508   6.618  18.275  0.00  0.00    +0.000 NA
ENDROOT
BRANCH   1  16
ATOM     12  C   UNL     1       6.325   4.003  14.636  0.00  0.00    +0.000 C 
ATOM     13  C   UNL     1       6.324   4.433  16.049  0.00  0.00    +0.000 A 
ATOM     14  C   UNL     1       7.310   4.566  17.002  0.00  0.00    +0.000 A 
ATOM     15  C   UNL     1       6.663   5.011  18.182  0.00  0.00    +0.000 A 
ATOM     16  C   UNL     1       5.319   5.121  17.885  0.00  0.00    +0.000 A 
ATOM     17  O   UNL     1       5.115   4.773  16.576  0.00  0.00    +0.000 OA
ENDBRANCH   1  16
BRANCH   9  18
ATOM     18  C   UNL     1      -0.436  10.680  18.888  0.00  0.00    +0.000 A 
ATOM     19  C   UNL     1      -1.114  10.004  17.866  0.00  0.00    +0.000 A 
ATOM     20  C   UNL     1      -2.417  10.368  17.520  0.00  0.00    +0.000 A 
ATOM     21  C   UNL     1      -3.068  11.390  18.213  0.00  0.00    +0.000 A 
ATOM     22  C   UNL     1      -2.448  12.026  19.287  0.00  0.00    +0.000 A 
ATOM     23  C   UNL     1      -1.116  11.705  19.575  0.00  0.00    +0.000 A 
BRANCH  22  24
ATOM     24  N   UNL     1      -3.061  13.119  19.911  0.00  0.00    +0.000 N 
ATOM     25  H   UNL     1      -3.047  13.964  19.349  0.00  0.00    +0.000 HD
ATOM     26  H   UNL     1      -3.991  12.914  20.266  0.00  0.00    +0.000 HD
ENDBRANCH  22  24
ENDBRANCH   9  18
TORSDOF 3
ENDMDL
MODEL 2
REMARK VINA RESULT:      -8.0      1.021      1.417
REMARK  Name = 
REMARK  4 active torsions:
REMARK  status: ('A' for Active; 'I' for Inactive)
REMARK    1  A    between atoms: C_1  and  C_2
REMARK    2  A    between atoms: C_5  and  C_6
REMARK    3  A    between atoms: C_14  and  C_15
REMARK    4  A    between atoms: C_19  and  N_20
REMARK                            x       y       z     vdW  Elec       q    Type
REMARK                         _______ _______ _______ _____ _____    ______ ____
ROOT
ATOM      1  C   UNL     1       4.117   5.463  18.636  0.00  0.00    +0.000 A 
ATOM      2  C   UNL     1       3.684   4.705  19.699  0.00  0.00    +0.000 A 
ATOM      3  N   UNL     1       2.644   5.110  20.437  0.00  0.00    +0.000 NA
ATOM      4  N   UNL     1       2.043   6.284  20.094  0.00  0.00    +0.000 NA
ATOM      5  C   UNL     1       2.465   7.008  19.027  0.00  0.00    +0.000 A 
ATOM      6  N   UNL     1       1.806   8.180  18.727  0.00  0.00    +0.000 N 
ATOM      7  C   UNL     1       2.215   9.042  17.636  0.00  0.00    +0.000 C 
ATOM      8  C   UNL     1       2.036  10.461  18.174  0.00  0.00    +0.000 C 
ATOM      9  C   UNL     1       1.015  10.351  19.313  0.00  0.00    +0.000 C 
ATOM     10  C   UNL     1       1.194   8.913  19.831  0.00  0.00    +0.000 C 
ATOM     11  N   UNL     1       3.501   6.614  18.267  0.00  0.00    +0.000 NA
ENDROOT
BRANCH   1  16
ATOM     12  C   UNL     1       6.300   4.019  14.603  0.00  0.00    +0.000 C 
ATOM     13  C   UNL     1       6.301   4.431  16.021  0.00  0.00    +0.000 A 
ATOM     14  C   UNL     1       7.286   4.541  16.978  0.00  0.00    +0.000 A 
ATOM     15  C   UNL     1       6.641   4.977  18.162  0.00  0.00    +0.000 A 
ATOM     16  C   UNL     1       5.300   5.105  17.864  0.00  0.00    +0.000 A 
ATOM     17  O   UNL     1       5.095   4.776  16.550  0.00  0.00    +0.000 OA
ENDBRANCH   1  16
BRANCH   9  18
ATOM     18  C   UNL     1      -0.408  10.703  18.919  0.00  0.00    +0.000 A 
ATOM     19  C   UNL     1      -1.186  11.616  19.641  0.00  0.00    +0.000 A 
ATOM     20  C   UNL     1      -2.501  11.885  19.256  0.00  0.00    +0.000 A 
ATOM     21  C   UNL     1      -3.042  11.270  18.126  0.00  0.00    +0.000 A 
ATOM     22  C   UNL     1      -2.266  10.418  17.343  0.00  0.00    +0.000 A 
ATOM     23  C   UNL     1      -0.976  10.097  17.781  0.00  0.00    +0.000 A 
BRANCH  22  24
ATOM     24  N   UNL     1      -2.841   9.722  16.272  0.00  0.00    +0.000 N 
ATOM     25  H   UNL     1      -2.954  10.289  15.438  0.00  0.00    +0.000 HD
ATOM     26  H   UNL     1      -2.384   8.837  16.071  0.00  0.00    +0.000 HD
ENDBRANCH  22  24
ENDBRANCH   9  18
TORSDOF 3
ENDMDL
MODEL 3
REMARK VINA RESULT:      -7.4      4.031      6.353
REMARK  Name = 
REMARK  4 active torsions:
REMARK  status: ('A' for Active; 'I' for Inactive)
REMARK    1  A    between atoms: C_1  and  C_2
REMARK    2  A    between atoms: C_5  and  C_6
REMARK    3  A    between atoms: C_14  and  C_15
REMARK    4  A    between atoms: C_19  and  N_20
REMARK                            x       y       z     vdW  Elec       q    Type
REMARK                         _______ _______ _______ _____ _____    ______ ____
ROOT
ATOM      1  C   UNL     1       0.657   9.592  21.012  0.00  0.00    +0.000 A 
ATOM      2  C   UNL     1       1.084   9.130  22.235  0.00  0.00    +0.000 A 
ATOM      3  N   UNL     1       0.561   9.625  23.363  0.00  0.00    +0.000 NA
ATOM      4  N   UNL     1      -0.395  10.588  23.248  0.00  0.00    +0.000 NA
ATOM      5  C   UNL     1      -0.825  11.016  22.034  0.00  0.00    +0.000 A 
ATOM      6  N   UNL     1      -1.803  11.985  21.988  0.00  0.00    +0.000 N 
ATOM      7  C   UNL     1      -2.289  12.537  20.739  0.00  0.00    +0.000 C 
ATOM      8  C   UNL     1      -2.484  14.026  21.022  0.00  0.00    +0.000 C 
ATOM      9  C   UNL     1      -2.645  14.146  22.542  0.00  0.00    +0.000 C 
ATOM     10  C   UNL     1      -1.863  12.939  23.091  0.00  0.00    +0.000 C 
ATOM     11  N   UNL     1      -0.319  10.525  20.890  0.00  0.00    +0.000 NA
ENDROOT
BRANCH   1  16
ATOM     12  C   UNL     1       3.238   6.492  18.396  0.00  0.00    +0.000 C 
ATOM     13  C   UNL     1       2.457   7.734  18.567  0.00  0.00    +0.000 A 
ATOM     14  C   UNL     1       2.136   8.778  17.727  0.00  0.00    +0.000 A 
ATOM     15  C   UNL     1       1.366   9.685  18.498  0.00  0.00    +0.000 A 
ATOM     16  C   UNL     1       1.264   9.147  19.765  0.00  0.00    +0.000 A 
ATOM     17  O   UNL     1       1.927   7.949  19.802  0.00  0.00    +0.000 OA
ENDBRANCH   1  16
BRANCH   9  18
ATOM     18  C   UNL     1      -4.083  14.231  23.019  0.00  0.00    +0.000 A 
ATOM     19  C   UNL     1      -4.745  15.451  23.204  0.00  0.00    +0.000 A 
ATOM     20  C   UNL     1      -6.060  15.478  23.672  0.00  0.00    +0.000 A 
ATOM     21  C   UNL     1      -6.739  14.287  23.931  0.00  0.00    +0.000 A 
ATOM     22  C   UNL     1      -6.132  13.057  23.681  0.00  0.00    +0.000 A 
ATOM     23  C   UNL     1      -4.790  13.042  23.284  0.00  0.00    +0.000 A 
BRANCH  22  24
ATOM     24  N   UNL     1      -6.775  11.866  24.039  0.00  0.00    +0.000 N 
ATOM     25  H   UNL     1      -6.455  11.060  23.511  0.00  0.00    +0.000 HD
ATOM     26  H   UNL     1      -6.775  11.689  25.039  0.00  0.00    +0.000 HD
ENDBRANCH  22  24
ENDBRANCH   9  18
TORSDOF 3
ENDMDL
MODEL 4
REMARK VINA RESULT:      -7.3      2.549      8.366
REMARK  Name = 
REMARK  4 active torsions:
REMARK  status: ('A' for Active; 'I' for Inactive)
REMARK    1  A    between atoms: C_1  and  C_2
REMARK    2  A    between atoms: C_5  and  C_6
REMARK    3  A    between atoms: C_14  and  C_15
REMARK    4  A    between atoms: C_19  and  N_20
REMARK                            x       y       z     vdW  Elec       q    Type
REMARK                         _______ _______ _______ _____ _____    ______ ____
ROOT
ATOM      1  C   UNL     1       0.130   9.909  20.527  0.00  0.00    +0.000 A 
ATOM      2  C   UNL     1       0.383   9.877  21.879  0.00  0.00    +0.000 A 
ATOM      3  N   UNL     1       1.298   9.036  22.375  0.00  0.00    +0.000 NA
ATOM      4  N   UNL     1       1.956   8.228  21.498  0.00  0.00    +0.000 NA
ATOM      5  C   UNL     1       1.715   8.288  20.164  0.00  0.00    +0.000 A 
ATOM      6  N   UNL     1       2.424   7.452  19.330  0.00  0.00    +0.000 N 
ATOM      7  C   UNL     1       2.199   7.413  17.898  0.00  0.00    +0.000 C 
ATOM      8  C   UNL     1       2.304   5.933  17.529  0.00  0.00    +0.000 C 
ATOM      9  C   UNL     1       3.133   5.282  18.643  0.00  0.00    +0.000 C 
ATOM     10  C   UNL     1       2.861   6.169  19.871  0.00  0.00    +0.000 C 
ATOM     11  N   UNL     1       0.807   9.133  19.645  0.00  0.00    +0.000 NA
ENDROOT
BRANCH   1  16
ATOM     12  C   UNL     1      -2.985  11.061  17.051  0.00  0.00    +0.000 C 
ATOM     13  C   UNL     1      -2.338  11.281  18.361  0.00  0.00    +0.000 A 
ATOM     14  C   UNL     1      -2.456  12.256  19.326  0.00  0.00    +0.000 A 
ATOM     15  C   UNL     1      -1.544  11.908  20.355  0.00  0.00    +0.000 A 
ATOM     16  C   UNL     1      -0.919  10.743  19.958  0.00  0.00    +0.000 A 
ATOM     17  O   UNL     1      -1.412  10.358  18.740  0.00  0.00    +0.000 OA
ENDBRANCH   1  16
BRANCH   9  18
ATOM     18  C   UNL     1       4.603   5.102  18.313  0.00  0.00    +0.000 A 
ATOM     19  C   UNL     1       5.045   4.642  17.067  0.00  0.00    +0.000 A 
ATOM     20  C   UNL     1       6.409   4.466  16.821  0.00  0.00    +0.000 A 
ATOM     21  C   UNL     1       7.347   4.778  17.806  0.00  0.00    +0.000 A 
ATOM     22  C   UNL     1       6.940   5.314  19.027  0.00  0.00    +0.000 A 
ATOM     23  C   UNL     1       5.569   5.414  19.290  0.00  0.00    +0.000 A 
BRANCH  22  24
ATOM     24  N   UNL     1       7.873   5.528  20.049  0.00  0.00    +0.000 N 
ATOM     25  H   UNL     1       8.235   4.669  20.451  0.00  0.00    +0.000 HD
ATOM     26  H   UNL     1       8.616   6.170  19.792  0.00  0.00    +0.000 HD
ENDBRANCH  22  24
ENDBRANCH   9  18
TORSDOF 3
ENDMDL
MODEL 5
REMARK VINA RESULT:      -7.2      4.167      6.490
REMARK  Name = 
REMARK  4 active torsions:
REMARK  status: ('A' for Active; 'I' for Inactive)
REMARK    1  A    between atoms: C_1  and  C_2
REMARK    2  A    between atoms: C_5  and  C_6
REMARK    3  A    between atoms: C_14  and  C_15
REMARK    4  A    between atoms: C_19  and  N_20
REMARK                            x       y       z     vdW  Elec       q    Type
REMARK                         _______ _______ _______ _____ _____    ______ ____
ROOT
ATOM      1  C   UNL     1       0.569   9.698  21.047  0.00  0.00    +0.000 A 
ATOM      2  C   UNL     1       1.034   9.251  22.263  0.00  0.00    +0.000 A 
ATOM      3  N   UNL     1       0.506   9.720  23.399  0.00  0.00    +0.000 NA
ATOM      4  N   UNL     1      -0.494  10.640  23.302  0.00  0.00    +0.000 NA
ATOM      5  C   UNL     1      -0.959  11.052  22.096  0.00  0.00    +0.000 A 
ATOM      6  N   UNL     1      -1.980  11.976  22.067  0.00  0.00    +0.000 N 
ATOM      7  C   UNL     1      -2.509  12.509  20.827  0.00  0.00    +0.000 C 
ATOM      8  C   UNL     1      -2.765  13.988  21.118  0.00  0.00    +0.000 C 
ATOM      9  C   UNL     1      -2.909  14.096  22.640  0.00  0.00    +0.000 C 
ATOM     10  C   UNL     1      -2.066  12.923  23.174  0.00  0.00    +0.000 C 
ATOM     11  N   UNL     1      -0.449  10.587  20.942  0.00  0.00    +0.000 NA
ENDROOT
BRANCH   1  16
ATOM     12  C   UNL     1       3.147   6.660  18.356  0.00  0.00    +0.000 C 
ATOM     13  C   UNL     1       2.368   7.899  18.557  0.00  0.00    +0.000 A 
ATOM     14  C   UNL     1       2.051   8.964  17.744  0.00  0.00    +0.000 A 
ATOM     15  C   UNL     1       1.282   9.853  18.537  0.00  0.00    +0.000 A 
ATOM     16  C   UNL     1       1.176   9.283  19.790  0.00  0.00    +0.000 A 
ATOM     17  O   UNL     1       1.837   8.083  19.798  0.00  0.00    +0.000 OA
ENDBRANCH   1  16
BRANCH   9  18
ATOM     18  C   UNL     1      -4.342  14.116  23.139  0.00  0.00    +0.000 A 
ATOM     19  C   UNL     1      -4.976  12.981  23.657  0.00  0.00    +0.000 A 
ATOM     20  C   UNL     1      -6.307  13.043  24.077  0.00  0.00    +0.000 A 
ATOM     21  C   UNL     1      -7.008  14.248  24.014  0.00  0.00    +0.000 A 
ATOM     22  C   UNL     1      -6.378  15.413  23.577  0.00  0.00    +0.000 A 
ATOM     23  C   UNL     1      -5.069  15.322  23.088  0.00  0.00    +0.000 A 
BRANCH  22  24
ATOM     24  N   UNL     1      -7.111  16.594  23.416  0.00  0.00    +0.000 N 
ATOM     25  H   UNL     1      -6.601  17.426  23.696  0.00  0.00    +0.000 HD
ATOM     26  H   UNL     1      -7.523  16.694  22.493  0.00  0.00    +0.000 HD
ENDBRANCH  22  24
ENDBRANCH   9  18
TORSDOF 3
ENDMDL
MODEL 6
REMARK VINA RESULT:      -7.2      2.609      8.424
REMARK  Name = 
REMARK  4 active torsions:
REMARK  status: ('A' for Active; 'I' for Inactive)
REMARK    1  A    between atoms: C_1  and  C_2
REMARK    2  A    between atoms: C_5  and  C_6
REMARK    3  A    between atoms: C_14  and  C_15
REMARK    4  A    between atoms: C_19  and  N_20
REMARK                            x       y       z     vdW  Elec       q    Type
REMARK                         _______ _______ _______ _____ _____    ______ ____
ROOT
ATOM      1  C   UNL     1      -0.158  10.016  20.512  0.00  0.00    +0.000 A 
ATOM      2  C   UNL     1      -0.059   9.846  21.874  0.00  0.00    +0.000 A 
ATOM      3  N   UNL     1       0.824   8.980  22.383  0.00  0.00    +0.000 NA
ATOM      4  N   UNL     1       1.607   8.286  21.510  0.00  0.00    +0.000 NA
ATOM      5  C   UNL     1       1.516   8.483  20.171  0.00  0.00    +0.000 A 
ATOM      6  N   UNL     1       2.346   7.758  19.343  0.00  0.00    +0.000 N 
ATOM      7  C   UNL     1       2.287   7.867  17.899  0.00  0.00    +0.000 C 
ATOM      8  C   UNL     1       2.487   6.438  17.393  0.00  0.00    +0.000 C 
ATOM      9  C   UNL     1       3.208   5.692  18.523  0.00  0.00    +0.000 C 
ATOM     10  C   UNL     1       2.766   6.436  19.796  0.00  0.00    +0.000 C 
ATOM     11  N   UNL     1       0.643   9.355  19.640  0.00  0.00    +0.000 NA
ENDROOT
BRANCH   1  16
ATOM     12  C   UNL     1      -3.149  11.247  16.955  0.00  0.00    +0.000 C 
ATOM     13  C   UNL     1      -2.528  11.454  18.280  0.00  0.00    +0.000 A 
ATOM     14  C   UNL     1      -2.639  12.437  19.238  0.00  0.00    +0.000 A 
ATOM     15  C   UNL     1      -1.764  12.066  20.290  0.00  0.00    +0.000 A 
ATOM     16  C   UNL     1      -1.166  10.880  19.914  0.00  0.00    +0.000 A 
ATOM     17  O   UNL     1      -1.641  10.504  18.685  0.00  0.00    +0.000 OA
ENDBRANCH   1  16
BRANCH   9  18
ATOM     18  C   UNL     1       4.712   5.586  18.350  0.00  0.00    +0.000 A 
ATOM     19  C   UNL     1       5.584   5.398  19.429  0.00  0.00    +0.000 A 
ATOM     20  C   UNL     1       6.963   5.335  19.221  0.00  0.00    +0.000 A 
ATOM     21  C   UNL     1       7.484   5.426  17.930  0.00  0.00    +0.000 A 
ATOM     22  C   UNL     1       6.636   5.533  16.829  0.00  0.00    +0.000 A 
ATOM     23  C   UNL     1       5.262   5.672  17.055  0.00  0.00    +0.000 A 
BRANCH  22  24
ATOM     24  N   UNL     1       7.164   5.728  15.547  0.00  0.00    +0.000 N 
ATOM     25  H   UNL     1       8.127   5.420  15.457  0.00  0.00    +0.000 HD
ATOM     26  H   UNL     1       6.576   5.359  14.806  0.00  0.00    +0.000 HD
ENDBRANCH  22  24
ENDBRANCH   9  18
TORSDOF 3
ENDMDL
MODEL 7
REMARK VINA RESULT:      -7.1      2.783      8.627
REMARK  Name = 
REMARK  4 active torsions:
REMARK  status: ('A' for Active; 'I' for Inactive)
REMARK    1  A    between atoms: C_1  and  C_2
REMARK    2  A    between atoms: C_5  and  C_6
REMARK    3  A    between atoms: C_14  and  C_15
REMARK    4  A    between atoms: C_19  and  N_20
REMARK                            x       y       z     vdW  Elec       q    Type
REMARK                         _______ _______ _______ _____ _____    ______ ____
ROOT
ATOM      1  C   UNL     1       0.121   9.942  20.476  0.00  0.00    +0.000 A 
ATOM      2  C   UNL     1       0.376   9.930  21.828  0.00  0.00    +0.000 A 
ATOM      3  N   UNL     1       1.290   9.094  22.334  0.00  0.00    +0.000 NA
ATOM      4  N   UNL     1       1.946   8.272  21.468  0.00  0.00    +0.000 NA
ATOM      5  C   UNL     1       1.703   8.314  20.134  0.00  0.00    +0.000 A 
ATOM      6  N   UNL     1       2.409   7.464  19.312  0.00  0.00    +0.000 N 
ATOM      7  C   UNL     1       2.182   7.404  17.881  0.00  0.00    +0.000 C 
ATOM      8  C   UNL     1       2.284   5.919  17.533  0.00  0.00    +0.000 C 
ATOM      9  C   UNL     1       3.114   5.283  18.655  0.00  0.00    +0.000 C 
ATOM     10  C   UNL     1       2.845   6.188  19.871  0.00  0.00    +0.000 C 
ATOM     11  N   UNL     1       0.795   9.152  19.605  0.00  0.00    +0.000 NA
ENDROOT
BRANCH   1  16
ATOM     12  C   UNL     1      -3.246  13.364  20.744  0.00  0.00    +0.000 C 
ATOM     13  C   UNL     1      -2.481  12.328  20.020  0.00  0.00    +0.000 A 
ATOM     14  C   UNL     1      -2.540  11.824  18.740  0.00  0.00    +0.000 A 
ATOM     15  C   UNL     1      -1.540  10.823  18.661  0.00  0.00    +0.000 A 
ATOM     16  C   UNL     1      -0.928  10.769  19.897  0.00  0.00    +0.000 A 
ATOM     17  O   UNL     1      -1.503  11.696  20.726  0.00  0.00    +0.000 OA
ENDBRANCH   1  16
BRANCH   9  18
ATOM     18  C   UNL     1       4.583   5.096  18.325  0.00  0.00    +0.000 A 
ATOM     19  C   UNL     1       5.023   4.615  17.086  0.00  0.00    +0.000 A 
ATOM     20  C   UNL     1       6.385   4.434  16.841  0.00  0.00    +0.000 A 
ATOM     21  C   UNL     1       7.325   4.761  17.819  0.00  0.00    +0.000 A 
ATOM     22  C   UNL     1       6.922   5.317  19.032  0.00  0.00    +0.000 A 
ATOM     23  C   UNL     1       5.551   5.423  19.296  0.00  0.00    +0.000 A 
BRANCH  22  24
ATOM     24  N   UNL     1       7.856   5.546  20.049  0.00  0.00    +0.000 N 
ATOM     25  H   UNL     1       7.688   4.992  20.883  0.00  0.00    +0.000 HD
ATOM     26  H   UNL     1       8.820   5.480  19.737  0.00  0.00    +0.000 HD
ENDBRANCH  22  24
ENDBRANCH   9  18
TORSDOF 3
ENDMDL
MODEL 8
REMARK VINA RESULT:      -7.1      1.183      1.788
REMARK  Name = 
REMARK  4 active torsions:
REMARK  status: ('A' for Active; 'I' for Inactive)
REMARK    1  A    between atoms: C_1  and  C_2
REMARK    2  A    between atoms: C_5  and  C_6
REMARK    3  A    between atoms: C_14  and  C_15
REMARK    4  A    between atoms: C_19  and  N_20
REMARK                            x       y       z     vdW  Elec       q    Type
REMARK                         _______ _______ _______ _____ _____    ______ ____
ROOT
ATOM      1  C   UNL     1       3.412   5.452  18.894  0.00  0.00    +0.000 A 
ATOM      2  C   UNL     1       3.068   4.808  20.060  0.00  0.00    +0.000 A 
ATOM      3  N   UNL     1       2.190   5.362  20.903  0.00  0.00    +0.000 NA
ATOM      4  N   UNL     1       1.659   6.570  20.562  0.00  0.00    +0.000 NA
ATOM      5  C   UNL     1       1.987   7.181  19.396  0.00  0.00    +0.000 A 
ATOM      6  N   UNL     1       1.406   8.395  19.105  0.00  0.00    +0.000 N 
ATOM      7  C   UNL     1       1.731   9.144  17.907  0.00  0.00    +0.000 C 
ATOM      8  C   UNL     1       1.768  10.604  18.359  0.00  0.00    +0.000 C 
ATOM      9  C   UNL     1       0.917  10.669  19.633  0.00  0.00    +0.000 C 
ATOM     10  C   UNL     1       1.033   9.253  20.226  0.00  0.00    +0.000 C 
ATOM     11  N   UNL     1       2.860   6.637  18.531  0.00  0.00    +0.000 NA
ENDROOT
BRANCH   1  16
ATOM     12  C   UNL     1       7.977   4.550  17.688  0.00  0.00    +0.000 C 
ATOM     13  C   UNL     1       6.522   4.526  17.433  0.00  0.00    +0.000 A 
ATOM     14  C   UNL     1       5.751   4.108  16.372  0.00  0.00    +0.000 A 
ATOM     15  C   UNL     1       4.405   4.365  16.735  0.00  0.00    +0.000 A 
ATOM     16  C   UNL     1       4.430   4.928  17.995  0.00  0.00    +0.000 A 
ATOM     17  O   UNL     1       5.728   5.020  18.423  0.00  0.00    +0.000 OA
ENDBRANCH   1  16
BRANCH   9  18
ATOM     18  C   UNL     1      -0.508  11.142  19.417  0.00  0.00    +0.000 A 
ATOM     19  C   UNL     1      -1.054  12.232  20.106  0.00  0.00    +0.000 A 
ATOM     20  C   UNL     1      -2.380  12.613  19.892  0.00  0.00    +0.000 A 
ATOM     21  C   UNL     1      -3.167  11.928  18.965  0.00  0.00    +0.000 A 
ATOM     22  C   UNL     1      -2.627  10.890  18.206  0.00  0.00    +0.000 A 
ATOM     23  C   UNL     1      -1.321  10.469  18.483  0.00  0.00    +0.000 A 
BRANCH  22  24
ATOM     24  N   UNL     1      -3.445  10.139  17.354  0.00  0.00    +0.000 N 
ATOM     25  H   UNL     1      -4.431  10.368  17.437  0.00  0.00    +0.000 HD
ATOM     26  H   UNL     1      -3.135  10.142  16.387  0.00  0.00    +0.000 HD
ENDBRANCH  22  24
ENDBRANCH   9  18
TORSDOF 3
ENDMDL
MODEL 9
REMARK VINA RESULT:      -7.1      1.952      2.531
REMARK  Name = 
REMARK  4 active torsions:
REMARK  status: ('A' for Active; 'I' for Inactive)
REMARK    1  A    between atoms: C_1  and  C_2
REMARK    2  A    between atoms: C_5  and  C_6
REMARK    3  A    between atoms: C_14  and  C_15
REMARK    4  A    between atoms: C_19  and  N_20
REMARK                            x       y       z     vdW  Elec       q    Type
REMARK                         _______ _______ _______ _____ _____    ______ ____
ROOT
ATOM      1  C   UNL     1       2.853   6.605  18.816  0.00  0.00    +0.000 A 
ATOM      2  C   UNL     1       2.623   5.646  19.775  0.00  0.00    +0.000 A 
ATOM      3  N   UNL     1       1.839   5.916  20.824  0.00  0.00    +0.000 NA
ATOM      4  N   UNL     1       1.287   7.159  20.900  0.00  0.00    +0.000 NA
ATOM      5  C   UNL     1       1.502   8.087  19.934  0.00  0.00    +0.000 A 
ATOM      6  N   UNL     1       0.906   9.322  20.065  0.00  0.00    +0.000 N 
ATOM      7  C   UNL     1       1.116  10.390  19.108  0.00  0.00    +0.000 C 
ATOM      8  C   UNL     1       1.211  11.658  19.956  0.00  0.00    +0.000 C 
ATOM      9  C   UNL     1       0.493  11.336  21.272  0.00  0.00    +0.000 C 
ATOM     10  C   UNL     1       0.655   9.812  21.417  0.00  0.00    +0.000 C 
ATOM     11  N   UNL     1       2.279   7.833  18.867  0.00  0.00    +0.000 NA
ENDROOT
BRANCH   1  16
ATOM     12  C   UNL     1       5.455   3.765  15.939  0.00  0.00    +0.000 C 
ATOM     13  C   UNL     1       4.975   5.085  16.396  0.00  0.00    +0.000 A 
ATOM     14  C   UNL     1       5.248   6.380  16.013  0.00  0.00    +0.000 A 
ATOM     15  C   UNL     1       4.472   7.214  16.856  0.00  0.00    +0.000 A 
ATOM     16  C   UNL     1       3.771   6.384  17.707  0.00  0.00    +0.000 A 
ATOM     17  O   UNL     1       4.077   5.080  17.419  0.00  0.00    +0.000 OA
ENDBRANCH   1  16
BRANCH   9  18
ATOM     18  C   UNL     1      -0.942  11.823  21.344  0.00  0.00    +0.000 A 
ATOM     19  C   UNL     1      -1.621  12.335  20.232  0.00  0.00    +0.000 A 
ATOM     20  C   UNL     1      -2.933  12.798  20.354  0.00  0.00    +0.000 A 
ATOM     21  C   UNL     1      -3.591  12.724  21.582  0.00  0.00    +0.000 A 
ATOM     22  C   UNL     1      -2.968  12.147  22.688  0.00  0.00    +0.000 A 
ATOM     23  C   UNL     1      -1.629  11.757  22.572  0.00  0.00    +0.000 A 
BRANCH  22  24
ATOM     24  N   UNL     1      -3.591  12.169  23.941  0.00  0.00    +0.000 N 
ATOM     25  H   UNL     1      -4.590  11.993  23.898  0.00  0.00    +0.000 HD
ATOM     26  H   UNL     1      -3.132  11.584  24.633  0.00  0.00    +0.000 HD
ENDBRANCH  22  24
ENDBRANCH   9  18
TORSDOF 3
ENDMDL
