MODEL 1
REMARK VINA RESULT:      -7.9      0.000      0.000
REMARK  Name = 
REMARK  7 active torsions:
REMARK  status: ('A' for Active; 'I' for Inactive)
REMARK    1  A    between atoms: C_1  and  C_2
REMARK    2  A    between atoms: N_7  and  C_8
REMARK    3  A    between atoms: C_8  and  C_9
REMARK    4  A    between atoms: C_13  and  N_14
REMARK    5  A    between atoms: C_15  and  C_17
REMARK    6  A    between atoms: C_22  and  C_23
REMARK    7  A    between atoms: N_27  and  C_28
REMARK                            x       y       z     vdW  Elec       q    Type
REMARK                         _______ _______ _______ _____ _____    ______ ____
ROOT
ATOM      1  C   UNL     1      -0.202  12.353  21.593  0.00  0.00    +0.000 A 
ATOM      2  N   UNL     1      -0.491  11.106  21.232  0.00  0.00    +0.000 NA
ATOM      3  C   UNL     1       0.329  10.803  20.177  0.00  0.00    +0.000 A 
ATOM      4  C   UNL     1       0.551   9.593  19.501  0.00  0.00    +0.000 A 
ATOM      5  C   UNL     1       1.518   9.534  18.474  0.00  0.00    +0.000 A 
ATOM      6  C   UNL     1       2.100  10.724  18.019  0.00  0.00    +0.000 A 
ATOM      7  C   UNL     1       1.903  11.936  18.686  0.00  0.00    +0.000 A 
ATOM      8  C   UNL     1       1.057  11.916  19.803  0.00  0.00    +0.000 A 
ATOM      9  N   UNL     1       0.816  12.837  20.793  0.00  0.00    +0.000 N 
ATOM     10  C   UNL     1       1.678  13.979  20.980  0.00  0.00    +0.000 C 
ENDROOT
BRANCH   5  11
ATOM     11  N   UNL     1       1.984   8.307  17.925  0.00  0.00    +0.000 N 
ATOM     12  C   UNL     1       2.467   7.250  18.687  0.00  0.00    +0.000 C 
ATOM     13  O   UNL     1       2.508   7.228  19.900  0.00  0.00    +0.000 OA
ATOM     14  H   UNL     1       2.119   8.293  16.924  0.00  0.00    +0.000 HD
BRANCH  12  15
ATOM     15  C   UNL     1       2.986   6.016  17.985  0.00  0.00    +0.000 A 
ATOM     16  C   UNL     1       2.129   4.891  18.092  0.00  0.00    +0.000 A 
ATOM     17  C   UNL     1       2.473   3.653  17.546  0.00  0.00    +0.000 A 
ATOM     18  C   UNL     1       3.664   3.516  16.855  0.00  0.00    +0.000 A 
ATOM     19  C   UNL     1       4.523   4.606  16.742  0.00  0.00    +0.000 A 
ATOM     20  C   UNL     1       4.225   5.853  17.341  0.00  0.00    +0.000 A 
ATOM     21  C   UNL     1       5.304   6.896  17.274  0.00  0.00    +0.000 C 
ENDBRANCH  12  15
ENDBRANCH   5  11
BRANCH   1  22
ATOM     22  C   UNL     1      -0.907  13.041  22.742  0.00  0.00    +0.000 C 
BRANCH  22  29
ATOM     23  C   UNL     1      -6.551  13.160  24.118  0.00  0.00    +0.000 C 
ATOM     24  C   UNL     1      -5.890  12.741  22.824  0.00  0.00    +0.000 C 
ATOM     25  O   UNL     1      -6.563  12.330  21.884  0.00  0.00    +0.000 OA
ATOM     26  N   UNL     1      -4.520  12.912  22.762  0.00  0.00    +0.000 N 
ATOM     27  C   UNL     1      -3.777  12.663  21.516  0.00  0.00    +0.000 C 
ATOM     28  C   UNL     1      -2.725  13.776  21.257  0.00  0.00    +0.000 C 
ATOM     29  N   UNL     1      -1.846  14.138  22.403  0.00  0.00    +0.000 NA
ATOM     30  C   UNL     1      -2.760  14.426  23.550  0.00  0.00    +0.000 C 
ATOM     31  C   UNL     1      -3.677  13.242  23.908  0.00  0.00    +0.000 C 
ENDBRANCH  22  29
ENDBRANCH   1  22
TORSDOF 4
ENDMDL
MODEL 2
REMARK VINA RESULT:      -7.9      3.052      4.735
REMARK  Name = 
REMARK  7 active torsions:
REMARK  status: ('A' for Active; 'I' for Inactive)
REMARK    1  A    between atoms: C_1  and  C_2
REMARK    2  A    between atoms: N_7  and  C_8
REMARK    3  A    between atoms: C_8  and  C_9
REMARK    4  A    between atoms: C_13  and  N_14
REMARK    5  A    between atoms: C_15  and  C_17
REMARK    6  A    between atoms: C_22  and  C_23
REMARK    7  A    between atoms: N_27  and  C_28
REMARK                            x       y       z     vdW  Elec       q    Type
REMARK                         _______ _______ _______ _____ _____    ______ ____
ROOT
ATOM      1  C   UNL     1      -0.433  12.504  20.277  0.00  0.00    +0.000 A 
ATOM      2  N   UNL     1       0.277  11.788  19.410  0.00  0.00    +0.000 NA
ATOM      3  C   UNL     1       0.671  10.653  20.069  0.00  0.00    +0.000 A 
ATOM      4  C   UNL     1       1.314   9.495  19.604  0.00  0.00    +0.000 A 
ATOM      5  C   UNL     1       1.547   8.422  20.491  0.00  0.00    +0.000 A 
ATOM      6  C   UNL     1       1.307   8.606  21.858  0.00  0.00    +0.000 A 
ATOM      7  C   UNL     1       0.656   9.744  22.339  0.00  0.00    +0.000 A 
ATOM      8  C   UNL     1       0.297  10.717  21.397  0.00  0.00    +0.000 A 
ATOM      9  N   UNL     1      -0.519  11.820  21.475  0.00  0.00    +0.000 N 
ATOM     10  C   UNL     1      -1.414  12.012  22.589  0.00  0.00    +0.000 C 
ENDROOT
BRANCH   5  11
ATOM     11  N   UNL     1       1.950   7.131  20.049  0.00  0.00    +0.000 N 
ATOM     12  C   UNL     1       2.598   6.892  18.842  0.00  0.00    +0.000 C 
ATOM     13  O   UNL     1       2.933   7.749  18.051  0.00  0.00    +0.000 OA
ATOM     14  H   UNL     1       1.586   6.349  20.574  0.00  0.00    +0.000 HD
BRANCH  12  15
ATOM     15  C   UNL     1       2.928   5.469  18.456  0.00  0.00    +0.000 A 
ATOM     16  C   UNL     1       1.811   4.725  17.994  0.00  0.00    +0.000 A 
ATOM     17  C   UNL     1       1.922   3.379  17.642  0.00  0.00    +0.000 A 
ATOM     18  C   UNL     1       3.153   2.752  17.711  0.00  0.00    +0.000 A 
ATOM     19  C   UNL     1       4.262   3.461  18.165  0.00  0.00    +0.000 A 
ATOM     20  C   UNL     1       4.162   4.808  18.588  0.00  0.00    +0.000 A 
ATOM     21  C   UNL     1       5.397   5.406  19.197  0.00  0.00    +0.000 C 
ENDBRANCH  12  15
ENDBRANCH   5  11
BRANCH   1  22
ATOM     22  C   UNL     1      -1.048  13.837  19.906  0.00  0.00    +0.000 C 
BRANCH  22  29
ATOM     23  C   UNL     1       0.886  18.627  17.246  0.00  0.00    +0.000 C 
ATOM     24  C   UNL     1       1.667  17.449  17.782  0.00  0.00    +0.000 C 
ATOM     25  O   UNL     1       2.887  17.400  17.659  0.00  0.00    +0.000 OA
ATOM     26  N   UNL     1       0.931  16.491  18.456  0.00  0.00    +0.000 N 
ATOM     27  C   UNL     1       1.590  15.363  19.132  0.00  0.00    +0.000 C 
ATOM     28  C   UNL     1       0.965  15.104  20.531  0.00  0.00    +0.000 C 
ATOM     29  N   UNL     1      -0.522  15.041  20.593  0.00  0.00    +0.000 NA
ATOM     30  C   UNL     1      -1.016  16.287  19.930  0.00  0.00    +0.000 C 
ATOM     31  C   UNL     1      -0.528  16.437  18.478  0.00  0.00    +0.000 C 
ENDBRANCH  22  29
ENDBRANCH   1  22
TORSDOF 4
ENDMDL
MODEL 3
REMARK VINA RESULT:      -7.9      1.856      2.692
REMARK  Name = 
REMARK  7 active torsions:
REMARK  status: ('A' for Active; 'I' for Inactive)
REMARK    1  A    between atoms: C_1  and  C_2
REMARK    2  A    between atoms: N_7  and  C_8
REMARK    3  A    between atoms: C_8  and  C_9
REMARK    4  A    between atoms: C_13  and  N_14
REMARK    5  A    between atoms: C_15  and  C_17
REMARK    6  A    between atoms: C_22  and  C_23
REMARK    7  A    between atoms: N_27  and  C_28
REMARK                            x       y       z     vdW  Elec       q    Type
REMARK                         _______ _______ _______ _____ _____    ______ ____
ROOT
ATOM      1  C   UNL     1      -1.291  12.329  19.872  0.00  0.00    +0.000 A 
ATOM      2  N   UNL     1      -1.378  11.125  19.315  0.00  0.00    +0.000 NA
ATOM      3  C   UNL     1      -0.142  10.841  18.798  0.00  0.00    +0.000 A 
ATOM      4  C   UNL     1       0.371   9.664  18.231  0.00  0.00    +0.000 A 
ATOM      5  C   UNL     1       1.725   9.613  17.833  0.00  0.00    +0.000 A 
ATOM      6  C   UNL     1       2.477  10.793  17.832  0.00  0.00    +0.000 A 
ATOM      7  C   UNL     1       1.991  11.971  18.404  0.00  0.00    +0.000 A 
ATOM      8  C   UNL     1       0.695  11.932  18.934  0.00  0.00    +0.000 A 
ATOM      9  N   UNL     1       0.000  12.803  19.738  0.00  0.00    +0.000 N 
ATOM     10  C   UNL     1       0.668  13.881  20.426  0.00  0.00    +0.000 C 
ENDROOT
BRANCH   5  11
ATOM     11  N   UNL     1       2.383   8.397  17.496  0.00  0.00    +0.000 N 
ATOM     12  C   UNL     1       2.642   7.378  18.406  0.00  0.00    +0.000 C 
ATOM     13  O   UNL     1       2.302   7.382  19.570  0.00  0.00    +0.000 OA
ATOM     14  H   UNL     1       2.825   8.369  16.589  0.00  0.00    +0.000 HD
BRANCH  12  15
ATOM     15  C   UNL     1       3.399   6.155  17.941  0.00  0.00    +0.000 A 
ATOM     16  C   UNL     1       4.739   6.419  17.560  0.00  0.00    +0.000 A 
ATOM     17  C   UNL     1       5.570   5.417  17.058  0.00  0.00    +0.000 A 
ATOM     18  C   UNL     1       5.095   4.121  16.954  0.00  0.00    +0.000 A 
ATOM     19  C   UNL     1       3.781   3.840  17.319  0.00  0.00    +0.000 A 
ATOM     20  C   UNL     1       2.901   4.851  17.771  0.00  0.00    +0.000 A 
ATOM     21  C   UNL     1       1.472   4.441  17.984  0.00  0.00    +0.000 C 
ENDBRANCH  12  15
ENDBRANCH   5  11
BRANCH   1  22
ATOM     22  C   UNL     1      -2.470  12.985  20.559  0.00  0.00    +0.000 C 
BRANCH  22  29
ATOM     23  C   UNL     1      -3.097  16.140  25.397  0.00  0.00    +0.000 C 
ATOM     24  C   UNL     1      -1.913  15.321  24.937  0.00  0.00    +0.000 C 
ATOM     25  O   UNL     1      -0.885  15.278  25.605  0.00  0.00    +0.000 OA
ATOM     26  N   UNL     1      -2.096  14.595  23.774  0.00  0.00    +0.000 N 
ATOM     27  C   UNL     1      -1.067  13.662  23.290  0.00  0.00    +0.000 C 
ATOM     28  C   UNL     1      -1.701  12.330  22.802  0.00  0.00    +0.000 C 
ATOM     29  N   UNL     1      -2.867  12.448  21.883  0.00  0.00    +0.000 NA
ATOM     30  C   UNL     1      -3.834  13.366  22.558  0.00  0.00    +0.000 C 
ATOM     31  C   UNL     1      -3.237  14.750  22.876  0.00  0.00    +0.000 C 
ENDBRANCH  22  29
ENDBRANCH   1  22
TORSDOF 4
ENDMDL
MODEL 4
REMARK VINA RESULT:      -7.8      1.679      2.356
REMARK  Name = 
REMARK  7 active torsions:
REMARK  status: ('A' for Active; 'I' for Inactive)
REMARK    1  A    between atoms: C_1  and  C_2
REMARK    2  A    between atoms: N_7  and  C_8
REMARK    3  A    between atoms: C_8  and  C_9
REMARK    4  A    between atoms: C_13  and  N_14
REMARK    5  A    between atoms: C_15  and  C_17
REMARK    6  A    between atoms: C_22  and  C_23
REMARK    7  A    between atoms: N_27  and  C_28
REMARK                            x       y       z     vdW  Elec       q    Type
REMARK                         _______ _______ _______ _____ _____    ______ ____
ROOT
ATOM      1  C   UNL     1      -1.795  12.236  19.751  0.00  0.00    +0.000 A 
ATOM      2  N   UNL     1      -1.825  11.113  19.041  0.00  0.00    +0.000 NA
ATOM      3  C   UNL     1      -0.529  10.831  18.696  0.00  0.00    +0.000 A 
ATOM      4  C   UNL     1       0.035   9.706  18.075  0.00  0.00    +0.000 A 
ATOM      5  C   UNL     1       1.434   9.635  17.895  0.00  0.00    +0.000 A 
ATOM      6  C   UNL     1       2.211  10.769  18.162  0.00  0.00    +0.000 A 
ATOM      7  C   UNL     1       1.672  11.893  18.792  0.00  0.00    +0.000 A 
ATOM      8  C   UNL     1       0.306  11.855  19.100  0.00  0.00    +0.000 A 
ATOM      9  N   UNL     1      -0.486  12.658  19.885  0.00  0.00    +0.000 N 
ATOM     10  C   UNL     1       0.091  13.612  20.801  0.00  0.00    +0.000 C 
ENDROOT
BRANCH   5  11
ATOM     11  N   UNL     1       2.102   8.437  17.518  0.00  0.00    +0.000 N 
ATOM     12  C   UNL     1       2.457   7.433  18.412  0.00  0.00    +0.000 C 
ATOM     13  O   UNL     1       2.203   7.437  19.599  0.00  0.00    +0.000 OA
ATOM     14  H   UNL     1       2.477   8.415  16.581  0.00  0.00    +0.000 HD
BRANCH  12  15
ATOM     15  C   UNL     1       3.215   6.230  17.901  0.00  0.00    +0.000 A 
ATOM     16  C   UNL     1       4.401   6.555  17.195  0.00  0.00    +0.000 A 
ATOM     17  C   UNL     1       5.200   5.571  16.609  0.00  0.00    +0.000 A 
ATOM     18  C   UNL     1       4.851   4.239  16.740  0.00  0.00    +0.000 A 
ATOM     19  C   UNL     1       3.688   3.896  17.426  0.00  0.00    +0.000 A 
ATOM     20  C   UNL     1       2.830   4.879  17.973  0.00  0.00    +0.000 A 
ATOM     21  C   UNL     1       1.535   4.383  18.550  0.00  0.00    +0.000 C 
ENDBRANCH  12  15
ENDBRANCH   5  11
BRANCH   1  22
ATOM     22  C   UNL     1      -3.050  12.863  20.318  0.00  0.00    +0.000 C 
BRANCH  22  29
ATOM     23  C   UNL     1      -6.754  15.643  23.827  0.00  0.00    +0.000 C 
ATOM     24  C   UNL     1      -5.244  15.598  23.873  0.00  0.00    +0.000 C 
ATOM     25  O   UNL     1      -4.625  16.229  24.725  0.00  0.00    +0.000 OA
ATOM     26  N   UNL     1      -4.635  14.766  22.951  0.00  0.00    +0.000 N 
ATOM     27  C   UNL     1      -3.182  14.537  22.976  0.00  0.00    +0.000 C 
ATOM     28  C   UNL     1      -2.846  13.035  22.763  0.00  0.00    +0.000 C 
ATOM     29  N   UNL     1      -3.530  12.357  21.627  0.00  0.00    +0.000 NA
ATOM     30  C   UNL     1      -4.989  12.632  21.798  0.00  0.00    +0.000 C 
ATOM     31  C   UNL     1      -5.325  14.135  21.829  0.00  0.00    +0.000 C 
ENDBRANCH  22  29
ENDBRANCH   1  22
TORSDOF 4
ENDMDL
MODEL 5
REMARK VINA RESULT:      -7.8      1.382      2.033
REMARK  Name = 
REMARK  7 active torsions:
REMARK  status: ('A' for Active; 'I' for Inactive)
REMARK    1  A    between atoms: C_1  and  C_2
REMARK    2  A    between atoms: N_7  and  C_8
REMARK    3  A    between atoms: C_8  and  C_9
REMARK    4  A    between atoms: C_13  and  N_14
REMARK    5  A    between atoms: C_15  and  C_17
REMARK    6  A    between atoms: C_22  and  C_23
REMARK    7  A    between atoms: N_27  and  C_28
REMARK                            x       y       z     vdW  Elec       q    Type
REMARK                         _______ _______ _______ _____ _____    ______ ____
ROOT
ATOM      1  C   UNL     1      -1.582  12.567  20.008  0.00  0.00    +0.000 A 
ATOM      2  N   UNL     1      -1.666  11.421  19.340  0.00  0.00    +0.000 NA
ATOM      3  C   UNL     1      -0.403  11.135  18.890  0.00  0.00    +0.000 A 
ATOM      4  C   UNL     1       0.113   9.993  18.258  0.00  0.00    +0.000 A 
ATOM      5  C   UNL     1       1.491   9.924  17.957  0.00  0.00    +0.000 A 
ATOM      6  C   UNL     1       2.279  11.070  18.118  0.00  0.00    +0.000 A 
ATOM      7  C   UNL     1       1.789  12.212  18.757  0.00  0.00    +0.000 A 
ATOM      8  C   UNL     1       0.455  12.176  19.186  0.00  0.00    +0.000 A 
ATOM      9  N   UNL     1      -0.270  13.000  20.012  0.00  0.00    +0.000 N 
ATOM     10  C   UNL     1       0.378  13.986  20.842  0.00  0.00    +0.000 C 
ENDROOT
BRANCH   5  11
ATOM     11  N   UNL     1       2.133   8.718  17.561  0.00  0.00    +0.000 N 
ATOM     12  C   UNL     1       2.488   7.703  18.442  0.00  0.00    +0.000 C 
ATOM     13  O   UNL     1       2.255   7.703  19.633  0.00  0.00    +0.000 OA
ATOM     14  H   UNL     1       2.491   8.696  16.617  0.00  0.00    +0.000 HD
BRANCH  12  15
ATOM     15  C   UNL     1       3.217   6.491  17.910  0.00  0.00    +0.000 A 
ATOM     16  C   UNL     1       4.422   6.799  17.227  0.00  0.00    +0.000 A 
ATOM     17  C   UNL     1       5.199   5.807  16.627  0.00  0.00    +0.000 A 
ATOM     18  C   UNL     1       4.810   4.483  16.720  0.00  0.00    +0.000 A 
ATOM     19  C   UNL     1       3.628   4.157  17.381  0.00  0.00    +0.000 A 
ATOM     20  C   UNL     1       2.792   5.151  17.943  0.00  0.00    +0.000 A 
ATOM     21  C   UNL     1       1.476   4.679  18.491  0.00  0.00    +0.000 C 
ENDBRANCH  12  15
ENDBRANCH   5  11
BRANCH   1  22
ATOM     22  C   UNL     1      -2.788  13.205  20.664  0.00  0.00    +0.000 C 
BRANCH  22  29
ATOM     23  C   UNL     1      -7.419  13.548  24.155  0.00  0.00    +0.000 C 
ATOM     24  C   UNL     1      -6.599  14.660  23.543  0.00  0.00    +0.000 C 
ATOM     25  O   UNL     1      -6.895  15.835  23.737  0.00  0.00    +0.000 OA
ATOM     26  N   UNL     1      -5.486  14.265  22.824  0.00  0.00    +0.000 N 
ATOM     27  C   UNL     1      -4.537  15.253  22.287  0.00  0.00    +0.000 C 
ATOM     28  C   UNL     1      -3.068  14.801  22.514  0.00  0.00    +0.000 C 
ATOM     29  N   UNL     1      -2.737  13.400  22.133  0.00  0.00    +0.000 NA
ATOM     30  C   UNL     1      -3.747  12.536  22.817  0.00  0.00    +0.000 C 
ATOM     31  C   UNL     1      -5.199  12.885  22.440  0.00  0.00    +0.000 C 
ENDBRANCH  22  29
ENDBRANCH   1  22
TORSDOF 4
ENDMDL
MODEL 6
REMARK VINA RESULT:      -7.8      0.423      1.307
REMARK  Name = 
REMARK  7 active torsions:
REMARK  status: ('A' for Active; 'I' for Inactive)
REMARK    1  A    between atoms: C_1  and  C_2
REMARK    2  A    between atoms: N_7  and  C_8
REMARK    3  A    between atoms: C_8  and  C_9
REMARK    4  A    between atoms: C_13  and  N_14
REMARK    5  A    between atoms: C_15  and  C_17
REMARK    6  A    between atoms: C_22  and  C_23
REMARK    7  A    between atoms: N_27  and  C_28
REMARK                            x       y       z     vdW  Elec       q    Type
REMARK                         _______ _______ _______ _____ _____    ______ ____
ROOT
ATOM      1  C   UNL     1      -0.260  12.326  21.363  0.00  0.00    +0.000 A 
ATOM      2  N   UNL     1      -0.459  11.060  21.011  0.00  0.00    +0.000 NA
ATOM      3  C   UNL     1       0.398  10.802  19.973  0.00  0.00    +0.000 A 
ATOM      4  C   UNL     1       0.711   9.603  19.314  0.00  0.00    +0.000 A 
ATOM      5  C   UNL     1       1.699   9.598  18.305  0.00  0.00    +0.000 A 
ATOM      6  C   UNL     1       2.208  10.820  17.848  0.00  0.00    +0.000 A 
ATOM      7  C   UNL     1       1.920  12.022  18.498  0.00  0.00    +0.000 A 
ATOM      8  C   UNL     1       1.057  11.957  19.600  0.00  0.00    +0.000 A 
ATOM      9  N   UNL     1       0.738  12.870  20.576  0.00  0.00    +0.000 N 
ATOM     10  C   UNL     1       1.518  14.068  20.765  0.00  0.00    +0.000 C 
ENDROOT
BRANCH   5  11
ATOM     11  N   UNL     1       2.255   8.400  17.777  0.00  0.00    +0.000 N 
ATOM     12  C   UNL     1       2.649   7.318  18.557  0.00  0.00    +0.000 C 
ATOM     13  O   UNL     1       2.527   7.249  19.762  0.00  0.00    +0.000 OA
ATOM     14  H   UNL     1       2.524   8.427  16.804  0.00  0.00    +0.000 HD
BRANCH  12  15
ATOM     15  C   UNL     1       3.278   6.120  17.885  0.00  0.00    +0.000 A 
ATOM     16  C   UNL     1       4.467   6.420  17.170  0.00  0.00    +0.000 A 
ATOM     17  C   UNL     1       5.154   5.444  16.447  0.00  0.00    +0.000 A 
ATOM     18  C   UNL     1       4.690   4.140  16.445  0.00  0.00    +0.000 A 
ATOM     19  C   UNL     1       3.523   3.824  17.136  0.00  0.00    +0.000 A 
ATOM     20  C   UNL     1       2.775   4.808  17.823  0.00  0.00    +0.000 A 
ATOM     21  C   UNL     1       1.460   4.364  18.396  0.00  0.00    +0.000 C 
ENDBRANCH  12  15
ENDBRANCH   5  11
BRANCH   1  22
ATOM     22  C   UNL     1      -1.029  12.977  22.493  0.00  0.00    +0.000 C 
BRANCH  22  29
ATOM     23  C   UNL     1      -6.677  13.200  23.838  0.00  0.00    +0.000 C 
ATOM     24  C   UNL     1      -6.017  12.757  22.552  0.00  0.00    +0.000 C 
ATOM     25  O   UNL     1      -6.691  12.346  21.613  0.00  0.00    +0.000 OA
ATOM     26  N   UNL     1      -4.644  12.906  22.495  0.00  0.00    +0.000 N 
ATOM     27  C   UNL     1      -3.899  12.631  21.256  0.00  0.00    +0.000 C 
ATOM     28  C   UNL     1      -2.828  13.724  20.991  0.00  0.00    +0.000 C 
ATOM     29  N   UNL     1      -1.949  14.085  22.137  0.00  0.00    +0.000 NA
ATOM     30  C   UNL     1      -2.864  14.400  23.277  0.00  0.00    +0.000 C 
ATOM     31  C   UNL     1      -3.802  13.235  23.643  0.00  0.00    +0.000 C 
ENDBRANCH  22  29
ENDBRANCH   1  22
TORSDOF 4
ENDMDL
MODEL 7
REMARK VINA RESULT:      -7.8      1.785      2.285
REMARK  Name = 
REMARK  7 active torsions:
REMARK  status: ('A' for Active; 'I' for Inactive)
REMARK    1  A    between atoms: C_1  and  C_2
REMARK    2  A    between atoms: N_7  and  C_8
REMARK    3  A    between atoms: C_8  and  C_9
REMARK    4  A    between atoms: C_13  and  N_14
REMARK    5  A    between atoms: C_15  and  C_17
REMARK    6  A    between atoms: C_22  and  C_23
REMARK    7  A    between atoms: N_27  and  C_28
REMARK                            x       y       z     vdW  Elec       q    Type
REMARK                         _______ _______ _______ _____ _____    ______ ____
ROOT
ATOM      1  C   UNL     1      -1.126  12.722  20.031  0.00  0.00    +0.000 A 
ATOM      2  N   UNL     1      -1.387  11.557  19.445  0.00  0.00    +0.000 NA
ATOM      3  C   UNL     1      -0.202  11.107  18.923  0.00  0.00    +0.000 A 
ATOM      4  C   UNL     1       0.135   9.882  18.327  0.00  0.00    +0.000 A 
ATOM      5  C   UNL     1       1.468   9.642  17.930  0.00  0.00    +0.000 A 
ATOM      6  C   UNL     1       2.386  10.699  17.959  0.00  0.00    +0.000 A 
ATOM      7  C   UNL     1       2.075  11.922  18.559  0.00  0.00    +0.000 A 
ATOM      8  C   UNL     1       0.784  12.060  19.087  0.00  0.00    +0.000 A 
ATOM      9  N   UNL     1       0.221  13.005  19.911  0.00  0.00    +0.000 N 
ATOM     10  C   UNL     1       1.036  13.956  20.626  0.00  0.00    +0.000 C 
ENDROOT
BRANCH   5  11
ATOM     11  N   UNL     1       1.943   8.352  17.565  0.00  0.00    +0.000 N 
ATOM     12  C   UNL     1       2.359   7.391  18.480  0.00  0.00    +0.000 C 
ATOM     13  O   UNL     1       2.326   7.518  19.686  0.00  0.00    +0.000 OA
ATOM     14  H   UNL     1       2.138   8.213  16.584  0.00  0.00    +0.000 HD
BRANCH  12  15
ATOM     15  C   UNL     1       2.896   6.074  17.967  0.00  0.00    +0.000 A 
ATOM     16  C   UNL     1       2.035   4.972  18.201  0.00  0.00    +0.000 A 
ATOM     17  C   UNL     1       2.392   3.672  17.839  0.00  0.00    +0.000 A 
ATOM     18  C   UNL     1       3.602   3.445  17.208  0.00  0.00    +0.000 A 
ATOM     19  C   UNL     1       4.466   4.512  16.973  0.00  0.00    +0.000 A 
ATOM     20  C   UNL     1       4.153   5.828  17.387  0.00  0.00    +0.000 A 
ATOM     21  C   UNL     1       5.235   6.855  17.209  0.00  0.00    +0.000 C 
ENDBRANCH  12  15
ENDBRANCH   5  11
BRANCH   1  22
ATOM     22  C   UNL     1      -2.199  13.527  20.733  0.00  0.00    +0.000 C 
BRANCH  22  29
ATOM     23  C   UNL     1      -4.247  16.756  25.108  0.00  0.00    +0.000 C 
ATOM     24  C   UNL     1      -2.868  16.166  24.918  0.00  0.00    +0.000 C 
ATOM     25  O   UNL     1      -1.984  16.367  25.744  0.00  0.00    +0.000 OA
ATOM     26  N   UNL     1      -2.704  15.355  23.810  0.00  0.00    +0.000 N 
ATOM     27  C   UNL     1      -1.449  14.622  23.583  0.00  0.00    +0.000 C 
ATOM     28  C   UNL     1      -1.726  13.165  23.119  0.00  0.00    +0.000 C 
ATOM     29  N   UNL     1      -2.714  12.995  22.018  0.00  0.00    +0.000 NA
ATOM     30  C   UNL     1      -3.940  13.737  22.445  0.00  0.00    +0.000 C 
ATOM     31  C   UNL     1      -3.679  15.228  22.730  0.00  0.00    +0.000 C 
ENDBRANCH  22  29
ENDBRANCH   1  22
TORSDOF 4
ENDMDL
MODEL 8
REMARK VINA RESULT:      -7.7      3.300      5.058
REMARK  Name = 
REMARK  7 active torsions:
REMARK  status: ('A' for Active; 'I' for Inactive)
REMARK    1  A    between atoms: C_1  and  C_2
REMARK    2  A    between atoms: N_7  and  C_8
REMARK    3  A    between atoms: C_8  and  C_9
REMARK    4  A    between atoms: C_13  and  N_14
REMARK    5  A    between atoms: C_15  and  C_17
REMARK    6  A    between atoms: C_22  and  C_23
REMARK    7  A    between atoms: N_27  and  C_28
REMARK                            x       y       z     vdW  Elec       q    Type
REMARK                         _______ _______ _______ _____ _____    ______ ____
ROOT
ATOM      1  C   UNL     1      -0.190  12.346  20.201  0.00  0.00    +0.000 A 
ATOM      2  N   UNL     1       0.284  11.465  19.325  0.00  0.00    +0.000 NA
ATOM      3  C   UNL     1       0.619  10.344  20.038  0.00  0.00    +0.000 A 
ATOM      4  C   UNL     1       1.030   9.071  19.613  0.00  0.00    +0.000 A 
ATOM      5  C   UNL     1       1.250   8.053  20.566  0.00  0.00    +0.000 A 
ATOM      6  C   UNL     1       1.241   8.384  21.927  0.00  0.00    +0.000 A 
ATOM      7  C   UNL     1       0.822   9.640  22.372  0.00  0.00    +0.000 A 
ATOM      8  C   UNL     1       0.458  10.572  21.391  0.00  0.00    +0.000 A 
ATOM      9  N   UNL     1      -0.186  11.783  21.464  0.00  0.00    +0.000 N 
ATOM     10  C   UNL     1      -0.873  12.195  22.664  0.00  0.00    +0.000 C 
ENDROOT
BRANCH   5  11
ATOM     11  N   UNL     1       1.412   6.686  20.209  0.00  0.00    +0.000 N 
ATOM     12  C   UNL     1       2.531   6.182  19.555  0.00  0.00    +0.000 C 
ATOM     13  O   UNL     1       3.511   6.831  19.254  0.00  0.00    +0.000 OA
ATOM     14  H   UNL     1       0.589   6.105  20.292  0.00  0.00    +0.000 HD
BRANCH  12  15
ATOM     15  C   UNL     1       2.564   4.719  19.179  0.00  0.00    +0.000 A 
ATOM     16  C   UNL     1       2.667   4.486  17.783  0.00  0.00    +0.000 A 
ATOM     17  C   UNL     1       2.661   3.196  17.252  0.00  0.00    +0.000 A 
ATOM     18  C   UNL     1       2.582   2.106  18.101  0.00  0.00    +0.000 A 
ATOM     19  C   UNL     1       2.476   2.311  19.474  0.00  0.00    +0.000 A 
ATOM     20  C   UNL     1       2.417   3.610  20.031  0.00  0.00    +0.000 A 
ATOM     21  C   UNL     1       2.148   3.689  21.507  0.00  0.00    +0.000 C 
ENDBRANCH  12  15
ENDBRANCH   5  11
BRANCH   1  22
ATOM     22  C   UNL     1      -0.674  13.717  19.781  0.00  0.00    +0.000 C 
BRANCH  22  29
ATOM     23  C   UNL     1       0.951  18.630  17.140  0.00  0.00    +0.000 C 
ATOM     24  C   UNL     1       1.785  17.429  17.522  0.00  0.00    +0.000 C 
ATOM     25  O   UNL     1       2.981  17.387  17.252  0.00  0.00    +0.000 OA
ATOM     26  N   UNL     1       1.130  16.439  18.232  0.00  0.00    +0.000 N 
ATOM     27  C   UNL     1       1.859  15.280  18.771  0.00  0.00    +0.000 C 
ATOM     28  C   UNL     1       1.405  14.955  20.221  0.00  0.00    +0.000 C 
ATOM     29  N   UNL     1      -0.064  14.888  20.457  0.00  0.00    +0.000 NA
ATOM     30  C   UNL     1      -0.628  16.163  19.918  0.00  0.00    +0.000 C 
ATOM     31  C   UNL     1      -0.316  16.383  18.426  0.00  0.00    +0.000 C 
ENDBRANCH  22  29
ENDBRANCH   1  22
TORSDOF 4
ENDMDL
MODEL 9
REMARK VINA RESULT:      -7.7      1.286      2.063
REMARK  Name = 
REMARK  7 active torsions:
REMARK  status: ('A' for Active; 'I' for Inactive)
REMARK    1  A    between atoms: C_1  and  C_2
REMARK    2  A    between atoms: N_7  and  C_8
REMARK    3  A    between atoms: C_8  and  C_9
REMARK    4  A    between atoms: C_13  and  N_14
REMARK    5  A    between atoms: C_15  and  C_17
REMARK    6  A    between atoms: C_22  and  C_23
REMARK    7  A    between atoms: N_27  and  C_28
REMARK                            x       y       z     vdW  Elec       q    Type
REMARK                         _______ _______ _______ _____ _____    ______ ____
ROOT
ATOM      1  C   UNL     1      -0.630  12.105  21.202  0.00  0.00    +0.000 A 
ATOM      2  N   UNL     1      -0.816  10.858  20.780  0.00  0.00    +0.000 NA
ATOM      3  C   UNL     1       0.142  10.618  19.829  0.00  0.00    +0.000 A 
ATOM      4  C   UNL     1       0.499   9.438  19.159  0.00  0.00    +0.000 A 
ATOM      5  C   UNL     1       1.588   9.447  18.261  0.00  0.00    +0.000 A 
ATOM      6  C   UNL     1       2.169  10.672  17.909  0.00  0.00    +0.000 A 
ATOM      7  C   UNL     1       1.837  11.856  18.574  0.00  0.00    +0.000 A 
ATOM      8  C   UNL     1       0.860  11.770  19.575  0.00  0.00    +0.000 A 
ATOM      9  N   UNL     1       0.457  12.653  20.547  0.00  0.00    +0.000 N 
ATOM     10  C   UNL     1       1.238  13.823  20.867  0.00  0.00    +0.000 C 
ENDROOT
BRANCH   5  11
ATOM     11  N   UNL     1       2.172   8.256  17.747  0.00  0.00    +0.000 N 
ATOM     12  C   UNL     1       2.651   7.221  18.542  0.00  0.00    +0.000 C 
ATOM     13  O   UNL     1       2.589   7.189  19.753  0.00  0.00    +0.000 OA
ATOM     14  H   UNL     1       2.394   8.261  16.762  0.00  0.00    +0.000 HD
BRANCH  12  15
ATOM     15  C   UNL     1       3.302   6.028  17.880  0.00  0.00    +0.000 A 
ATOM     16  C   UNL     1       4.519   6.332  17.218  0.00  0.00    +0.000 A 
ATOM     17  C   UNL     1       5.231   5.362  16.511  0.00  0.00    +0.000 A 
ATOM     18  C   UNL     1       4.763   4.060  16.473  0.00  0.00    +0.000 A 
ATOM     19  C   UNL     1       3.568   3.741  17.113  0.00  0.00    +0.000 A 
ATOM     20  C   UNL     1       2.797   4.720  17.782  0.00  0.00    +0.000 A 
ATOM     21  C   UNL     1       1.458   4.274  18.296  0.00  0.00    +0.000 C 
ENDBRANCH  12  15
ENDBRANCH   5  11
BRANCH   1  22
ATOM     22  C   UNL     1      -1.502  12.731  22.268  0.00  0.00    +0.000 C 
BRANCH  22  29
ATOM     23  C   UNL     1      -6.455  15.740  21.854  0.00  0.00    +0.000 C 
ATOM     24  C   UNL     1      -5.664  15.366  23.086  0.00  0.00    +0.000 C 
ATOM     25  O   UNL     1      -6.032  15.728  24.199  0.00  0.00    +0.000 OA
ATOM     26  N   UNL     1      -4.563  14.556  22.875  0.00  0.00    +0.000 N 
ATOM     27  C   UNL     1      -3.786  14.019  24.003  0.00  0.00    +0.000 C 
ATOM     28  C   UNL     1      -3.431  12.523  23.780  0.00  0.00    +0.000 C 
ATOM     29  N   UNL     1      -2.862  12.167  22.451  0.00  0.00    +0.000 NA
ATOM     30  C   UNL     1      -3.806  12.723  21.434  0.00  0.00    +0.000 C 
ATOM     31  C   UNL     1      -4.009  14.244  21.560  0.00  0.00    +0.000 C 
ENDBRANCH  22  29
ENDBRANCH   1  22
TORSDOF 4
ENDMDL
