MODEL 1
REMARK VINA RESULT:      -7.1      0.000      0.000
REMARK  Name = 
REMARK  9 active torsions:
REMARK  status: ('A' for Active; 'I' for Inactive)
REMARK    1  A    between atoms: C_1  and  O_2
REMARK    2  A    between atoms: O_2  and  C_3
REMARK    3  A    between atoms: C_3  and  C_4
REMARK    4  A    between atoms: C_4  and  C_5
REMARK    5  A    between atoms: C_7  and  C_8
REMARK    6  A    between atoms: C_11  and  C_12
REMARK    7  A    between atoms: N_17  and  C_18
REMARK    8  A    between atoms: C_18  and  C_19
REMARK    9  A    between atoms: C_19  and  O_20
REMARK                            x       y       z     vdW  Elec       q    Type
REMARK                         _______ _______ _______ _____ _____    ______ ____
ROOT
ATOM      1  C   UNL     1       6.539   4.336  14.262  0.00  0.00    +0.000 A 
ATOM      2  N   UNL     1       5.309   4.066  14.804  0.00  0.00    +0.000 NA
ATOM      3  C   UNL     1       5.456   4.296  16.099  0.00  0.00    +0.000 A 
ATOM      4  N   UNL     1       6.778   4.624  16.316  0.00  0.00    +0.000 N 
ATOM      5  N   UNL     1       7.453   4.732  15.151  0.00  0.00    +0.000 NA
ENDROOT
BRANCH   3   6
ATOM      6  C   UNL     1       4.386   4.232  17.087  0.00  0.00    +0.000 A 
ATOM      7  C   UNL     1       3.759   5.362  17.568  0.00  0.00    +0.000 A 
ATOM      8  N   UNL     1       2.804   5.358  18.535  0.00  0.00    +0.000 NA
ATOM      9  C   UNL     1       2.463   4.167  19.067  0.00  0.00    +0.000 A 
ATOM     10  N   UNL     1       3.010   3.005  18.651  0.00  0.00    +0.000 NA
ATOM     11  C   UNL     1       3.962   3.071  17.697  0.00  0.00    +0.000 A 
BRANCH   9  12
ATOM     12  C   UNL     1       1.531   4.118  20.254  0.00  0.00    +0.000 C 
ATOM     13  C   UNL     1       1.158   2.825  20.936  0.00  0.00    +0.000 C 
ATOM     14  C   UNL     1       2.073   3.788  21.626  0.00  0.00    +0.000 C 
ENDBRANCH   9  12
ENDBRANCH   3   6
BRANCH   1  15
ATOM     15  C   UNL     1       6.815   4.278  12.803  0.00  0.00    +0.000 C 
BRANCH  15  16
ATOM     16  C   UNL     1       6.045   3.164  12.097  0.00  0.00    +0.000 C 
BRANCH  16  18
ATOM     17  C   UNL     1       6.320   1.080  11.020  0.00  0.00    +0.000 C 
ATOM     18  O   UNL     1       6.959   2.273  11.451  0.00  0.00    +0.000 OA
ENDBRANCH  16  18
ENDBRANCH  15  16
ENDBRANCH   1  15
BRANCH   4  19
ATOM     19  C   UNL     1       7.473   4.890  17.563  0.00  0.00    +0.000 C 
BRANCH  19  20
ATOM     20  C   UNL     1       7.456   6.358  17.983  0.00  0.00    +0.000 C 
BRANCH  20  21
ATOM     21  O   UNL     1       7.729   7.224  16.884  0.00  0.00    +0.000 OA
ATOM     22  H   UNL     1       8.580   7.666  17.104  0.00  0.00    +0.000 HD
ENDBRANCH  20  21
ENDBRANCH  19  20
ENDBRANCH   4  19
TORSDOF 8
ENDMDL
MODEL 2
REMARK VINA RESULT:      -6.9      0.987      1.059
REMARK  Name = 
REMARK  9 active torsions:
REMARK  status: ('A' for Active; 'I' for Inactive)
REMARK    1  A    between atoms: C_1  and  O_2
REMARK    2  A    between atoms: O_2  and  C_3
REMARK    3  A    between atoms: C_3  and  C_4
REMARK    4  A    between atoms: C_4  and  C_5
REMARK    5  A    between atoms: C_7  and  C_8
REMARK    6  A    between atoms: C_11  and  C_12
REMARK    7  A    between atoms: N_17  and  C_18
REMARK    8  A    between atoms: C_18  and  C_19
REMARK    9  A    between atoms: C_19  and  O_20
REMARK                            x       y       z     vdW  Elec       q    Type
REMARK                         _______ _______ _______ _____ _____    ______ ____
ROOT
ATOM      1  C   UNL     1       6.557   4.358  14.393  0.00  0.00    +0.000 A 
ATOM      2  N   UNL     1       5.326   4.095  14.935  0.00  0.00    +0.000 NA
ATOM      3  C   UNL     1       5.479   4.305  16.232  0.00  0.00    +0.000 A 
ATOM      4  N   UNL     1       6.806   4.614  16.450  0.00  0.00    +0.000 N 
ATOM      5  N   UNL     1       7.479   4.730  15.285  0.00  0.00    +0.000 NA
ENDROOT
BRANCH   3   6
ATOM      6  C   UNL     1       4.412   4.240  17.223  0.00  0.00    +0.000 A 
ATOM      7  C   UNL     1       3.893   5.368  17.823  0.00  0.00    +0.000 A 
ATOM      8  N   UNL     1       2.946   5.353  18.797  0.00  0.00    +0.000 NA
ATOM      9  C   UNL     1       2.499   4.151  19.211  0.00  0.00    +0.000 A 
ATOM     10  N   UNL     1       2.935   2.992  18.675  0.00  0.00    +0.000 NA
ATOM     11  C   UNL     1       3.885   3.067  17.719  0.00  0.00    +0.000 A 
BRANCH   9  12
ATOM     12  C   UNL     1       1.571   4.068  20.399  0.00  0.00    +0.000 C 
ATOM     13  C   UNL     1       1.181   2.754  21.030  0.00  0.00    +0.000 C 
ATOM     14  C   UNL     1       2.113   3.675  21.754  0.00  0.00    +0.000 C 
ENDBRANCH   9  12
ENDBRANCH   3   6
BRANCH   1  15
ATOM     15  C   UNL     1       6.829   4.317  12.932  0.00  0.00    +0.000 C 
BRANCH  15  16
ATOM     16  C   UNL     1       5.980   3.279  12.200  0.00  0.00    +0.000 C 
BRANCH  16  18
ATOM     17  C   UNL     1       3.897   2.975  11.131  0.00  0.00    +0.000 C 
ATOM     18  O   UNL     1       4.862   3.917  11.577  0.00  0.00    +0.000 OA
ENDBRANCH  16  18
ENDBRANCH  15  16
ENDBRANCH   1  15
BRANCH   4  19
ATOM     19  C   UNL     1       7.508   4.854  17.698  0.00  0.00    +0.000 C 
BRANCH  19  20
ATOM     20  C   UNL     1       7.508   6.315  18.140  0.00  0.00    +0.000 C 
BRANCH  20  21
ATOM     21  O   UNL     1       8.379   6.531  19.249  0.00  0.00    +0.000 OA
ATOM     22  H   UNL     1       8.060   7.358  19.675  0.00  0.00    +0.000 HD
ENDBRANCH  20  21
ENDBRANCH  19  20
ENDBRANCH   4  19
TORSDOF 8
ENDMDL
MODEL 3
REMARK VINA RESULT:      -6.7      0.934      1.411
REMARK  Name = 
REMARK  9 active torsions:
REMARK  status: ('A' for Active; 'I' for Inactive)
REMARK    1  A    between atoms: C_1  and  O_2
REMARK    2  A    between atoms: O_2  and  C_3
REMARK    3  A    between atoms: C_3  and  C_4
REMARK    4  A    between atoms: C_4  and  C_5
REMARK    5  A    between atoms: C_7  and  C_8
REMARK    6  A    between atoms: C_11  and  C_12
REMARK    7  A    between atoms: N_17  and  C_18
REMARK    8  A    between atoms: C_18  and  C_19
REMARK    9  A    between atoms: C_19  and  O_20
REMARK                            x       y       z     vdW  Elec       q    Type
REMARK                         _______ _______ _______ _____ _____    ______ ____
ROOT
ATOM      1  C   UNL     1       6.839   4.677  14.214  0.00  0.00    +0.000 A 
ATOM      2  N   UNL     1       5.702   4.164  14.782  0.00  0.00    +0.000 NA
ATOM      3  C   UNL     1       5.679   4.673  16.004  0.00  0.00    +0.000 A 
ATOM      4  N   UNL     1       6.831   5.414  16.168  0.00  0.00    +0.000 N 
ATOM      5  N   UNL     1       7.532   5.490  15.016  0.00  0.00    +0.000 NA
ENDROOT
BRANCH   3   6
ATOM      6  C   UNL     1       4.603   4.486  16.969  0.00  0.00    +0.000 A 
ATOM      7  C   UNL     1       4.242   3.241  17.438  0.00  0.00    +0.000 A 
ATOM      8  N   UNL     1       3.206   3.010  18.286  0.00  0.00    +0.000 NA
ATOM      9  C   UNL     1       2.476   4.072  18.679  0.00  0.00    +0.000 A 
ATOM     10  N   UNL     1       2.760   5.332  18.286  0.00  0.00    +0.000 NA
ATOM     11  C   UNL     1       3.793   5.500  17.434  0.00  0.00    +0.000 A 
BRANCH   9  12
ATOM     12  C   UNL     1       1.218   3.857  19.486  0.00  0.00    +0.000 C 
ATOM     13  C   UNL     1       1.015   2.641  20.357  0.00  0.00    +0.000 C 
ATOM     14  C   UNL     1       1.259   3.974  20.993  0.00  0.00    +0.000 C 
ENDBRANCH   9  12
ENDBRANCH   3   6
BRANCH   1  15
ATOM     15  C   UNL     1       7.229   4.424  12.802  0.00  0.00    +0.000 C 
BRANCH  15  16
ATOM     16  C   UNL     1       6.327   3.402  12.113  0.00  0.00    +0.000 C 
BRANCH  16  18
ATOM     17  C   UNL     1       6.341   1.258  11.124  0.00  0.00    +0.000 C 
ATOM     18  O   UNL     1       7.123   2.380  11.507  0.00  0.00    +0.000 OA
ENDBRANCH  16  18
ENDBRANCH  15  16
ENDBRANCH   1  15
BRANCH   4  19
ATOM     19  C   UNL     1       7.326   6.109  17.343  0.00  0.00    +0.000 C 
BRANCH  19  20
ATOM     20  C   UNL     1       7.723   5.184  18.490  0.00  0.00    +0.000 C 
BRANCH  20  21
ATOM     21  O   UNL     1       6.882   5.364  19.628  0.00  0.00    +0.000 OA
ATOM     22  H   UNL     1       6.187   4.671  19.552  0.00  0.00    +0.000 HD
ENDBRANCH  20  21
ENDBRANCH  19  20
ENDBRANCH   4  19
TORSDOF 8
ENDMDL
MODEL 4
REMARK VINA RESULT:      -6.6      1.358      1.567
REMARK  Name = 
REMARK  9 active torsions:
REMARK  status: ('A' for Active; 'I' for Inactive)
REMARK    1  A    between atoms: C_1  and  O_2
REMARK    2  A    between atoms: O_2  and  C_3
REMARK    3  A    between atoms: C_3  and  C_4
REMARK    4  A    between atoms: C_4  and  C_5
REMARK    5  A    between atoms: C_7  and  C_8
REMARK    6  A    between atoms: C_11  and  C_12
REMARK    7  A    between atoms: N_17  and  C_18
REMARK    8  A    between atoms: C_18  and  C_19
REMARK    9  A    between atoms: C_19  and  O_20
REMARK                            x       y       z     vdW  Elec       q    Type
REMARK                         _______ _______ _______ _____ _____    ______ ____
ROOT
ATOM      1  C   UNL     1       6.390   4.466  14.247  0.00  0.00    +0.000 A 
ATOM      2  N   UNL     1       5.653   3.635  15.051  0.00  0.00    +0.000 NA
ATOM      3  C   UNL     1       5.325   4.383  16.093  0.00  0.00    +0.000 A 
ATOM      4  N   UNL     1       5.928   5.612  15.930  0.00  0.00    +0.000 N 
ATOM      5  N   UNL     1       6.537   5.704  14.727  0.00  0.00    +0.000 NA
ENDROOT
BRANCH   3   6
ATOM      6  C   UNL     1       4.459   3.960  17.187  0.00  0.00    +0.000 A 
ATOM      7  C   UNL     1       4.910   3.853  18.485  0.00  0.00    +0.000 A 
ATOM      8  N   UNL     1       4.160   3.403  19.525  0.00  0.00    +0.000 NA
ATOM      9  C   UNL     1       2.895   3.022  19.259  0.00  0.00    +0.000 A 
ATOM     10  N   UNL     1       2.358   3.105  18.023  0.00  0.00    +0.000 NA
ATOM     11  C   UNL     1       3.153   3.548  17.027  0.00  0.00    +0.000 A 
BRANCH   9  12
ATOM     12  C   UNL     1       2.071   2.362  20.338  0.00  0.00    +0.000 C 
ATOM     13  C   UNL     1       2.280   2.651  21.805  0.00  0.00    +0.000 C 
ATOM     14  C   UNL     1       1.057   3.170  21.114  0.00  0.00    +0.000 C 
ENDBRANCH   9  12
ENDBRANCH   3   6
BRANCH   1  15
ATOM     15  C   UNL     1       6.910   4.059  12.916  0.00  0.00    +0.000 C 
BRANCH  15  16
ATOM     16  C   UNL     1       5.976   3.098  12.182  0.00  0.00    +0.000 C 
BRANCH  16  18
ATOM     17  C   UNL     1       3.911   3.048  11.038  0.00  0.00    +0.000 C 
ATOM     18  O   UNL     1       4.681   3.689  12.045  0.00  0.00    +0.000 OA
ENDBRANCH  16  18
ENDBRANCH  15  16
ENDBRANCH   1  15
BRANCH   4  19
ATOM     19  C   UNL     1       5.950   6.759  16.821  0.00  0.00    +0.000 C 
BRANCH  19  20
ATOM     20  C   UNL     1       7.281   6.960  17.541  0.00  0.00    +0.000 C 
BRANCH  20  21
ATOM     21  O   UNL     1       7.870   8.219  17.219  0.00  0.00    +0.000 OA
ATOM     22  H   UNL     1       7.732   8.333  16.252  0.00  0.00    +0.000 HD
ENDBRANCH  20  21
ENDBRANCH  19  20
ENDBRANCH   4  19
TORSDOF 8
ENDMDL
MODEL 5
REMARK VINA RESULT:      -6.6      1.460      1.659
REMARK  Name = 
REMARK  9 active torsions:
REMARK  status: ('A' for Active; 'I' for Inactive)
REMARK    1  A    between atoms: C_1  and  O_2
REMARK    2  A    between atoms: O_2  and  C_3
REMARK    3  A    between atoms: C_3  and  C_4
REMARK    4  A    between atoms: C_4  and  C_5
REMARK    5  A    between atoms: C_7  and  C_8
REMARK    6  A    between atoms: C_11  and  C_12
REMARK    7  A    between atoms: N_17  and  C_18
REMARK    8  A    between atoms: C_18  and  C_19
REMARK    9  A    between atoms: C_19  and  O_20
REMARK                            x       y       z     vdW  Elec       q    Type
REMARK                         _______ _______ _______ _____ _____    ______ ____
ROOT
ATOM      1  C   UNL     1       6.275   4.405  14.225  0.00  0.00    +0.000 A 
ATOM      2  N   UNL     1       5.674   3.486  15.046  0.00  0.00    +0.000 NA
ATOM      3  C   UNL     1       5.192   4.200  16.051  0.00  0.00    +0.000 A 
ATOM      4  N   UNL     1       5.575   5.510  15.853  0.00  0.00    +0.000 N 
ATOM      5  N   UNL     1       6.190   5.665  14.660  0.00  0.00    +0.000 NA
ENDROOT
BRANCH   3   6
ATOM      6  C   UNL     1       4.383   3.671  17.143  0.00  0.00    +0.000 A 
ATOM      7  C   UNL     1       3.081   3.257  16.961  0.00  0.00    +0.000 A 
ATOM      8  N   UNL     1       2.268   2.818  17.957  0.00  0.00    +0.000 NA
ATOM      9  C   UNL     1       2.770   2.804  19.208  0.00  0.00    +0.000 A 
ATOM     10  N   UNL     1       4.038   3.176  19.484  0.00  0.00    +0.000 NA
ATOM     11  C   UNL     1       4.796   3.614  18.457  0.00  0.00    +0.000 A 
BRANCH   9  12
ATOM     12  C   UNL     1       1.864   2.484  20.373  0.00  0.00    +0.000 C 
ATOM     13  C   UNL     1       2.239   2.802  21.800  0.00  0.00    +0.000 C 
ATOM     14  C   UNL     1       1.171   3.601  21.119  0.00  0.00    +0.000 C 
ENDBRANCH   9  12
ENDBRANCH   3   6
BRANCH   1  15
ATOM     15  C   UNL     1       6.894   4.049  12.922  0.00  0.00    +0.000 C 
BRANCH  15  16
ATOM     16  C   UNL     1       6.016   3.124  12.081  0.00  0.00    +0.000 C 
BRANCH  16  18
ATOM     17  C   UNL     1       3.928   3.064  10.980  0.00  0.00    +0.000 C 
ATOM     18  O   UNL     1       4.675   3.620  12.052  0.00  0.00    +0.000 OA
ENDBRANCH  16  18
ENDBRANCH  15  16
ENDBRANCH   1  15
BRANCH   4  19
ATOM     19  C   UNL     1       5.373   6.673  16.699  0.00  0.00    +0.000 C 
BRANCH  19  20
ATOM     20  C   UNL     1       6.638   7.158  17.401  0.00  0.00    +0.000 C 
BRANCH  20  21
ATOM     21  O   UNL     1       7.726   6.256  17.210  0.00  0.00    +0.000 OA
ATOM     22  H   UNL     1       7.676   5.622  17.961  0.00  0.00    +0.000 HD
ENDBRANCH  20  21
ENDBRANCH  19  20
ENDBRANCH   4  19
TORSDOF 8
ENDMDL
MODEL 6
REMARK VINA RESULT:      -6.5      1.020      1.511
REMARK  Name = 
REMARK  9 active torsions:
REMARK  status: ('A' for Active; 'I' for Inactive)
REMARK    1  A    between atoms: C_1  and  O_2
REMARK    2  A    between atoms: O_2  and  C_3
REMARK    3  A    between atoms: C_3  and  C_4
REMARK    4  A    between atoms: C_4  and  C_5
REMARK    5  A    between atoms: C_7  and  C_8
REMARK    6  A    between atoms: C_11  and  C_12
REMARK    7  A    between atoms: N_17  and  C_18
REMARK    8  A    between atoms: C_18  and  C_19
REMARK    9  A    between atoms: C_19  and  O_20
REMARK                            x       y       z     vdW  Elec       q    Type
REMARK                         _______ _______ _______ _____ _____    ______ ____
ROOT
ATOM      1  C   UNL     1       6.577   4.489  14.180  0.00  0.00    +0.000 A 
ATOM      2  N   UNL     1       5.464   4.069  14.861  0.00  0.00    +0.000 NA
ATOM      3  C   UNL     1       5.573   4.628  16.056  0.00  0.00    +0.000 A 
ATOM      4  N   UNL     1       6.774   5.305  16.091  0.00  0.00    +0.000 N 
ATOM      5  N   UNL     1       7.379   5.292  14.884  0.00  0.00    +0.000 NA
ENDROOT
BRANCH   3   6
ATOM      6  C   UNL     1       4.572   4.545  17.112  0.00  0.00    +0.000 A 
ATOM      7  C   UNL     1       4.267   3.360  17.747  0.00  0.00    +0.000 A 
ATOM      8  N   UNL     1       3.298   3.221  18.690  0.00  0.00    +0.000 NA
ATOM      9  C   UNL     1       2.580   4.316  19.010  0.00  0.00    +0.000 A 
ATOM     10  N   UNL     1       2.815   5.523  18.455  0.00  0.00    +0.000 NA
ATOM     11  C   UNL     1       3.781   5.600  17.516  0.00  0.00    +0.000 A 
BRANCH   9  12
ATOM     12  C   UNL     1       1.388   4.185  19.927  0.00  0.00    +0.000 C 
ATOM     13  C   UNL     1       0.729   2.858  20.212  0.00  0.00    +0.000 C 
ATOM     14  C   UNL     1       1.543   3.525  21.278  0.00  0.00    +0.000 C 
ENDBRANCH   9  12
ENDBRANCH   3   6
BRANCH   1  15
ATOM     15  C   UNL     1       6.833   4.155  12.754  0.00  0.00    +0.000 C 
BRANCH  15  16
ATOM     16  C   UNL     1       5.819   3.163  12.187  0.00  0.00    +0.000 C 
BRANCH  16  18
ATOM     17  C   UNL     1       3.762   2.989  11.040  0.00  0.00    +0.000 C 
ATOM     18  O   UNL     1       4.695   3.868  11.653  0.00  0.00    +0.000 OA
ENDBRANCH  16  18
ENDBRANCH  15  16
ENDBRANCH   1  15
BRANCH   4  19
ATOM     19  C   UNL     1       7.403   6.017  17.189  0.00  0.00    +0.000 C 
BRANCH  19  20
ATOM     20  C   UNL     1       6.965   7.474  17.317  0.00  0.00    +0.000 C 
BRANCH  20  21
ATOM     21  O   UNL     1       8.029   8.306  17.774  0.00  0.00    +0.000 OA
ATOM     22  H   UNL     1       8.650   8.380  17.015  0.00  0.00    +0.000 HD
ENDBRANCH  20  21
ENDBRANCH  19  20
ENDBRANCH   4  19
TORSDOF 8
ENDMDL
MODEL 7
REMARK VINA RESULT:      -6.1      3.800      5.655
REMARK  Name = 
REMARK  9 active torsions:
REMARK  status: ('A' for Active; 'I' for Inactive)
REMARK    1  A    between atoms: C_1  and  O_2
REMARK    2  A    between atoms: O_2  and  C_3
REMARK    3  A    between atoms: C_3  and  C_4
REMARK    4  A    between atoms: C_4  and  C_5
REMARK    5  A    between atoms: C_7  and  C_8
REMARK    6  A    between atoms: C_11  and  C_12
REMARK    7  A    between atoms: N_17  and  C_18
REMARK    8  A    between atoms: C_18  and  C_19
REMARK    9  A    between atoms: C_19  and  O_20
REMARK                            x       y       z     vdW  Elec       q    Type
REMARK                         _______ _______ _______ _____ _____    ______ ____
ROOT
ATOM      1  C   UNL     1       4.778   4.772  16.829  0.00  0.00    +0.000 A 
ATOM      2  N   UNL     1       4.471   6.036  17.263  0.00  0.00    +0.000 NA
ATOM      3  C   UNL     1       3.259   5.925  17.783  0.00  0.00    +0.000 A 
ATOM      4  N   UNL     1       2.838   4.627  17.586  0.00  0.00    +0.000 N 
ATOM      5  N   UNL     1       3.822   3.868  17.056  0.00  0.00    +0.000 NA
ENDROOT
BRANCH   3   6
ATOM      6  C   UNL     1       2.538   6.996  18.460  0.00  0.00    +0.000 A 
ATOM      7  C   UNL     1       2.124   8.136  17.803  0.00  0.00    +0.000 A 
ATOM      8  N   UNL     1       1.507   9.188  18.403  0.00  0.00    +0.000 NA
ATOM      9  C   UNL     1       1.304   9.112  19.733  0.00  0.00    +0.000 A 
ATOM     10  N   UNL     1       1.660   8.032  20.460  0.00  0.00    +0.000 NA
ATOM     11  C   UNL     1       2.279   7.023  19.813  0.00  0.00    +0.000 A 
BRANCH   9  12
ATOM     12  C   UNL     1       0.775  10.315  20.477  0.00  0.00    +0.000 C 
ATOM     13  C   UNL     1      -0.615  10.858  20.250  0.00  0.00    +0.000 C 
ATOM     14  C   UNL     1      -0.300  10.141  21.526  0.00  0.00    +0.000 C 
ENDBRANCH   9  12
ENDBRANCH   3   6
BRANCH   1  15
ATOM     15  C   UNL     1       6.092   4.413  16.234  0.00  0.00    +0.000 C 
BRANCH  15  16
ATOM     16  C   UNL     1       7.272   5.001  17.004  0.00  0.00    +0.000 C 
BRANCH  16  18
ATOM     17  C   UNL     1       7.476   5.598  19.280  0.00  0.00    +0.000 C 
ATOM     18  O   UNL     1       7.247   4.542  18.358  0.00  0.00    +0.000 OA
ENDBRANCH  16  18
ENDBRANCH  15  16
ENDBRANCH   1  15
BRANCH   4  19
ATOM     19  C   UNL     1       1.560   4.010  17.897  0.00  0.00    +0.000 C 
BRANCH  19  20
ATOM     20  C   UNL     1       1.657   2.838  18.869  0.00  0.00    +0.000 C 
BRANCH  20  21
ATOM     21  O   UNL     1       1.930   1.612  18.192  0.00  0.00    +0.000 OA
ATOM     22  H   UNL     1       2.748   1.778  17.671  0.00  0.00    +0.000 HD
ENDBRANCH  20  21
ENDBRANCH  19  20
ENDBRANCH   4  19
TORSDOF 8
ENDMDL
MODEL 8
REMARK VINA RESULT:      -6.1      2.211      5.042
REMARK  Name = 
REMARK  9 active torsions:
REMARK  status: ('A' for Active; 'I' for Inactive)
REMARK    1  A    between atoms: C_1  and  O_2
REMARK    2  A    between atoms: O_2  and  C_3
REMARK    3  A    between atoms: C_3  and  C_4
REMARK    4  A    between atoms: C_4  and  C_5
REMARK    5  A    between atoms: C_7  and  C_8
REMARK    6  A    between atoms: C_11  and  C_12
REMARK    7  A    between atoms: N_17  and  C_18
REMARK    8  A    between atoms: C_18  and  C_19
REMARK    9  A    between atoms: C_19  and  O_20
REMARK                            x       y       z     vdW  Elec       q    Type
REMARK                         _______ _______ _______ _____ _____    ______ ____
ROOT
ATOM      1  C   UNL     1       7.241   7.621  17.277  0.00  0.00    +0.000 A 
ATOM      2  N   UNL     1       6.136   7.190  17.964  0.00  0.00    +0.000 NA
ATOM      3  C   UNL     1       5.945   5.949  17.545  0.00  0.00    +0.000 A 
ATOM      4  N   UNL     1       6.886   5.689  16.571  0.00  0.00    +0.000 N 
ATOM      5  N   UNL     1       7.761   6.710  16.451  0.00  0.00    +0.000 NA
ENDROOT
BRANCH   3   6
ATOM      6  C   UNL     1       4.930   5.038  18.061  0.00  0.00    +0.000 A 
ATOM      7  C   UNL     1       3.625   5.063  17.619  0.00  0.00    +0.000 A 
ATOM      8  N   UNL     1       2.631   4.280  18.114  0.00  0.00    +0.000 NA
ATOM      9  C   UNL     1       2.946   3.436  19.117  0.00  0.00    +0.000 A 
ATOM     10  N   UNL     1       4.198   3.329  19.607  0.00  0.00    +0.000 NA
ATOM     11  C   UNL     1       5.143   4.140  19.085  0.00  0.00    +0.000 A 
BRANCH   9  12
ATOM     12  C   UNL     1       1.852   2.664  19.815  0.00  0.00    +0.000 C 
ATOM     13  C   UNL     1       1.624   2.753  21.304  0.00  0.00    +0.000 C 
ATOM     14  C   UNL     1       0.647   3.392  20.366  0.00  0.00    +0.000 C 
ENDBRANCH   9  12
ENDBRANCH   3   6
BRANCH   1  15
ATOM     15  C   UNL     1       7.863   8.954  17.491  0.00  0.00    +0.000 C 
BRANCH  15  16
ATOM     16  C   UNL     1       8.623   9.049  18.813  0.00  0.00    +0.000 C 
BRANCH  16  18
ATOM     17  C   UNL     1       8.966  11.304  18.202  0.00  0.00    +0.000 C 
ATOM     18  O   UNL     1       9.549  10.138  18.764  0.00  0.00    +0.000 OA
ENDBRANCH  16  18
ENDBRANCH  15  16
ENDBRANCH   1  15
BRANCH   4  19
ATOM     19  C   UNL     1       7.059   4.509  15.743  0.00  0.00    +0.000 C 
BRANCH  19  20
ATOM     20  C   UNL     1       6.669   4.712  14.281  0.00  0.00    +0.000 C 
BRANCH  20  21
ATOM     21  O   UNL     1       6.408   3.472  13.627  0.00  0.00    +0.000 OA
ATOM     22  H   UNL     1       7.047   2.832  14.014  0.00  0.00    +0.000 HD
ENDBRANCH  20  21
ENDBRANCH  19  20
ENDBRANCH   4  19
TORSDOF 8
ENDMDL
MODEL 9
REMARK VINA RESULT:      -6.1      3.871      5.160
REMARK  Name = 
REMARK  9 active torsions:
REMARK  status: ('A' for Active; 'I' for Inactive)
REMARK    1  A    between atoms: C_1  and  O_2
REMARK    2  A    between atoms: O_2  and  C_3
REMARK    3  A    between atoms: C_3  and  C_4
REMARK    4  A    between atoms: C_4  and  C_5
REMARK    5  A    between atoms: C_7  and  C_8
REMARK    6  A    between atoms: C_11  and  C_12
REMARK    7  A    between atoms: N_17  and  C_18
REMARK    8  A    between atoms: C_18  and  C_19
REMARK    9  A    between atoms: C_19  and  O_20
REMARK                            x       y       z     vdW  Elec       q    Type
REMARK                         _______ _______ _______ _____ _____    ______ ____
ROOT
ATOM      1  C   UNL     1       4.892   4.786  16.998  0.00  0.00    +0.000 A 
ATOM      2  N   UNL     1       4.633   6.070  17.402  0.00  0.00    +0.000 NA
ATOM      3  C   UNL     1       3.381   6.040  17.830  0.00  0.00    +0.000 A 
ATOM      4  N   UNL     1       2.894   4.769  17.606  0.00  0.00    +0.000 N 
ATOM      5  N   UNL     1       3.866   3.945  17.156  0.00  0.00    +0.000 NA
ENDROOT
BRANCH   3   6
ATOM      6  C   UNL     1       2.679   7.160  18.445  0.00  0.00    +0.000 A 
ATOM      7  C   UNL     1       2.298   7.152  19.770  0.00  0.00    +0.000 A 
ATOM      8  N   UNL     1       1.587   8.142  20.371  0.00  0.00    +0.000 NA
ATOM      9  C   UNL     1       1.219   9.192  19.611  0.00  0.00    +0.000 A 
ATOM     10  N   UNL     1       1.557   9.297  18.309  0.00  0.00    +0.000 NA
ATOM     11  C   UNL     1       2.254   8.279  17.762  0.00  0.00    +0.000 A 
BRANCH   9  12
ATOM     12  C   UNL     1       0.291  10.238  20.181  0.00  0.00    +0.000 C 
ATOM     13  C   UNL     1       0.138  10.459  21.666  0.00  0.00    +0.000 C 
ATOM     14  C   UNL     1       0.860  11.475  20.836  0.00  0.00    +0.000 C 
ENDBRANCH   9  12
ENDBRANCH   3   6
BRANCH   1  15
ATOM     15  C   UNL     1       6.222   4.340  16.506  0.00  0.00    +0.000 C 
BRANCH  15  16
ATOM     16  C   UNL     1       6.575   4.925  15.141  0.00  0.00    +0.000 C 
BRANCH  16  18
ATOM     17  C   UNL     1       6.188   3.689  13.167  0.00  0.00    +0.000 C 
ATOM     18  O   UNL     1       5.610   4.512  14.169  0.00  0.00    +0.000 OA
ENDBRANCH  16  18
ENDBRANCH  15  16
ENDBRANCH   1  15
BRANCH   4  19
ATOM     19  C   UNL     1       1.561   4.236  17.822  0.00  0.00    +0.000 C 
BRANCH  19  20
ATOM     20  C   UNL     1       1.531   2.954  18.650  0.00  0.00    +0.000 C 
BRANCH  20  21
ATOM     21  O   UNL     1       2.007   1.834  17.906  0.00  0.00    +0.000 OA
ATOM     22  H   UNL     1       1.496   1.841  17.066  0.00  0.00    +0.000 HD
ENDBRANCH  20  21
ENDBRANCH  19  20
ENDBRANCH   4  19
TORSDOF 8
ENDMDL
