MODEL 1
REMARK VINA RESULT:      -7.4      0.000      0.000
REMARK  Name = 
REMARK  7 active torsions:
REMARK  status: ('A' for Active; 'I' for Inactive)
REMARK    1  A    between atoms: C_1  and  O_2
REMARK    2  A    between atoms: O_2  and  C_3
REMARK    3  A    between atoms: C_6  and  C_7
REMARK    4  A    between atoms: C_9  and  C_10
REMARK    5  A    between atoms: C_13  and  O_14
REMARK    6  A    between atoms: C_15  and  C_16
REMARK    7  A    between atoms: C_20  and  C_22
REMARK                            x       y       z     vdW  Elec       q    Type
REMARK                         _______ _______ _______ _____ _____    ______ ____
ROOT
ATOM      1  C   UNL     1       5.235   5.876  17.961  0.00  0.00    +0.000 C 
ATOM      2  C   UNL     1       4.658   7.292  17.854  0.00  0.00    +0.000 C 
ATOM      3  C   UNL     1       3.312   7.085  18.489  0.00  0.00    +0.000 C 
ATOM      4  N   UNL     1       3.053   5.874  18.864  0.00  0.00    +0.000 NA
ATOM      5  N   UNL     1       4.159   5.114  18.611  0.00  0.00    +0.000 N 
ATOM      6  C   UNL     1       4.255   3.788  19.021  0.00  0.00    +0.000 C 
ATOM      7  O   UNL     1       5.210   3.056  18.760  0.00  0.00    +0.000 OA
ENDROOT
BRANCH   3   8
ATOM      8  C   UNL     1       2.326   8.174  18.650  0.00  0.00    +0.000 A 
ATOM      9  C   UNL     1       2.167   9.088  17.601  0.00  0.00    +0.000 A 
ATOM     10  C   UNL     1       1.290  10.163  17.736  0.00  0.00    +0.000 A 
ATOM     11  C   UNL     1       0.567  10.315  18.917  0.00  0.00    +0.000 A 
ATOM     12  C   UNL     1       0.691   9.396  19.965  0.00  0.00    +0.000 A 
ATOM     13  C   UNL     1      -0.068   9.535  21.252  0.00  0.00    +0.000 C 
ATOM     14  C   UNL     1       1.571   8.311  19.815  0.00  0.00    +0.000 A 
BRANCH  11  15
ATOM     15  O   UNL     1      -0.272  11.383  19.066  0.00  0.00    +0.000 OA
ATOM     16  H   UNL     1      -0.669  11.351  19.951  0.00  0.00    +0.000 HD
ENDBRANCH  11  15
ENDBRANCH   3   8
BRANCH   1  20
ATOM     17  C   UNL     1       6.450   4.421  14.061  0.00  0.00    +0.000 A 
ATOM     18  C   UNL     1       5.115   4.347  14.464  0.00  0.00    +0.000 A 
ATOM     19  C   UNL     1       4.729   4.816  15.724  0.00  0.00    +0.000 A 
ATOM     20  C   UNL     1       5.675   5.353  16.609  0.00  0.00    +0.000 A 
ATOM     21  C   UNL     1       7.022   5.369  16.214  0.00  0.00    +0.000 A 
ATOM     22  C   UNL     1       7.401   4.915  14.948  0.00  0.00    +0.000 A 
BRANCH  17  24
ATOM     23  C   UNL     1       5.670   3.195  12.207  0.00  0.00    +0.000 C 
ATOM     24  O   UNL     1       6.716   3.957  12.803  0.00  0.00    +0.000 OA
ENDBRANCH  17  24
ENDBRANCH   1  20
BRANCH   6  25
ATOM     25  C   UNL     1       3.123   3.213  19.807  0.00  0.00    +0.000 A 
ATOM     26  C   UNL     1       2.017   2.696  19.134  0.00  0.00    +0.000 A 
ATOM     27  C   UNL     1       0.975   2.192  19.894  0.00  0.00    +0.000 A 
ATOM     28  N   UNL     1       0.967   2.173  21.245  0.00  0.00    +0.000 NA
ATOM     29  C   UNL     1       2.060   2.656  21.866  0.00  0.00    +0.000 A 
ATOM     30  C   UNL     1       3.161   3.153  21.201  0.00  0.00    +0.000 A 
ENDBRANCH   6  25
TORSDOF 5
ENDMDL
MODEL 2
REMARK VINA RESULT:      -7.1      4.673      8.706
REMARK  Name = 
REMARK  7 active torsions:
REMARK  status: ('A' for Active; 'I' for Inactive)
REMARK    1  A    between atoms: C_1  and  O_2
REMARK    2  A    between atoms: O_2  and  C_3
REMARK    3  A    between atoms: C_6  and  C_7
REMARK    4  A    between atoms: C_9  and  C_10
REMARK    5  A    between atoms: C_13  and  O_14
REMARK    6  A    between atoms: C_15  and  C_16
REMARK    7  A    between atoms: C_20  and  C_22
REMARK                            x       y       z     vdW  Elec       q    Type
REMARK                         _______ _______ _______ _____ _____    ______ ____
ROOT
ATOM      1  C   UNL     1       0.195  10.769  18.674  0.00  0.00    +0.000 C 
ATOM      2  C   UNL     1      -1.154  10.665  19.393  0.00  0.00    +0.000 C 
ATOM      3  C   UNL     1      -1.103  11.898  20.249  0.00  0.00    +0.000 C 
ATOM      4  N   UNL     1      -0.013  12.593  20.161  0.00  0.00    +0.000 NA
ATOM      5  N   UNL     1       0.783  11.999  19.223  0.00  0.00    +0.000 N 
ATOM      6  C   UNL     1       1.974  12.576  18.793  0.00  0.00    +0.000 C 
ATOM      7  O   UNL     1       2.746  12.044  17.995  0.00  0.00    +0.000 OA
ENDROOT
BRANCH   3   8
ATOM      8  C   UNL     1      -2.196  12.287  21.163  0.00  0.00    +0.000 A 
ATOM      9  C   UNL     1      -2.017  12.090  22.538  0.00  0.00    +0.000 A 
ATOM     10  C   UNL     1      -3.047  12.389  23.429  0.00  0.00    +0.000 A 
ATOM     11  C   UNL     1      -4.251  12.892  22.942  0.00  0.00    +0.000 A 
ATOM     12  C   UNL     1      -4.439  13.121  21.574  0.00  0.00    +0.000 A 
ATOM     13  C   UNL     1      -5.727  13.656  21.017  0.00  0.00    +0.000 C 
ATOM     14  C   UNL     1      -3.392  12.826  20.686  0.00  0.00    +0.000 A 
BRANCH  11  15
ATOM     15  O   UNL     1      -5.273  13.158  23.807  0.00  0.00    +0.000 OA
ATOM     16  H   UNL     1      -6.118  12.996  23.357  0.00  0.00    +0.000 HD
ENDBRANCH  11  15
ENDBRANCH   3   8
BRANCH   1  20
ATOM     17  C   UNL     1       2.508   7.146  19.240  0.00  0.00    +0.000 A 
ATOM     18  C   UNL     1       1.862   7.754  20.319  0.00  0.00    +0.000 A 
ATOM     19  C   UNL     1       1.120   8.924  20.131  0.00  0.00    +0.000 A 
ATOM     20  C   UNL     1       1.022   9.514  18.862  0.00  0.00    +0.000 A 
ATOM     21  C   UNL     1       1.723   8.925  17.798  0.00  0.00    +0.000 A 
ATOM     22  C   UNL     1       2.450   7.747  17.987  0.00  0.00    +0.000 A 
BRANCH  17  24
ATOM     23  C   UNL     1       2.468   5.051  20.317  0.00  0.00    +0.000 C 
ATOM     24  O   UNL     1       3.187   5.995  19.528  0.00  0.00    +0.000 OA
ENDBRANCH  17  24
ENDBRANCH   1  20
BRANCH   6  25
ATOM     25  C   UNL     1       2.348  13.911  19.349  0.00  0.00    +0.000 A 
ATOM     26  C   UNL     1       1.917  15.067  18.701  0.00  0.00    +0.000 A 
ATOM     27  C   UNL     1       2.302  16.287  19.230  0.00  0.00    +0.000 A 
ATOM     28  N   UNL     1       3.069  16.422  20.335  0.00  0.00    +0.000 NA
ATOM     29  C   UNL     1       3.448  15.288  20.953  0.00  0.00    +0.000 A 
ATOM     30  C   UNL     1       3.094  14.026  20.524  0.00  0.00    +0.000 A 
ENDBRANCH   6  25
TORSDOF 5
ENDMDL
MODEL 3
REMARK VINA RESULT:      -7.0      4.778      8.836
REMARK  Name = 
REMARK  7 active torsions:
REMARK  status: ('A' for Active; 'I' for Inactive)
REMARK    1  A    between atoms: C_1  and  O_2
REMARK    2  A    between atoms: O_2  and  C_3
REMARK    3  A    between atoms: C_6  and  C_7
REMARK    4  A    between atoms: C_9  and  C_10
REMARK    5  A    between atoms: C_13  and  O_14
REMARK    6  A    between atoms: C_15  and  C_16
REMARK    7  A    between atoms: C_20  and  C_22
REMARK                            x       y       z     vdW  Elec       q    Type
REMARK                         _______ _______ _______ _____ _____    ______ ____
ROOT
ATOM      1  C   UNL     1       0.078  10.917  18.541  0.00  0.00    +0.000 C 
ATOM      2  C   UNL     1      -1.354  10.776  19.069  0.00  0.00    +0.000 C 
ATOM      3  C   UNL     1      -1.441  11.994  19.945  0.00  0.00    +0.000 C 
ATOM      4  N   UNL     1      -0.364  12.707  20.017  0.00  0.00    +0.000 NA
ATOM      5  N   UNL     1       0.563  12.146  19.185  0.00  0.00    +0.000 N 
ATOM      6  C   UNL     1       1.790  12.750  18.931  0.00  0.00    +0.000 C 
ATOM      7  O   UNL     1       2.673  12.247  18.236  0.00  0.00    +0.000 OA
ENDROOT
BRANCH   3   8
ATOM      8  C   UNL     1      -2.656  12.346  20.708  0.00  0.00    +0.000 A 
ATOM      9  C   UNL     1      -3.817  12.675  19.998  0.00  0.00    +0.000 A 
ATOM     10  C   UNL     1      -4.967  13.070  20.679  0.00  0.00    +0.000 A 
ATOM     11  C   UNL     1      -4.955  13.126  22.072  0.00  0.00    +0.000 A 
ATOM     12  C   UNL     1      -3.813  12.774  22.800  0.00  0.00    +0.000 A 
ATOM     13  C   UNL     1      -3.766  12.829  24.299  0.00  0.00    +0.000 C 
ATOM     14  C   UNL     1      -2.663  12.368  22.104  0.00  0.00    +0.000 A 
BRANCH  11  15
ATOM     15  O   UNL     1      -6.070  13.540  22.743  0.00  0.00    +0.000 OA
ATOM     16  H   UNL     1      -5.928  14.447  23.060  0.00  0.00    +0.000 HD
ENDBRANCH  11  15
ENDBRANCH   3   8
BRANCH   1  20
ATOM     17  C   UNL     1       2.364   7.325  19.362  0.00  0.00    +0.000 A 
ATOM     18  C   UNL     1       1.706   8.002  20.393  0.00  0.00    +0.000 A 
ATOM     19  C   UNL     1       0.973   9.160  20.122  0.00  0.00    +0.000 A 
ATOM     20  C   UNL     1       0.896   9.673  18.818  0.00  0.00    +0.000 A 
ATOM     21  C   UNL     1       1.609   9.016  17.803  0.00  0.00    +0.000 A 
ATOM     22  C   UNL     1       2.327   7.848  18.074  0.00  0.00    +0.000 A 
BRANCH  17  24
ATOM     23  C   UNL     1       2.230   5.193  20.356  0.00  0.00    +0.000 C 
ATOM     24  O   UNL     1       3.032   6.191  19.731  0.00  0.00    +0.000 OA
ENDBRANCH  17  24
ENDBRANCH   1  20
BRANCH   6  25
ATOM     25  C   UNL     1       2.061  14.080  19.556  0.00  0.00    +0.000 A 
ATOM     26  C   UNL     1       2.714  14.137  20.785  0.00  0.00    +0.000 A 
ATOM     27  C   UNL     1       2.928  15.384  21.347  0.00  0.00    +0.000 A 
ATOM     28  N   UNL     1       2.541  16.546  20.775  0.00  0.00    +0.000 NA
ATOM     29  C   UNL     1       1.934  16.460  19.575  0.00  0.00    +0.000 A 
ATOM     30  C   UNL     1       1.701  15.269  18.919  0.00  0.00    +0.000 A 
ENDBRANCH   6  25
TORSDOF 5
ENDMDL
MODEL 4
REMARK VINA RESULT:      -7.0      4.757      8.770
REMARK  Name = 
REMARK  7 active torsions:
REMARK  status: ('A' for Active; 'I' for Inactive)
REMARK    1  A    between atoms: C_1  and  O_2
REMARK    2  A    between atoms: O_2  and  C_3
REMARK    3  A    between atoms: C_6  and  C_7
REMARK    4  A    between atoms: C_9  and  C_10
REMARK    5  A    between atoms: C_13  and  O_14
REMARK    6  A    between atoms: C_15  and  C_16
REMARK    7  A    between atoms: C_20  and  C_22
REMARK                            x       y       z     vdW  Elec       q    Type
REMARK                         _______ _______ _______ _____ _____    ______ ____
ROOT
ATOM      1  C   UNL     1       0.081  10.933  18.855  0.00  0.00    +0.000 C 
ATOM      2  C   UNL     1      -1.259  10.806  19.588  0.00  0.00    +0.000 C 
ATOM      3  C   UNL     1      -1.179  11.994  20.504  0.00  0.00    +0.000 C 
ATOM      4  N   UNL     1      -0.084  12.680  20.435  0.00  0.00    +0.000 NA
ATOM      5  N   UNL     1       0.691  12.126  19.456  0.00  0.00    +0.000 N 
ATOM      6  C   UNL     1       1.883  12.711  19.037  0.00  0.00    +0.000 C 
ATOM      7  O   UNL     1       2.636  12.212  18.202  0.00  0.00    +0.000 OA
ENDROOT
BRANCH   3   8
ATOM      8  C   UNL     1      -2.255  12.348  21.453  0.00  0.00    +0.000 A 
ATOM      9  C   UNL     1      -2.056  12.084  22.814  0.00  0.00    +0.000 A 
ATOM     10  C   UNL     1      -3.069  12.348  23.735  0.00  0.00    +0.000 A 
ATOM     11  C   UNL     1      -4.276  12.886  23.293  0.00  0.00    +0.000 A 
ATOM     12  C   UNL     1      -4.483  13.182  21.941  0.00  0.00    +0.000 A 
ATOM     13  C   UNL     1      -5.773  13.756  21.431  0.00  0.00    +0.000 C 
ATOM     14  C   UNL     1      -3.452  12.922  21.022  0.00  0.00    +0.000 A 
BRANCH  11  15
ATOM     15  O   UNL     1      -5.281  13.119  24.186  0.00  0.00    +0.000 OA
ATOM     16  H   UNL     1      -4.900  13.208  25.075  0.00  0.00    +0.000 HD
ENDBRANCH  11  15
ENDBRANCH   3   8
BRANCH   1  20
ATOM     17  C   UNL     1       2.467   7.324  19.146  0.00  0.00    +0.000 A 
ATOM     18  C   UNL     1       2.273   7.952  17.913  0.00  0.00    +0.000 A 
ATOM     19  C   UNL     1       1.501   9.114  17.825  0.00  0.00    +0.000 A 
ATOM     20  C   UNL     1       0.896   9.661  18.967  0.00  0.00    +0.000 A 
ATOM     21  C   UNL     1       1.051   8.987  20.189  0.00  0.00    +0.000 A 
ATOM     22  C   UNL     1       1.837   7.836  20.275  0.00  0.00    +0.000 A 
BRANCH  17  24
ATOM     23  C   UNL     1       3.844   5.908  17.861  0.00  0.00    +0.000 C 
ATOM     24  O   UNL     1       3.258   6.208  19.124  0.00  0.00    +0.000 OA
ENDBRANCH  17  24
ENDBRANCH   1  20
BRANCH   6  25
ATOM     25  C   UNL     1       2.281  14.012  19.654  0.00  0.00    +0.000 A 
ATOM     26  C   UNL     1       3.065  14.010  20.807  0.00  0.00    +0.000 A 
ATOM     27  C   UNL     1       3.396  15.232  21.367  0.00  0.00    +0.000 A 
ATOM     28  N   UNL     1       3.005  16.423  20.862  0.00  0.00    +0.000 NA
ATOM     29  C   UNL     1       2.271  16.394  19.733  0.00  0.00    +0.000 A 
ATOM     30  C   UNL     1       1.913  15.231  19.083  0.00  0.00    +0.000 A 
ENDBRANCH   6  25
TORSDOF 5
ENDMDL
MODEL 5
REMARK VINA RESULT:      -6.9      4.873      8.885
REMARK  Name = 
REMARK  7 active torsions:
REMARK  status: ('A' for Active; 'I' for Inactive)
REMARK    1  A    between atoms: C_1  and  O_2
REMARK    2  A    between atoms: O_2  and  C_3
REMARK    3  A    between atoms: C_6  and  C_7
REMARK    4  A    between atoms: C_9  and  C_10
REMARK    5  A    between atoms: C_13  and  O_14
REMARK    6  A    between atoms: C_15  and  C_16
REMARK    7  A    between atoms: C_20  and  C_22
REMARK                            x       y       z     vdW  Elec       q    Type
REMARK                         _______ _______ _______ _____ _____    ______ ____
ROOT
ATOM      1  C   UNL     1       0.201  11.141  19.178  0.00  0.00    +0.000 C 
ATOM      2  C   UNL     1      -0.944  11.136  20.196  0.00  0.00    +0.000 C 
ATOM      3  C   UNL     1      -0.598  12.358  21.000  0.00  0.00    +0.000 C 
ATOM      4  N   UNL     1       0.489  12.967  20.648  0.00  0.00    +0.000 NA
ATOM      5  N   UNL     1       0.994  12.319  19.556  0.00  0.00    +0.000 N 
ATOM      6  C   UNL     1       2.090  12.805  18.850  0.00  0.00    +0.000 C 
ATOM      7  O   UNL     1       2.609  12.221  17.900  0.00  0.00    +0.000 OA
ENDROOT
BRANCH   3   8
ATOM      8  C   UNL     1      -1.412  12.823  22.141  0.00  0.00    +0.000 A 
ATOM      9  C   UNL     1      -2.663  12.231  22.352  0.00  0.00    +0.000 A 
ATOM     10  C   UNL     1      -3.488  12.682  23.382  0.00  0.00    +0.000 A 
ATOM     11  C   UNL     1      -3.053  13.719  24.204  0.00  0.00    +0.000 A 
ATOM     12  C   UNL     1      -1.795  14.305  24.026  0.00  0.00    +0.000 A 
ATOM     13  C   UNL     1      -1.300  15.428  24.891  0.00  0.00    +0.000 C 
ATOM     14  C   UNL     1      -0.968  13.837  22.992  0.00  0.00    +0.000 A 
BRANCH  11  15
ATOM     15  O   UNL     1      -3.869  14.185  25.196  0.00  0.00    +0.000 OA
ATOM     16  H   UNL     1      -3.888  15.155  25.159  0.00  0.00    +0.000 HD
ENDBRANCH  11  15
ENDBRANCH   3   8
BRANCH   1  20
ATOM     17  C   UNL     1       2.295   7.345  19.215  0.00  0.00    +0.000 A 
ATOM     18  C   UNL     1       1.757   7.873  20.391  0.00  0.00    +0.000 A 
ATOM     19  C   UNL     1       1.085   9.098  20.373  0.00  0.00    +0.000 A 
ATOM     20  C   UNL     1       0.952   9.826  19.181  0.00  0.00    +0.000 A 
ATOM     21  C   UNL     1       1.548   9.312  18.019  0.00  0.00    +0.000 A 
ATOM     22  C   UNL     1       2.204   8.078  18.037  0.00  0.00    +0.000 A 
BRANCH  17  24
ATOM     23  C   UNL     1       2.538   5.162  18.363  0.00  0.00    +0.000 C 
ATOM     24  O   UNL     1       2.911   6.130  19.339  0.00  0.00    +0.000 OA
ENDBRANCH  17  24
ENDBRANCH   1  20
BRANCH   6  25
ATOM     25  C   UNL     1       2.685  14.105  19.285  0.00  0.00    +0.000 A 
ATOM     26  C   UNL     1       2.270  15.286  18.674  0.00  0.00    +0.000 A 
ATOM     27  C   UNL     1       2.859  16.470  19.085  0.00  0.00    +0.000 A 
ATOM     28  N   UNL     1       3.810  16.546  20.042  0.00  0.00    +0.000 NA
ATOM     29  C   UNL     1       4.173  15.391  20.632  0.00  0.00    +0.000 A 
ATOM     30  C   UNL     1       3.626  14.165  20.315  0.00  0.00    +0.000 A 
ENDBRANCH   6  25
TORSDOF 5
ENDMDL
MODEL 6
REMARK VINA RESULT:      -6.8      4.990      9.134
REMARK  Name = 
REMARK  7 active torsions:
REMARK  status: ('A' for Active; 'I' for Inactive)
REMARK    1  A    between atoms: C_1  and  O_2
REMARK    2  A    between atoms: O_2  and  C_3
REMARK    3  A    between atoms: C_6  and  C_7
REMARK    4  A    between atoms: C_9  and  C_10
REMARK    5  A    between atoms: C_13  and  O_14
REMARK    6  A    between atoms: C_15  and  C_16
REMARK    7  A    between atoms: C_20  and  C_22
REMARK                            x       y       z     vdW  Elec       q    Type
REMARK                         _______ _______ _______ _____ _____    ______ ____
ROOT
ATOM      1  C   UNL     1       0.162  11.303  19.393  0.00  0.00    +0.000 C 
ATOM      2  C   UNL     1      -0.966  11.389  20.427  0.00  0.00    +0.000 C 
ATOM      3  C   UNL     1      -0.568  12.638  21.160  0.00  0.00    +0.000 C 
ATOM      4  N   UNL     1       0.532  13.193  20.761  0.00  0.00    +0.000 NA
ATOM      5  N   UNL     1       0.998  12.473  19.698  0.00  0.00    +0.000 N 
ATOM      6  C   UNL     1       2.097  12.885  18.951  0.00  0.00    +0.000 C 
ATOM      7  O   UNL     1       2.582  12.234  18.026  0.00  0.00    +0.000 OA
ENDROOT
BRANCH   3   8
ATOM      8  C   UNL     1      -1.349  13.190  22.286  0.00  0.00    +0.000 A 
ATOM      9  C   UNL     1      -0.906  14.376  22.886  0.00  0.00    +0.000 A 
ATOM     10  C   UNL     1      -1.580  14.897  23.989  0.00  0.00    +0.000 A 
ATOM     11  C   UNL     1      -2.703  14.236  24.483  0.00  0.00    +0.000 A 
ATOM     12  C   UNL     1      -3.177  13.066  23.880  0.00  0.00    +0.000 A 
ATOM     13  C   UNL     1      -4.379  12.327  24.392  0.00  0.00    +0.000 C 
ATOM     14  C   UNL     1      -2.496  12.554  22.763  0.00  0.00    +0.000 A 
BRANCH  11  15
ATOM     15  O   UNL     1      -3.349  14.727  25.581  0.00  0.00    +0.000 OA
ATOM     16  H   UNL     1      -4.304  14.741  25.405  0.00  0.00    +0.000 HD
ENDBRANCH  11  15
ENDBRANCH   3   8
BRANCH   1  20
ATOM     17  C   UNL     1       2.133   7.447  19.601  0.00  0.00    +0.000 A 
ATOM     18  C   UNL     1       1.616   8.045  20.752  0.00  0.00    +0.000 A 
ATOM     19  C   UNL     1       0.984   9.289  20.680  0.00  0.00    +0.000 A 
ATOM     20  C   UNL     1       0.870   9.965  19.456  0.00  0.00    +0.000 A 
ATOM     21  C   UNL     1       1.445   9.380  18.317  0.00  0.00    +0.000 A 
ATOM     22  C   UNL     1       2.061   8.128  18.391  0.00  0.00    +0.000 A 
BRANCH  17  24
ATOM     23  C   UNL     1       1.926   5.285  20.514  0.00  0.00    +0.000 C 
ATOM     24  O   UNL     1       2.710   6.220  19.778  0.00  0.00    +0.000 OA
ENDBRANCH  17  24
ENDBRANCH   1  20
BRANCH   6  25
ATOM     25  C   UNL     1       2.741  14.185  19.309  0.00  0.00    +0.000 A 
ATOM     26  C   UNL     1       3.644  14.232  20.370  0.00  0.00    +0.000 A 
ATOM     27  C   UNL     1       4.204  15.457  20.689  0.00  0.00    +0.000 A 
ATOM     28  N   UNL     1       3.927  16.606  20.035  0.00  0.00    +0.000 NA
ATOM     29  C   UNL     1       3.070  16.525  18.998  0.00  0.00    +0.000 A 
ATOM     30  C   UNL     1       2.482  15.349  18.582  0.00  0.00    +0.000 A 
ENDBRANCH   6  25
TORSDOF 5
ENDMDL
MODEL 7
REMARK VINA RESULT:      -6.8      4.937      8.985
REMARK  Name = 
REMARK  7 active torsions:
REMARK  status: ('A' for Active; 'I' for Inactive)
REMARK    1  A    between atoms: C_1  and  O_2
REMARK    2  A    between atoms: O_2  and  C_3
REMARK    3  A    between atoms: C_6  and  C_7
REMARK    4  A    between atoms: C_9  and  C_10
REMARK    5  A    between atoms: C_13  and  O_14
REMARK    6  A    between atoms: C_15  and  C_16
REMARK    7  A    between atoms: C_20  and  C_22
REMARK                            x       y       z     vdW  Elec       q    Type
REMARK                         _______ _______ _______ _____ _____    ______ ____
ROOT
ATOM      1  C   UNL     1       0.128  11.282  19.349  0.00  0.00    +0.000 C 
ATOM      2  C   UNL     1      -0.988  11.352  20.398  0.00  0.00    +0.000 C 
ATOM      3  C   UNL     1      -0.581  12.590  21.145  0.00  0.00    +0.000 C 
ATOM      4  N   UNL     1       0.514  13.151  20.741  0.00  0.00    +0.000 NA
ATOM      5  N   UNL     1       0.967  12.447  19.661  0.00  0.00    +0.000 N 
ATOM      6  C   UNL     1       2.057  12.871  18.907  0.00  0.00    +0.000 C 
ATOM      7  O   UNL     1       2.530  12.236  17.966  0.00  0.00    +0.000 OA
ENDROOT
BRANCH   3   8
ATOM      8  C   UNL     1      -1.348  13.124  22.289  0.00  0.00    +0.000 A 
ATOM      9  C   UNL     1      -0.858  14.259  22.947  0.00  0.00    +0.000 A 
ATOM     10  C   UNL     1      -1.520  14.760  24.067  0.00  0.00    +0.000 A 
ATOM     11  C   UNL     1      -2.676  14.128  24.521  0.00  0.00    +0.000 A 
ATOM     12  C   UNL     1      -3.196  13.009  23.860  0.00  0.00    +0.000 A 
ATOM     13  C   UNL     1      -4.434  12.301  24.328  0.00  0.00    +0.000 C 
ATOM     14  C   UNL     1      -2.527  12.518  22.727  0.00  0.00    +0.000 A 
BRANCH  11  15
ATOM     15  O   UNL     1      -3.311  14.596  25.635  0.00  0.00    +0.000 OA
ATOM     16  H   UNL     1      -4.031  15.188  25.363  0.00  0.00    +0.000 HD
ENDBRANCH  11  15
ENDBRANCH   3   8
BRANCH   1  20
ATOM     17  C   UNL     1       2.212   7.481  19.412  0.00  0.00    +0.000 A 
ATOM     18  C   UNL     1       2.021   8.168  18.211  0.00  0.00    +0.000 A 
ATOM     19  C   UNL     1       1.346   9.392  18.197  0.00  0.00    +0.000 A 
ATOM     20  C   UNL     1       0.837   9.944  19.382  0.00  0.00    +0.000 A 
ATOM     21  C   UNL     1       0.985   9.215  20.572  0.00  0.00    +0.000 A 
ATOM     22  C   UNL     1       1.675   8.000  20.585  0.00  0.00    +0.000 A 
BRANCH  17  24
ATOM     23  C   UNL     1       3.696   6.163  18.143  0.00  0.00    +0.000 C 
ATOM     24  O   UNL     1       2.905   6.306  19.319  0.00  0.00    +0.000 OA
ENDBRANCH  17  24
ENDBRANCH   1  20
BRANCH   6  25
ATOM     25  C   UNL     1       2.704  14.166  19.277  0.00  0.00    +0.000 A 
ATOM     26  C   UNL     1       2.375  15.322  18.571  0.00  0.00    +0.000 A 
ATOM     27  C   UNL     1       3.011  16.500  18.924  0.00  0.00    +0.000 A 
ATOM     28  N   UNL     1       3.930  16.594  19.910  0.00  0.00    +0.000 NA
ATOM     29  C   UNL     1       4.209  15.466  20.591  0.00  0.00    +0.000 A 
ATOM     30  C   UNL     1       3.610  14.250  20.337  0.00  0.00    +0.000 A 
ENDBRANCH   6  25
TORSDOF 5
ENDMDL
MODEL 8
REMARK VINA RESULT:      -6.8      5.014      9.022
REMARK  Name = 
REMARK  7 active torsions:
REMARK  status: ('A' for Active; 'I' for Inactive)
REMARK    1  A    between atoms: C_1  and  O_2
REMARK    2  A    between atoms: O_2  and  C_3
REMARK    3  A    between atoms: C_6  and  C_7
REMARK    4  A    between atoms: C_9  and  C_10
REMARK    5  A    between atoms: C_13  and  O_14
REMARK    6  A    between atoms: C_15  and  C_16
REMARK    7  A    between atoms: C_20  and  C_22
REMARK                            x       y       z     vdW  Elec       q    Type
REMARK                         _______ _______ _______ _____ _____    ______ ____
ROOT
ATOM      1  C   UNL     1       0.016  10.953  18.170  0.00  0.00    +0.000 C 
ATOM      2  C   UNL     1      -1.495  10.708  18.245  0.00  0.00    +0.000 C 
ATOM      3  C   UNL     1      -1.916  11.870  19.099  0.00  0.00    +0.000 C 
ATOM      4  N   UNL     1      -0.957  12.636  19.511  0.00  0.00    +0.000 NA
ATOM      5  N   UNL     1       0.208  12.170  18.971  0.00  0.00    +0.000 N 
ATOM      6  C   UNL     1       1.412  12.851  19.112  0.00  0.00    +0.000 C 
ATOM      7  O   UNL     1       2.491  12.434  18.692  0.00  0.00    +0.000 OA
ENDROOT
BRANCH   3   8
ATOM      8  C   UNL     1      -3.322  12.116  19.482  0.00  0.00    +0.000 A 
ATOM      9  C   UNL     1      -3.579  12.738  20.710  0.00  0.00    +0.000 A 
ATOM     10  C   UNL     1      -4.892  12.935  21.134  0.00  0.00    +0.000 A 
ATOM     11  C   UNL     1      -5.946  12.517  20.324  0.00  0.00    +0.000 A 
ATOM     12  C   UNL     1      -5.709  11.918  19.082  0.00  0.00    +0.000 A 
ATOM     13  C   UNL     1      -6.821  11.451  18.189  0.00  0.00    +0.000 C 
ATOM     14  C   UNL     1      -4.382  11.734  18.658  0.00  0.00    +0.000 A 
BRANCH  11  15
ATOM     15  O   UNL     1      -7.233  12.681  20.749  0.00  0.00    +0.000 OA
ATOM     16  H   UNL     1      -7.227  13.142  21.604  0.00  0.00    +0.000 HD
ENDBRANCH  11  15
ENDBRANCH   3   8
BRANCH   1  20
ATOM     17  C   UNL     1       2.197   7.457  19.518  0.00  0.00    +0.000 A 
ATOM     18  C   UNL     1       1.450   8.221  20.418  0.00  0.00    +0.000 A 
ATOM     19  C   UNL     1       0.752   9.349  19.978  0.00  0.00    +0.000 A 
ATOM     20  C   UNL     1       0.798   9.741  18.632  0.00  0.00    +0.000 A 
ATOM     21  C   UNL     1       1.598   8.998  17.750  0.00  0.00    +0.000 A 
ATOM     22  C   UNL     1       2.281   7.862  18.190  0.00  0.00    +0.000 A 
BRANCH  17  24
ATOM     23  C   UNL     1       1.952   5.362  20.569  0.00  0.00    +0.000 C 
ATOM     24  O   UNL     1       2.823   6.362  20.047  0.00  0.00    +0.000 OA
ENDBRANCH  17  24
ENDBRANCH   1  20
BRANCH   6  25
ATOM     25  C   UNL     1       1.398  14.159  19.836  0.00  0.00    +0.000 A 
ATOM     26  C   UNL     1       1.629  14.182  21.210  0.00  0.00    +0.000 A 
ATOM     27  C   UNL     1       1.586  15.407  21.853  0.00  0.00    +0.000 A 
ATOM     28  N   UNL     1       1.333  16.578  21.228  0.00  0.00    +0.000 NA
ATOM     29  C   UNL     1       1.139  16.527  19.896  0.00  0.00    +0.000 A 
ATOM     30  C   UNL     1       1.191  15.362  19.159  0.00  0.00    +0.000 A 
ENDBRANCH   6  25
TORSDOF 5
ENDMDL
MODEL 9
REMARK VINA RESULT:      -6.8      4.504     10.698
REMARK  Name = 
REMARK  7 active torsions:
REMARK  status: ('A' for Active; 'I' for Inactive)
REMARK    1  A    between atoms: C_1  and  O_2
REMARK    2  A    between atoms: O_2  and  C_3
REMARK    3  A    between atoms: C_6  and  C_7
REMARK    4  A    between atoms: C_9  and  C_10
REMARK    5  A    between atoms: C_13  and  O_14
REMARK    6  A    between atoms: C_15  and  C_16
REMARK    7  A    between atoms: C_20  and  C_22
REMARK                            x       y       z     vdW  Elec       q    Type
REMARK                         _______ _______ _______ _____ _____    ______ ____
ROOT
ATOM      1  C   UNL     1      -0.418  11.633  22.120  0.00  0.00    +0.000 C 
ATOM      2  C   UNL     1      -0.255  10.152  21.760  0.00  0.00    +0.000 C 
ATOM      3  C   UNL     1       0.805  10.246  20.699  0.00  0.00    +0.000 C 
ATOM      4  N   UNL     1       1.194  11.445  20.404  0.00  0.00    +0.000 NA
ATOM      5  N   UNL     1       0.535  12.311  21.230  0.00  0.00    +0.000 N 
ATOM      6  C   UNL     1       0.828  13.671  21.261  0.00  0.00    +0.000 C 
ATOM      7  O   UNL     1       0.217  14.490  21.947  0.00  0.00    +0.000 OA
ENDROOT
BRANCH   3   8
ATOM      8  C   UNL     1       1.348   9.062  20.003  0.00  0.00    +0.000 A 
ATOM      9  C   UNL     1       1.702   9.188  18.653  0.00  0.00    +0.000 A 
ATOM     10  C   UNL     1       2.164   8.080  17.944  0.00  0.00    +0.000 A 
ATOM     11  C   UNL     1       2.279   6.851  18.590  0.00  0.00    +0.000 A 
ATOM     12  C   UNL     1       1.958   6.712  19.945  0.00  0.00    +0.000 A 
ATOM     13  C   UNL     1       2.065   5.401  20.668  0.00  0.00    +0.000 C 
ATOM     14  C   UNL     1       1.503   7.837  20.653  0.00  0.00    +0.000 A 
BRANCH  11  15
ATOM     15  O   UNL     1       2.703   5.756  17.892  0.00  0.00    +0.000 OA
ATOM     16  H   UNL     1       3.669   5.796  17.797  0.00  0.00    +0.000 HD
ENDBRANCH  11  15
ENDBRANCH   3   8
BRANCH   1  20
ATOM     17  C   UNL     1      -4.555  12.859  21.697  0.00  0.00    +0.000 A 
ATOM     18  C   UNL     1      -3.734  12.728  20.575  0.00  0.00    +0.000 A 
ATOM     19  C   UNL     1      -2.400  12.335  20.718  0.00  0.00    +0.000 A 
ATOM     20  C   UNL     1      -1.860  12.080  21.987  0.00  0.00    +0.000 A 
ATOM     21  C   UNL     1      -2.679  12.271  23.110  0.00  0.00    +0.000 A 
ATOM     22  C   UNL     1      -4.017  12.648  22.962  0.00  0.00    +0.000 A 
BRANCH  17  24
ATOM     23  C   UNL     1      -6.591  12.309  20.647  0.00  0.00    +0.000 C 
ATOM     24  O   UNL     1      -5.848  13.226  21.445  0.00  0.00    +0.000 OA
ENDBRANCH  17  24
ENDBRANCH   1  20
BRANCH   6  25
ATOM     25  C   UNL     1       1.937  14.169  20.393  0.00  0.00    +0.000 A 
ATOM     26  C   UNL     1       3.218  14.302  20.927  0.00  0.00    +0.000 A 
ATOM     27  C   UNL     1       4.216  14.789  20.102  0.00  0.00    +0.000 A 
ATOM     28  N   UNL     1       4.023  15.143  18.812  0.00  0.00    +0.000 NA
ATOM     29  C   UNL     1       2.782  14.979  18.316  0.00  0.00    +0.000 A 
ATOM     30  C   UNL     1       1.726  14.476  19.047  0.00  0.00    +0.000 A 
ENDBRANCH   6  25
TORSDOF 5
ENDMDL
