MODEL 1
REMARK VINA RESULT:      -7.8      0.000      0.000
REMARK  Name = 
REMARK  3 active torsions:
REMARK  status: ('A' for Active; 'I' for Inactive)
REMARK    1  A    between atoms: C_6  and  C_8
REMARK    2  A    between atoms: C_11  and  S_12
REMARK    3  A    between atoms: S_12  and  N_15
REMARK                            x       y       z     vdW  Elec       q    Type
REMARK                         _______ _______ _______ _____ _____    ______ ____
ROOT
ATOM      1  C   UNL     1       2.541   6.466  18.618  0.00  0.00    +0.000 A 
ATOM      2  C   UNL     1       2.257   7.692  18.007  0.00  0.00    +0.000 A 
ATOM      3  C   UNL     1       1.727   8.745  18.751  0.00  0.00    +0.000 A 
ATOM      4  C   UNL     1       1.367   8.541  20.086  0.00  0.00    +0.000 A 
ATOM      5  C   UNL     1       1.597   7.308  20.701  0.00  0.00    +0.000 A 
ATOM      6  C   UNL     1       2.185   6.271  19.963  0.00  0.00    +0.000 A 
ENDROOT
BRANCH   1  12
ATOM      7  O   UNL     1       8.498   4.099  17.691  0.00  0.00    +0.000 OA
ATOM      8  C   UNL     1       7.352   4.544  17.631  0.00  0.00    +0.000 C 
ATOM      9  C   UNL     1       6.488   4.314  16.419  0.00  0.00    +0.000 C 
ATOM     10  C   UNL     1       5.039   4.157  16.846  0.00  0.00    +0.000 C 
ATOM     11  N   UNL     1       4.546   5.270  17.665  0.00  0.00    +0.000 N 
ATOM     12  C   UNL     1       3.159   5.332  17.870  0.00  0.00    +0.000 C 
ATOM     13  O   UNL     1       2.396   4.462  17.447  0.00  0.00    +0.000 OA
ATOM     14  C   UNL     1       5.551   6.125  18.298  0.00  0.00    +0.000 C 
ATOM     15  C   UNL     1       6.783   5.368  18.756  0.00  0.00    +0.000 C 
ENDBRANCH   1  12
BRANCH   4  16
ATOM     16  S   UNL     1       0.644   9.900  20.999  0.00  0.00    +0.000 S 
ATOM     17  O   UNL     1      -0.659   9.470  21.453  0.00  0.00    +0.000 OA
ATOM     18  O   UNL     1       1.649  10.370  21.924  0.00  0.00    +0.000 OA
BRANCH  16  19
ATOM     19  N   UNL     1       0.426  11.106  19.789  0.00  0.00    +0.000 NA
ATOM     20  C   UNL     1      -0.992  11.404  19.446  0.00  0.00    +0.000 C 
ATOM     21  C   UNL     1      -1.102  12.359  18.265  0.00  0.00    +0.000 C 
ATOM     22  C   UNL     1      -0.289  13.622  18.513  0.00  0.00    +0.000 C 
ATOM     23  C   UNL     1       1.165  13.242  18.747  0.00  0.00    +0.000 C 
ATOM     24  C   UNL     1       1.302  12.297  19.935  0.00  0.00    +0.000 C 
ENDBRANCH  16  19
ENDBRANCH   4  16
TORSDOF 3
ENDMDL
MODEL 2
REMARK VINA RESULT:      -7.8      1.327      1.864
REMARK  Name = 
REMARK  3 active torsions:
REMARK  status: ('A' for Active; 'I' for Inactive)
REMARK    1  A    between atoms: C_6  and  C_8
REMARK    2  A    between atoms: C_11  and  S_12
REMARK    3  A    between atoms: S_12  and  N_15
REMARK                            x       y       z     vdW  Elec       q    Type
REMARK                         _______ _______ _______ _____ _____    ______ ____
ROOT
ATOM      1  C   UNL     1       2.428   6.945  18.439  0.00  0.00    +0.000 A 
ATOM      2  C   UNL     1       2.308   8.033  17.568  0.00  0.00    +0.000 A 
ATOM      3  C   UNL     1       1.891   9.275  18.043  0.00  0.00    +0.000 A 
ATOM      4  C   UNL     1       1.478   9.408  19.372  0.00  0.00    +0.000 A 
ATOM      5  C   UNL     1       1.544   8.321  20.246  0.00  0.00    +0.000 A 
ATOM      6  C   UNL     1       2.020   7.089  19.775  0.00  0.00    +0.000 A 
ENDROOT
BRANCH   1  12
ATOM      7  O   UNL     1       8.153   4.235  17.085  0.00  0.00    +0.000 OA
ATOM      8  C   UNL     1       7.001   4.669  17.129  0.00  0.00    +0.000 C 
ATOM      9  C   UNL     1       5.914   4.086  16.266  0.00  0.00    +0.000 C 
ATOM     10  C   UNL     1       4.594   4.118  17.016  0.00  0.00    +0.000 C 
ATOM     11  N   UNL     1       4.237   5.448  17.520  0.00  0.00    +0.000 N 
ATOM     12  C   UNL     1       2.923   5.613  17.981  0.00  0.00    +0.000 C 
ATOM     13  O   UNL     1       2.125   4.676  18.031  0.00  0.00    +0.000 OA
ATOM     14  C   UNL     1       5.317   6.432  17.618  0.00  0.00    +0.000 C 
ATOM     15  C   UNL     1       6.647   5.827  18.024  0.00  0.00    +0.000 C 
ENDBRANCH   1  12
BRANCH   4  16
ATOM     16  S   UNL     1       0.904  11.005  19.937  0.00  0.00    +0.000 S 
ATOM     17  O   UNL     1       1.005  11.015  21.379  0.00  0.00    +0.000 OA
ATOM     18  O   UNL     1       1.563  12.004  19.127  0.00  0.00    +0.000 OA
BRANCH  16  19
ATOM     19  N   UNL     1      -0.765  10.990  19.511  0.00  0.00    +0.000 NA
ATOM     20  C   UNL     1      -1.488  12.268  19.756  0.00  0.00    +0.000 C 
ATOM     21  C   UNL     1      -2.984  12.130  19.506  0.00  0.00    +0.000 C 
ATOM     22  C   UNL     1      -3.251  11.571  18.116  0.00  0.00    +0.000 C 
ATOM     23  C   UNL     1      -2.571  10.217  17.983  0.00  0.00    +0.000 C 
ATOM     24  C   UNL     1      -1.069  10.332  18.214  0.00  0.00    +0.000 C 
ENDBRANCH  16  19
ENDBRANCH   4  16
TORSDOF 3
ENDMDL
MODEL 3
REMARK VINA RESULT:      -7.8      0.173      1.003
REMARK  Name = 
REMARK  3 active torsions:
REMARK  status: ('A' for Active; 'I' for Inactive)
REMARK    1  A    between atoms: C_6  and  C_8
REMARK    2  A    between atoms: C_11  and  S_12
REMARK    3  A    between atoms: S_12  and  N_15
REMARK                            x       y       z     vdW  Elec       q    Type
REMARK                         _______ _______ _______ _____ _____    ______ ____
ROOT
ATOM      1  C   UNL     1       2.460   6.469  18.633  0.00  0.00    +0.000 A 
ATOM      2  C   UNL     1       2.183   6.350  20.000  0.00  0.00    +0.000 A 
ATOM      3  C   UNL     1       1.586   7.402  20.693  0.00  0.00    +0.000 A 
ATOM      4  C   UNL     1       1.368   8.624  20.050  0.00  0.00    +0.000 A 
ATOM      5  C   UNL     1       1.683   8.778  18.698  0.00  0.00    +0.000 A 
ATOM      6  C   UNL     1       2.230   7.697  17.992  0.00  0.00    +0.000 A 
ENDROOT
BRANCH   1  12
ATOM      7  O   UNL     1       8.379   4.151  17.395  0.00  0.00    +0.000 OA
ATOM      8  C   UNL     1       7.228   4.588  17.395  0.00  0.00    +0.000 C 
ATOM      9  C   UNL     1       6.308   4.366  16.224  0.00  0.00    +0.000 C 
ATOM     10  C   UNL     1       4.883   4.195  16.719  0.00  0.00    +0.000 C 
ATOM     11  N   UNL     1       4.423   5.296  17.572  0.00  0.00    +0.000 N 
ATOM     12  C   UNL     1       3.048   5.348  17.844  0.00  0.00    +0.000 C 
ATOM     13  O   UNL     1       2.271   4.477  17.449  0.00  0.00    +0.000 OA
ATOM     14  C   UNL     1       5.453   6.151  18.165  0.00  0.00    +0.000 C 
ATOM     15  C   UNL     1       6.710   5.397  18.555  0.00  0.00    +0.000 C 
ENDBRANCH   1  12
BRANCH   4  16
ATOM     16  S   UNL     1       0.643   9.968  20.981  0.00  0.00    +0.000 S 
ATOM     17  O   UNL     1      -0.681   9.551  21.383  0.00  0.00    +0.000 OA
ATOM     18  O   UNL     1       1.628  10.392  21.950  0.00  0.00    +0.000 OA
BRANCH  16  19
ATOM     19  N   UNL     1       0.484  11.215  19.803  0.00  0.00    +0.000 NA
ATOM     20  C   UNL     1      -0.918  11.585  19.466  0.00  0.00    +0.000 C 
ATOM     21  C   UNL     1      -0.981  12.575  18.310  0.00  0.00    +0.000 C 
ATOM     22  C   UNL     1      -0.112  13.792  18.591  0.00  0.00    +0.000 C 
ATOM     23  C   UNL     1       1.322  13.340  18.817  0.00  0.00    +0.000 C 
ATOM     24  C   UNL     1       1.413  12.360  19.981  0.00  0.00    +0.000 C 
ENDBRANCH  16  19
ENDBRANCH   4  16
TORSDOF 3
ENDMDL
MODEL 4
REMARK VINA RESULT:      -7.5      1.275      1.320
REMARK  Name = 
REMARK  3 active torsions:
REMARK  status: ('A' for Active; 'I' for Inactive)
REMARK    1  A    between atoms: C_6  and  C_8
REMARK    2  A    between atoms: C_11  and  S_12
REMARK    3  A    between atoms: S_12  and  N_15
REMARK                            x       y       z     vdW  Elec       q    Type
REMARK                         _______ _______ _______ _____ _____    ______ ____
ROOT
ATOM      1  C   UNL     1       2.721   5.823  18.814  0.00  0.00    +0.000 A 
ATOM      2  C   UNL     1       2.583   7.130  18.333  0.00  0.00    +0.000 A 
ATOM      3  C   UNL     1       2.027   8.123  19.139  0.00  0.00    +0.000 A 
ATOM      4  C   UNL     1       1.498   7.789  20.389  0.00  0.00    +0.000 A 
ATOM      5  C   UNL     1       1.582   6.479  20.866  0.00  0.00    +0.000 A 
ATOM      6  C   UNL     1       2.195   5.497  20.075  0.00  0.00    +0.000 A 
ENDROOT
BRANCH   1  12
ATOM      7  O   UNL     1       7.810   5.270  14.847  0.00  0.00    +0.000 OA
ATOM      8  C   UNL     1       6.722   5.276  15.423  0.00  0.00    +0.000 C 
ATOM      9  C   UNL     1       5.614   4.345  15.008  0.00  0.00    +0.000 C 
ATOM     10  C   UNL     1       4.820   3.919  16.230  0.00  0.00    +0.000 C 
ATOM     11  N   UNL     1       4.317   5.045  17.024  0.00  0.00    +0.000 N 
ATOM     12  C   UNL     1       3.359   4.745  18.003  0.00  0.00    +0.000 C 
ATOM     13  O   UNL     1       3.005   3.588  18.239  0.00  0.00    +0.000 OA
ATOM     14  C   UNL     1       4.958   6.344  16.813  0.00  0.00    +0.000 C 
ATOM     15  C   UNL     1       6.447   6.244  16.543  0.00  0.00    +0.000 C 
ENDBRANCH   1  12
BRANCH   4  16
ATOM     16  S   UNL     1       0.750   9.079  21.378  0.00  0.00    +0.000 S 
ATOM     17  O   UNL     1      -0.545   8.599  21.804  0.00  0.00    +0.000 OA
ATOM     18  O   UNL     1       1.745   9.514  22.330  0.00  0.00    +0.000 OA
BRANCH  16  19
ATOM     19  N   UNL     1       0.509  10.349  20.240  0.00  0.00    +0.000 NA
ATOM     20  C   UNL     1      -0.863  10.429  19.668  0.00  0.00    +0.000 C 
ATOM     21  C   UNL     1      -0.956  11.469  18.559  0.00  0.00    +0.000 C 
ATOM     22  C   UNL     1      -0.451  12.821  19.041  0.00  0.00    +0.000 C 
ATOM     23  C   UNL     1       0.990  12.678  19.507  0.00  0.00    +0.000 C 
ATOM     24  C   UNL     1       1.107  11.652  20.628  0.00  0.00    +0.000 C 
ENDBRANCH  16  19
ENDBRANCH   4  16
TORSDOF 3
ENDMDL
MODEL 5
REMARK VINA RESULT:      -7.5      2.286      8.054
REMARK  Name = 
REMARK  3 active torsions:
REMARK  status: ('A' for Active; 'I' for Inactive)
REMARK    1  A    between atoms: C_6  and  C_8
REMARK    2  A    between atoms: C_11  and  S_12
REMARK    3  A    between atoms: S_12  and  N_15
REMARK                            x       y       z     vdW  Elec       q    Type
REMARK                         _______ _______ _______ _____ _____    ______ ____
ROOT
ATOM      1  C   UNL     1       1.875   7.298  20.020  0.00  0.00    +0.000 A 
ATOM      2  C   UNL     1       2.476   7.302  18.757  0.00  0.00    +0.000 A 
ATOM      3  C   UNL     1       2.836   6.104  18.142  0.00  0.00    +0.000 A 
ATOM      4  C   UNL     1       2.702   4.899  18.837  0.00  0.00    +0.000 A 
ATOM      5  C   UNL     1       2.149   4.879  20.119  0.00  0.00    +0.000 A 
ATOM      6  C   UNL     1       1.736   6.082  20.708  0.00  0.00    +0.000 A 
ENDROOT
BRANCH   1  12
ATOM      7  O   UNL     1      -1.462  12.599  18.375  0.00  0.00    +0.000 OA
ATOM      8  C   UNL     1      -0.667  11.746  18.767  0.00  0.00    +0.000 C 
ATOM      9  C   UNL     1       0.373  12.067  19.809  0.00  0.00    +0.000 C 
ATOM     10  C   UNL     1       0.603  10.854  20.691  0.00  0.00    +0.000 C 
ATOM     11  N   UNL     1       0.939   9.638  19.943  0.00  0.00    +0.000 N 
ATOM     12  C   UNL     1       1.426   8.555  20.688  0.00  0.00    +0.000 C 
ATOM     13  O   UNL     1       1.504   8.589  21.918  0.00  0.00    +0.000 OA
ATOM     14  C   UNL     1       0.609   9.625  18.516  0.00  0.00    +0.000 C 
ATOM     15  C   UNL     1      -0.680  10.355  18.191  0.00  0.00    +0.000 C 
ENDBRANCH   1  12
BRANCH   4  16
ATOM     16  S   UNL     1       3.217   3.384  18.037  0.00  0.00    +0.000 S 
ATOM     17  O   UNL     1       3.306   2.364  19.058  0.00  0.00    +0.000 OA
ATOM     18  O   UNL     1       2.379   3.214  16.872  0.00  0.00    +0.000 OA
BRANCH  16  19
ATOM     19  N   UNL     1       4.811   3.752  17.499  0.00  0.00    +0.000 NA
ATOM     20  C   UNL     1       4.911   4.185  16.079  0.00  0.00    +0.000 C 
ATOM     21  C   UNL     1       6.359   4.339  15.632  0.00  0.00    +0.000 C 
ATOM     22  C   UNL     1       7.120   5.262  16.573  0.00  0.00    +0.000 C 
ATOM     23  C   UNL     1       7.063   4.694  17.983  0.00  0.00    +0.000 C 
ATOM     24  C   UNL     1       5.623   4.545  18.458  0.00  0.00    +0.000 C 
ENDBRANCH  16  19
ENDBRANCH   4  16
TORSDOF 3
ENDMDL
MODEL 6
REMARK VINA RESULT:      -7.5      2.191      8.282
REMARK  Name = 
REMARK  3 active torsions:
REMARK  status: ('A' for Active; 'I' for Inactive)
REMARK    1  A    between atoms: C_6  and  C_8
REMARK    2  A    between atoms: C_11  and  S_12
REMARK    3  A    between atoms: S_12  and  N_15
REMARK                            x       y       z     vdW  Elec       q    Type
REMARK                         _______ _______ _______ _____ _____    ______ ____
ROOT
ATOM      1  C   UNL     1       1.521   8.631  19.459  0.00  0.00    +0.000 A 
ATOM      2  C   UNL     1       2.207   8.451  18.253  0.00  0.00    +0.000 A 
ATOM      3  C   UNL     1       2.800   7.225  17.954  0.00  0.00    +0.000 A 
ATOM      4  C   UNL     1       2.812   6.207  18.913  0.00  0.00    +0.000 A 
ATOM      5  C   UNL     1       2.175   6.386  20.143  0.00  0.00    +0.000 A 
ATOM      6  C   UNL     1       1.530   7.600  20.413  0.00  0.00    +0.000 A 
ENDROOT
BRANCH   1  12
ATOM      7  O   UNL     1      -3.736  11.826  17.432  0.00  0.00    +0.000 OA
ATOM      8  C   UNL     1      -2.626  11.424  17.781  0.00  0.00    +0.000 C 
ATOM      9  C   UNL     1      -1.556  12.383  18.235  0.00  0.00    +0.000 C 
ATOM     10  C   UNL     1      -0.723  11.739  19.328  0.00  0.00    +0.000 C 
ATOM     11  N   UNL     1      -0.164  10.437  18.950  0.00  0.00    +0.000 N 
ATOM     12  C   UNL     1       0.826   9.909  19.792  0.00  0.00    +0.000 C 
ATOM     13  O   UNL     1       1.163  10.470  20.836  0.00  0.00    +0.000 OA
ATOM     14  C   UNL     1      -0.783   9.754  17.812  0.00  0.00    +0.000 C 
ATOM     15  C   UNL     1      -2.284   9.959  17.732  0.00  0.00    +0.000 C 
ENDBRANCH   1  12
BRANCH   4  16
ATOM     16  S   UNL     1       3.623   4.663  18.516  0.00  0.00    +0.000 S 
ATOM     17  O   UNL     1       4.326   4.227  19.701  0.00  0.00    +0.000 OA
ATOM     18  O   UNL     1       2.642   3.823  17.868  0.00  0.00    +0.000 OA
BRANCH  16  19
ATOM     19  N   UNL     1       4.789   5.129  17.336  0.00  0.00    +0.000 NA
ATOM     20  C   UNL     1       6.125   5.492  17.882  0.00  0.00    +0.000 C 
ATOM     21  C   UNL     1       7.048   6.043  16.803  0.00  0.00    +0.000 C 
ATOM     22  C   UNL     1       7.145   5.078  15.630  0.00  0.00    +0.000 C 
ATOM     23  C   UNL     1       5.754   4.844  15.060  0.00  0.00    +0.000 C 
ATOM     24  C   UNL     1       4.815   4.278  16.119  0.00  0.00    +0.000 C 
ENDBRANCH  16  19
ENDBRANCH   4  16
TORSDOF 3
ENDMDL
MODEL 7
REMARK VINA RESULT:      -7.4      2.680      8.488
REMARK  Name = 
REMARK  3 active torsions:
REMARK  status: ('A' for Active; 'I' for Inactive)
REMARK    1  A    between atoms: C_6  and  C_8
REMARK    2  A    between atoms: C_11  and  S_12
REMARK    3  A    between atoms: S_12  and  N_15
REMARK                            x       y       z     vdW  Elec       q    Type
REMARK                         _______ _______ _______ _____ _____    ______ ____
ROOT
ATOM      1  C   UNL     1       1.442   8.891  19.312  0.00  0.00    +0.000 A 
ATOM      2  C   UNL     1       2.125   9.111  18.110  0.00  0.00    +0.000 A 
ATOM      3  C   UNL     1       3.014   8.156  17.618  0.00  0.00    +0.000 A 
ATOM      4  C   UNL     1       3.313   7.025  18.384  0.00  0.00    +0.000 A 
ATOM      5  C   UNL     1       2.678   6.812  19.609  0.00  0.00    +0.000 A 
ATOM      6  C   UNL     1       1.742   7.748  20.071  0.00  0.00    +0.000 A 
ENDROOT
BRANCH   1  12
ATOM      7  O   UNL     1      -4.237  11.358  17.412  0.00  0.00    +0.000 OA
ATOM      8  C   UNL     1      -3.095  11.115  17.803  0.00  0.00    +0.000 C 
ATOM      9  C   UNL     1      -2.320  12.117  18.618  0.00  0.00    +0.000 C 
ATOM     10  C   UNL     1      -1.450  11.390  19.628  0.00  0.00    +0.000 C 
ATOM     11  N   UNL     1      -0.572  10.380  19.027  0.00  0.00    +0.000 N 
ATOM     12  C   UNL     1       0.443   9.863  19.844  0.00  0.00    +0.000 C 
ATOM     13  O   UNL     1       0.555  10.182  21.029  0.00  0.00    +0.000 OA
ATOM     14  C   UNL     1      -0.921   9.913  17.684  0.00  0.00    +0.000 C 
ATOM     15  C   UNL     1      -2.416   9.819  17.449  0.00  0.00    +0.000 C 
ENDBRANCH   1  12
BRANCH   4  16
ATOM     16  S   UNL     1       4.494   5.843  17.745  0.00  0.00    +0.000 S 
ATOM     17  O   UNL     1       4.425   5.901  16.302  0.00  0.00    +0.000 OA
ATOM     18  O   UNL     1       5.735   6.059  18.451  0.00  0.00    +0.000 OA
BRANCH  16  19
ATOM     19  N   UNL     1       3.845   4.332  18.257  0.00  0.00    +0.000 NA
ATOM     20  C   UNL     1       3.140   3.559  17.199  0.00  0.00    +0.000 C 
ATOM     21  C   UNL     1       2.460   2.317  17.760  0.00  0.00    +0.000 C 
ATOM     22  C   UNL     1       3.451   1.462  18.537  0.00  0.00    +0.000 C 
ATOM     23  C   UNL     1       4.046   2.290  19.666  0.00  0.00    +0.000 C 
ATOM     24  C   UNL     1       4.746   3.532  19.127  0.00  0.00    +0.000 C 
ENDBRANCH  16  19
ENDBRANCH   4  16
TORSDOF 3
ENDMDL
MODEL 8
REMARK VINA RESULT:      -7.4      1.740      2.238
REMARK  Name = 
REMARK  3 active torsions:
REMARK  status: ('A' for Active; 'I' for Inactive)
REMARK    1  A    between atoms: C_6  and  C_8
REMARK    2  A    between atoms: C_11  and  S_12
REMARK    3  A    between atoms: S_12  and  N_15
REMARK                            x       y       z     vdW  Elec       q    Type
REMARK                         _______ _______ _______ _____ _____    ______ ____
ROOT
ATOM      1  C   UNL     1       2.426   7.168  18.697  0.00  0.00    +0.000 A 
ATOM      2  C   UNL     1       2.355   8.084  17.641  0.00  0.00    +0.000 A 
ATOM      3  C   UNL     1       1.859   9.369  17.854  0.00  0.00    +0.000 A 
ATOM      4  C   UNL     1       1.322   9.709  19.099  0.00  0.00    +0.000 A 
ATOM      5  C   UNL     1       1.340   8.792  20.152  0.00  0.00    +0.000 A 
ATOM      6  C   UNL     1       1.893   7.521  19.947  0.00  0.00    +0.000 A 
ENDROOT
BRANCH   1  12
ATOM      7  O   UNL     1       7.924   4.598  16.436  0.00  0.00    +0.000 OA
ATOM      8  C   UNL     1       6.774   4.934  16.718  0.00  0.00    +0.000 C 
ATOM      9  C   UNL     1       5.609   4.013  16.470  0.00  0.00    +0.000 C 
ATOM     10  C   UNL     1       4.570   4.197  17.561  0.00  0.00    +0.000 C 
ATOM     11  N   UNL     1       4.139   5.588  17.732  0.00  0.00    +0.000 N 
ATOM     12  C   UNL     1       3.000   5.801  18.523  0.00  0.00    +0.000 C 
ATOM     13  O   UNL     1       2.427   4.879  19.105  0.00  0.00    +0.000 OA
ATOM     14  C   UNL     1       5.010   6.626  17.177  0.00  0.00    +0.000 C 
ATOM     15  C   UNL     1       6.486   6.296  17.291  0.00  0.00    +0.000 C 
ENDBRANCH   1  12
BRANCH   4  16
ATOM     16  S   UNL     1       0.651  11.353  19.325  0.00  0.00    +0.000 S 
ATOM     17  O   UNL     1       0.407  11.529  20.739  0.00  0.00    +0.000 OA
ATOM     18  O   UNL     1       1.498  12.261  18.586  0.00  0.00    +0.000 OA
BRANCH  16  19
ATOM     19  N   UNL     1      -0.869  11.265  18.520  0.00  0.00    +0.000 NA
ATOM     20  C   UNL     1      -1.095  10.018  17.739  0.00  0.00    +0.000 C 
ATOM     21  C   UNL     1      -2.384  10.080  16.931  0.00  0.00    +0.000 C 
ATOM     22  C   UNL     1      -3.567  10.426  17.825  0.00  0.00    +0.000 C 
ATOM     23  C   UNL     1      -3.307  11.763  18.501  0.00  0.00    +0.000 C 
ATOM     24  C   UNL     1      -2.028  11.721  19.329  0.00  0.00    +0.000 C 
ENDBRANCH  16  19
ENDBRANCH   4  16
TORSDOF 3
ENDMDL
MODEL 9
REMARK VINA RESULT:      -7.4      2.297      8.153
REMARK  Name = 
REMARK  3 active torsions:
REMARK  status: ('A' for Active; 'I' for Inactive)
REMARK    1  A    between atoms: C_6  and  C_8
REMARK    2  A    between atoms: C_11  and  S_12
REMARK    3  A    between atoms: S_12  and  N_15
REMARK                            x       y       z     vdW  Elec       q    Type
REMARK                         _______ _______ _______ _____ _____    ______ ____
ROOT
ATOM      1  C   UNL     1       1.877   7.424  20.159  0.00  0.00    +0.000 A 
ATOM      2  C   UNL     1       2.710   7.540  19.040  0.00  0.00    +0.000 A 
ATOM      3  C   UNL     1       3.346   6.417  18.514  0.00  0.00    +0.000 A 
ATOM      4  C   UNL     1       3.245   5.189  19.174  0.00  0.00    +0.000 A 
ATOM      5  C   UNL     1       2.458   5.063  20.320  0.00  0.00    +0.000 A 
ATOM      6  C   UNL     1       1.775   6.184  20.811  0.00  0.00    +0.000 A 
ENDROOT
BRANCH   1  12
ATOM      7  O   UNL     1      -1.925  12.149  17.887  0.00  0.00    +0.000 OA
ATOM      8  C   UNL     1      -1.082  11.428  18.420  0.00  0.00    +0.000 C 
ATOM      9  C   UNL     1      -0.289  11.902  19.610  0.00  0.00    +0.000 C 
ATOM     10  C   UNL     1      -0.022  10.734  20.543  0.00  0.00    +0.000 C 
ATOM     11  N   UNL     1       0.616   9.590  19.883  0.00  0.00    +0.000 N 
ATOM     12  C   UNL     1       1.136   8.592  20.720  0.00  0.00    +0.000 C 
ATOM     13  O   UNL     1       1.005   8.632  21.944  0.00  0.00    +0.000 OA
ATOM     14  C   UNL     1       0.530   9.534  18.423  0.00  0.00    +0.000 C 
ATOM     15  C   UNL     1      -0.786  10.055  17.877  0.00  0.00    +0.000 C 
ENDBRANCH   1  12
BRANCH   4  16
ATOM     16  S   UNL     1       4.112   3.777  18.497  0.00  0.00    +0.000 S 
ATOM     17  O   UNL     1       4.993   3.276  19.529  0.00  0.00    +0.000 OA
ATOM     18  O   UNL     1       3.121   2.931  17.874  0.00  0.00    +0.000 OA
BRANCH  16  19
ATOM     19  N   UNL     1       5.077   4.475  17.253  0.00  0.00    +0.000 NA
ATOM     20  C   UNL     1       6.510   4.670  17.604  0.00  0.00    +0.000 C 
ATOM     21  C   UNL     1       7.262   5.432  16.520  0.00  0.00    +0.000 C 
ATOM     22  C   UNL     1       7.084   4.762  15.165  0.00  0.00    +0.000 C 
ATOM     23  C   UNL     1       5.601   4.699  14.830  0.00  0.00    +0.000 C 
ATOM     24  C   UNL     1       4.830   3.927  15.894  0.00  0.00    +0.000 C 
ENDBRANCH  16  19
ENDBRANCH   4  16
TORSDOF 3
ENDMDL
