MODEL 1
REMARK VINA RESULT:      -7.5      0.000      0.000
REMARK  Name = 
REMARK  10 active torsions:
REMARK  status: ('A' for Active; 'I' for Inactive)
REMARK    1  A    between atoms: C_1  and  C_2
REMARK    2  A    between atoms: N_4  and  C_5
REMARK    3  A    between atoms: C_5  and  C_6
REMARK    4  A    between atoms: N_8  and  C_9
REMARK    5  A    between atoms: C_11  and  S_12
REMARK    6  A    between atoms: S_12  and  N_15
REMARK    7  A    between atoms: N_15  and  C_16
REMARK    8  A    between atoms: N_15  and  C_17
REMARK    9  A    between atoms: C_22  and  C_23
REMARK   10  A    between atoms: C_24  and  N_25
REMARK                            x       y       z     vdW  Elec       q    Type
REMARK                         _______ _______ _______ _____ _____    ______ ____
ROOT
ATOM      1  C   UNL     1       2.083   5.951  20.380  0.00  0.00    +0.000 C 
ATOM      2  O   UNL     1       2.530   4.998  21.020  0.00  0.00    +0.000 OA
ATOM      3  N   UNL     1       2.399   6.204  19.060  0.00  0.00    +0.000 N 
ATOM      4  H   UNL     1       2.321   7.191  18.789  0.00  0.00    +0.000 HD
ENDROOT
BRANCH   3   5
ATOM      5  C   UNL     1       3.269   5.405  18.274  0.00  0.00    +0.000 A 
ATOM      6  C   UNL     1       4.600   5.773  18.034  0.00  0.00    +0.000 A 
ATOM      7  C   UNL     1       5.425   4.941  17.253  0.00  0.00    +0.000 A 
ATOM      8  C   UNL     1       4.945   3.733  16.744  0.00  0.00    +0.000 A 
ATOM      9  C   UNL     1       3.627   3.368  16.979  0.00  0.00    +0.000 A 
ATOM     10  C   UNL     1       2.794   4.193  17.745  0.00  0.00    +0.000 A 
ATOM     11 CL   UNL     1       1.144   3.715  17.943  0.00  0.00    +0.000 Cl
BRANCH   7  12
ATOM     12  S   UNL     1       7.124   5.402  16.948  0.00  0.00    +0.000 S 
ATOM     13  O   UNL     1       7.936   4.232  17.203  0.00  0.00    +0.000 OA
ATOM     14  O   UNL     1       7.162   6.070  15.664  0.00  0.00    +0.000 OA
BRANCH  12  15
ATOM     15  N   UNL     1       7.436   6.551  18.159  0.00  0.00    +0.000 NA
ATOM     16  C   UNL     1       8.092   6.077  19.391  0.00  0.00    +0.000 C 
ATOM     17  C   UNL     1       7.930   7.866  17.704  0.00  0.00    +0.000 C 
ENDBRANCH  12  15
ENDBRANCH   7  12
ENDBRANCH   3   5
BRANCH   1  18
ATOM     18  C   UNL     1       1.060   6.884  21.015  0.00  0.00    +0.000 C 
BRANCH  18  22
ATOM     19  C   UNL     1       1.875  10.696  18.114  0.00  0.00    +0.000 C 
ATOM     20  C   UNL     1       1.438   9.963  19.336  0.00  0.00    +0.000 A 
ATOM     21  N   UNL     1       1.570   8.630  19.396  0.00  0.00    +0.000 NA
ATOM     22  N   UNL     1       1.102   8.294  20.618  0.00  0.00    +0.000 N 
ATOM     23  C   UNL     1       0.562   9.369  21.296  0.00  0.00    +0.000 A 
ATOM     24  C   UNL     1      -0.163   9.274  22.595  0.00  0.00    +0.000 C 
ATOM     25  C   UNL     1       0.844  10.482  20.511  0.00  0.00    +0.000 A 
BRANCH  25  26
ATOM     26  N   UNL     1       0.551  11.864  20.814  0.00  0.00    +0.000 N 
ATOM     27  O   UNL     1      -0.504  12.329  20.364  0.00  0.00    +0.000 OA
ATOM     28  O   UNL     1       1.376  12.489  21.489  0.00  0.00    +0.000 OA
ENDBRANCH  25  26
ENDBRANCH  18  22
ENDBRANCH   1  18
TORSDOF 6
ENDMDL
MODEL 2
REMARK VINA RESULT:      -7.4      2.902      8.070
REMARK  Name = 
REMARK  10 active torsions:
REMARK  status: ('A' for Active; 'I' for Inactive)
REMARK    1  A    between atoms: C_1  and  C_2
REMARK    2  A    between atoms: N_4  and  C_5
REMARK    3  A    between atoms: C_5  and  C_6
REMARK    4  A    between atoms: N_8  and  C_9
REMARK    5  A    between atoms: C_11  and  S_12
REMARK    6  A    between atoms: S_12  and  N_15
REMARK    7  A    between atoms: N_15  and  C_16
REMARK    8  A    between atoms: N_15  and  C_17
REMARK    9  A    between atoms: C_22  and  C_23
REMARK   10  A    between atoms: C_24  and  N_25
REMARK                            x       y       z     vdW  Elec       q    Type
REMARK                         _______ _______ _______ _____ _____    ______ ____
ROOT
ATOM      1  C   UNL     1       2.445   5.375  19.964  0.00  0.00    +0.000 C 
ATOM      2  O   UNL     1       1.291   5.023  20.217  0.00  0.00    +0.000 OA
ATOM      3  N   UNL     1       2.828   6.693  19.814  0.00  0.00    +0.000 N 
ATOM      4  H   UNL     1       3.652   6.827  19.218  0.00  0.00    +0.000 HD
ENDROOT
BRANCH   3   5
ATOM      5  C   UNL     1       1.952   7.803  19.933  0.00  0.00    +0.000 A 
ATOM      6  C   UNL     1       1.335   8.134  21.148  0.00  0.00    +0.000 A 
ATOM      7  C   UNL     1       0.479   9.250  21.215  0.00  0.00    +0.000 A 
ATOM      8  C   UNL     1       0.265  10.056  20.095  0.00  0.00    +0.000 A 
ATOM      9  C   UNL     1       0.873   9.728  18.891  0.00  0.00    +0.000 A 
ATOM     10  C   UNL     1       1.717   8.614  18.810  0.00  0.00    +0.000 A 
ATOM     11 CL   UNL     1       2.389   8.221  17.266  0.00  0.00    +0.000 Cl
BRANCH   7  12
ATOM     12  S   UNL     1      -0.305   9.681  22.761  0.00  0.00    +0.000 S 
ATOM     13  O   UNL     1      -1.340   8.698  23.004  0.00  0.00    +0.000 OA
ATOM     14  O   UNL     1       0.748   9.908  23.728  0.00  0.00    +0.000 OA
BRANCH  12  15
ATOM     15  N   UNL     1      -1.045  11.170  22.417  0.00  0.00    +0.000 NA
ATOM     16  C   UNL     1      -2.193  11.566  23.252  0.00  0.00    +0.000 C 
ATOM     17  C   UNL     1      -0.142  12.293  22.097  0.00  0.00    +0.000 C 
ENDBRANCH  12  15
ENDBRANCH   7  12
ENDBRANCH   3   5
BRANCH   1  18
ATOM     18  C   UNL     1       3.558   4.339  19.883  0.00  0.00    +0.000 C 
BRANCH  18  22
ATOM     19  C   UNL     1       8.123   5.854  19.185  0.00  0.00    +0.000 C 
ATOM     20  C   UNL     1       6.768   5.347  18.824  0.00  0.00    +0.000 A 
ATOM     21  N   UNL     1       5.856   5.142  19.784  0.00  0.00    +0.000 NA
ATOM     22  N   UNL     1       4.758   4.705  19.126  0.00  0.00    +0.000 N 
ATOM     23  C   UNL     1       4.988   4.512  17.778  0.00  0.00    +0.000 A 
ATOM     24  C   UNL     1       4.013   3.896  16.834  0.00  0.00    +0.000 C 
ATOM     25  C   UNL     1       6.268   5.003  17.546  0.00  0.00    +0.000 A 
BRANCH  25  26
ATOM     26  N   UNL     1       6.953   5.095  16.277  0.00  0.00    +0.000 N 
ATOM     27  O   UNL     1       7.924   4.348  16.103  0.00  0.00    +0.000 OA
ATOM     28  O   UNL     1       6.532   5.919  15.458  0.00  0.00    +0.000 OA
ENDBRANCH  25  26
ENDBRANCH  18  22
ENDBRANCH   1  18
TORSDOF 6
ENDMDL
MODEL 3
REMARK VINA RESULT:      -7.3      2.230      3.200
REMARK  Name = 
REMARK  10 active torsions:
REMARK  status: ('A' for Active; 'I' for Inactive)
REMARK    1  A    between atoms: C_1  and  C_2
REMARK    2  A    between atoms: N_4  and  C_5
REMARK    3  A    between atoms: C_5  and  C_6
REMARK    4  A    between atoms: N_8  and  C_9
REMARK    5  A    between atoms: C_11  and  S_12
REMARK    6  A    between atoms: S_12  and  N_15
REMARK    7  A    between atoms: N_15  and  C_16
REMARK    8  A    between atoms: N_15  and  C_17
REMARK    9  A    between atoms: C_22  and  C_23
REMARK   10  A    between atoms: C_24  and  N_25
REMARK                            x       y       z     vdW  Elec       q    Type
REMARK                         _______ _______ _______ _____ _____    ______ ____
ROOT
ATOM      1  C   UNL     1       1.238   9.263  18.314  0.00  0.00    +0.000 C 
ATOM      2  O   UNL     1       0.683   8.754  17.339  0.00  0.00    +0.000 OA
ATOM      3  N   UNL     1       2.275   8.666  19.004  0.00  0.00    +0.000 N 
ATOM      4  H   UNL     1       2.353   8.959  19.984  0.00  0.00    +0.000 HD
ENDROOT
BRANCH   3   5
ATOM      5  C   UNL     1       2.834   7.403  18.680  0.00  0.00    +0.000 A 
ATOM      6  C   UNL     1       3.720   7.237  17.607  0.00  0.00    +0.000 A 
ATOM      7  C   UNL     1       4.252   5.963  17.331  0.00  0.00    +0.000 A 
ATOM      8  C   UNL     1       3.937   4.867  18.136  0.00  0.00    +0.000 A 
ATOM      9  C   UNL     1       3.058   5.028  19.197  0.00  0.00    +0.000 A 
ATOM     10  C   UNL     1       2.513   6.288  19.474  0.00  0.00    +0.000 A 
ATOM     11 CL   UNL     1       1.371   6.409  20.767  0.00  0.00    +0.000 Cl
BRANCH   7  12
ATOM     12  S   UNL     1       5.387   5.746  15.969  0.00  0.00    +0.000 S 
ATOM     13  O   UNL     1       5.201   4.402  15.467  0.00  0.00    +0.000 OA
ATOM     14  O   UNL     1       5.237   6.894  15.099  0.00  0.00    +0.000 OA
BRANCH  12  15
ATOM     15  N   UNL     1       6.910   5.837  16.716  0.00  0.00    +0.000 NA
ATOM     16  C   UNL     1       7.243   7.086  17.424  0.00  0.00    +0.000 C 
ATOM     17  C   UNL     1       7.367   4.625  17.423  0.00  0.00    +0.000 C 
ENDBRANCH  12  15
ENDBRANCH   7  12
ENDBRANCH   3   5
BRANCH   1  18
ATOM     18  C   UNL     1       0.845  10.661  18.772  0.00  0.00    +0.000 C 
BRANCH  18  22
ATOM     19  C   UNL     1       0.034   9.442  23.406  0.00  0.00    +0.000 C 
ATOM     20  C   UNL     1      -0.024  10.271  22.168  0.00  0.00    +0.000 A 
ATOM     21  N   UNL     1       0.559   9.831  21.044  0.00  0.00    +0.000 NA
ATOM     22  N   UNL     1       0.311  10.796  20.130  0.00  0.00    +0.000 N 
ATOM     23  C   UNL     1      -0.316  11.899  20.676  0.00  0.00    +0.000 A 
ATOM     24  C   UNL     1      -0.575  13.172  19.946  0.00  0.00    +0.000 C 
ATOM     25  C   UNL     1      -0.616  11.543  21.987  0.00  0.00    +0.000 A 
BRANCH  25  26
ATOM     26  N   UNL     1      -1.336  12.328  22.963  0.00  0.00    +0.000 N 
ATOM     27  O   UNL     1      -2.507  12.003  23.196  0.00  0.00    +0.000 OA
ATOM     28  O   UNL     1      -0.742  13.276  23.487  0.00  0.00    +0.000 OA
ENDBRANCH  25  26
ENDBRANCH  18  22
ENDBRANCH   1  18
TORSDOF 6
ENDMDL
MODEL 4
REMARK VINA RESULT:      -7.3      1.439      1.624
REMARK  Name = 
REMARK  10 active torsions:
REMARK  status: ('A' for Active; 'I' for Inactive)
REMARK    1  A    between atoms: C_1  and  C_2
REMARK    2  A    between atoms: N_4  and  C_5
REMARK    3  A    between atoms: C_5  and  C_6
REMARK    4  A    between atoms: N_8  and  C_9
REMARK    5  A    between atoms: C_11  and  S_12
REMARK    6  A    between atoms: S_12  and  N_15
REMARK    7  A    between atoms: N_15  and  C_16
REMARK    8  A    between atoms: N_15  and  C_17
REMARK    9  A    between atoms: C_22  and  C_23
REMARK   10  A    between atoms: C_24  and  N_25
REMARK                            x       y       z     vdW  Elec       q    Type
REMARK                         _______ _______ _______ _____ _____    ______ ____
ROOT
ATOM      1  C   UNL     1       2.078   7.132  19.918  0.00  0.00    +0.000 C 
ATOM      2  O   UNL     1       2.108   7.699  18.824  0.00  0.00    +0.000 OA
ATOM      3  N   UNL     1       2.757   5.961  20.193  0.00  0.00    +0.000 N 
ATOM      4  H   UNL     1       2.336   5.396  20.939  0.00  0.00    +0.000 HD
ENDROOT
BRANCH   3   5
ATOM      5  C   UNL     1       3.572   5.267  19.262  0.00  0.00    +0.000 A 
ATOM      6  C   UNL     1       4.936   5.553  19.114  0.00  0.00    +0.000 A 
ATOM      7  C   UNL     1       5.704   4.831  18.180  0.00  0.00    +0.000 A 
ATOM      8  C   UNL     1       5.131   3.805  17.425  0.00  0.00    +0.000 A 
ATOM      9  C   UNL     1       3.780   3.522  17.569  0.00  0.00    +0.000 A 
ATOM     10  C   UNL     1       3.005   4.242  18.486  0.00  0.00    +0.000 A 
ATOM     11 CL   UNL     1       1.314   3.887  18.569  0.00  0.00    +0.000 Cl
BRANCH   7  12
ATOM     12  S   UNL     1       7.443   5.186  17.989  0.00  0.00    +0.000 S 
ATOM     13  O   UNL     1       7.969   5.467  19.307  0.00  0.00    +0.000 OA
ATOM     14  O   UNL     1       8.009   4.133  17.171  0.00  0.00    +0.000 OA
BRANCH  12  15
ATOM     15  N   UNL     1       7.448   6.624  17.087  0.00  0.00    +0.000 NA
ATOM     16  C   UNL     1       6.321   6.849  16.163  0.00  0.00    +0.000 C 
ATOM     17  C   UNL     1       7.870   7.845  17.800  0.00  0.00    +0.000 C 
ENDBRANCH  12  15
ENDBRANCH   7  12
ENDBRANCH   3   5
BRANCH   1  18
ATOM     18  C   UNL     1       1.328   7.763  21.084  0.00  0.00    +0.000 C 
BRANCH  18  22
ATOM     19  C   UNL     1       0.499  11.977  18.810  0.00  0.00    +0.000 C 
ATOM     20  C   UNL     1       0.549  11.008  19.941  0.00  0.00    +0.000 A 
ATOM     21  N   UNL     1       1.010   9.766  19.736  0.00  0.00    +0.000 NA
ATOM     22  N   UNL     1       0.935   9.167  20.945  0.00  0.00    +0.000 N 
ATOM     23  C   UNL     1       0.322   9.961  21.895  0.00  0.00    +0.000 A 
ATOM     24  C   UNL     1      -0.036   9.512  23.270  0.00  0.00    +0.000 C 
ATOM     25  C   UNL     1       0.137  11.196  21.282  0.00  0.00    +0.000 A 
BRANCH  25  26
ATOM     26  N   UNL     1      -0.404  12.396  21.878  0.00  0.00    +0.000 N 
ATOM     27  O   UNL     1      -1.621  12.416  22.102  0.00  0.00    +0.000 OA
ATOM     28  O   UNL     1       0.380  13.323  22.110  0.00  0.00    +0.000 OA
ENDBRANCH  25  26
ENDBRANCH  18  22
ENDBRANCH   1  18
TORSDOF 6
ENDMDL
MODEL 5
REMARK VINA RESULT:      -7.2      3.075      4.184
REMARK  Name = 
REMARK  10 active torsions:
REMARK  status: ('A' for Active; 'I' for Inactive)
REMARK    1  A    between atoms: C_1  and  C_2
REMARK    2  A    between atoms: N_4  and  C_5
REMARK    3  A    between atoms: C_5  and  C_6
REMARK    4  A    between atoms: N_8  and  C_9
REMARK    5  A    between atoms: C_11  and  S_12
REMARK    6  A    between atoms: S_12  and  N_15
REMARK    7  A    between atoms: N_15  and  C_16
REMARK    8  A    between atoms: N_15  and  C_17
REMARK    9  A    between atoms: C_22  and  C_23
REMARK   10  A    between atoms: C_24  and  N_25
REMARK                            x       y       z     vdW  Elec       q    Type
REMARK                         _______ _______ _______ _____ _____    ______ ____
ROOT
ATOM      1  C   UNL     1       2.420   8.023  18.342  0.00  0.00    +0.000 C 
ATOM      2  O   UNL     1       2.227   7.750  19.528  0.00  0.00    +0.000 OA
ATOM      3  N   UNL     1       3.292   7.329  17.527  0.00  0.00    +0.000 N 
ATOM      4  H   UNL     1       3.667   7.879  16.746  0.00  0.00    +0.000 HD
ENDROOT
BRANCH   3   5
ATOM      5  C   UNL     1       4.070   6.218  17.944  0.00  0.00    +0.000 A 
ATOM      6  C   UNL     1       3.484   5.048  18.445  0.00  0.00    +0.000 A 
ATOM      7  C   UNL     1       4.300   3.971  18.840  0.00  0.00    +0.000 A 
ATOM      8  C   UNL     1       5.688   4.039  18.704  0.00  0.00    +0.000 A 
ATOM      9  C   UNL     1       6.271   5.198  18.211  0.00  0.00    +0.000 A 
ATOM     10  C   UNL     1       5.470   6.280  17.826  0.00  0.00    +0.000 A 
ATOM     11 CL   UNL     1       6.260   7.719  17.284  0.00  0.00    +0.000 Cl
BRANCH   7  12
ATOM     12  S   UNL     1       3.559   2.475  19.473  0.00  0.00    +0.000 S 
ATOM     13  O   UNL     1       3.403   1.569  18.356  0.00  0.00    +0.000 OA
ATOM     14  O   UNL     1       4.314   2.087  20.647  0.00  0.00    +0.000 OA
BRANCH  12  15
ATOM     15  N   UNL     1       2.020   2.988  19.974  0.00  0.00    +0.000 NA
ATOM     16  C   UNL     1       0.866   2.566  19.158  0.00  0.00    +0.000 C 
ATOM     17  C   UNL     1       1.754   2.947  21.425  0.00  0.00    +0.000 C 
ENDBRANCH  12  15
ENDBRANCH   7  12
ENDBRANCH   3   5
BRANCH   1  18
ATOM     18  C   UNL     1       1.615   9.130  17.674  0.00  0.00    +0.000 C 
BRANCH  18  22
ATOM     19  C   UNL     1       2.987  13.722  18.477  0.00  0.00    +0.000 C 
ATOM     20  C   UNL     1       2.205  12.466  18.657  0.00  0.00    +0.000 A 
ATOM     21  N   UNL     1       2.483  11.394  17.901  0.00  0.00    +0.000 NA
ATOM     22  N   UNL     1       1.618  10.444  18.321  0.00  0.00    +0.000 N 
ATOM     23  C   UNL     1       0.711  10.922  19.248  0.00  0.00    +0.000 A 
ATOM     24  C   UNL     1      -0.449  10.149  19.772  0.00  0.00    +0.000 C 
ATOM     25  C   UNL     1       1.128  12.216  19.540  0.00  0.00    +0.000 A 
BRANCH  25  26
ATOM     26  N   UNL     1       0.552  13.123  20.507  0.00  0.00    +0.000 N 
ATOM     27  O   UNL     1      -0.278  13.941  20.090  0.00  0.00    +0.000 OA
ATOM     28  O   UNL     1       0.936  13.030  21.678  0.00  0.00    +0.000 OA
ENDBRANCH  25  26
ENDBRANCH  18  22
ENDBRANCH   1  18
TORSDOF 6
ENDMDL
MODEL 6
REMARK VINA RESULT:      -7.1      1.937      2.122
REMARK  Name = 
REMARK  10 active torsions:
REMARK  status: ('A' for Active; 'I' for Inactive)
REMARK    1  A    between atoms: C_1  and  C_2
REMARK    2  A    between atoms: N_4  and  C_5
REMARK    3  A    between atoms: C_5  and  C_6
REMARK    4  A    between atoms: N_8  and  C_9
REMARK    5  A    between atoms: C_11  and  S_12
REMARK    6  A    between atoms: S_12  and  N_15
REMARK    7  A    between atoms: N_15  and  C_16
REMARK    8  A    between atoms: N_15  and  C_17
REMARK    9  A    between atoms: C_22  and  C_23
REMARK   10  A    between atoms: C_24  and  N_25
REMARK                            x       y       z     vdW  Elec       q    Type
REMARK                         _______ _______ _______ _____ _____    ______ ____
ROOT
ATOM      1  C   UNL     1       1.878   7.810  19.997  0.00  0.00    +0.000 C 
ATOM      2  O   UNL     1       1.530   8.245  18.897  0.00  0.00    +0.000 OA
ATOM      3  N   UNL     1       2.552   6.617  20.170  0.00  0.00    +0.000 N 
ATOM      4  H   UNL     1       2.409   6.182  21.089  0.00  0.00    +0.000 HD
ENDROOT
BRANCH   3   5
ATOM      5  C   UNL     1       2.932   5.747  19.116  0.00  0.00    +0.000 A 
ATOM      6  C   UNL     1       3.901   6.108  18.170  0.00  0.00    +0.000 A 
ATOM      7  C   UNL     1       4.247   5.205  17.146  0.00  0.00    +0.000 A 
ATOM      8  C   UNL     1       3.663   3.939  17.082  0.00  0.00    +0.000 A 
ATOM      9  C   UNL     1       2.701   3.582  18.015  0.00  0.00    +0.000 A 
ATOM     10  C   UNL     1       2.341   4.475  19.032  0.00  0.00    +0.000 A 
ATOM     11 CL   UNL     1       1.087   3.996  20.122  0.00  0.00    +0.000 Cl
BRANCH   7  12
ATOM     12  S   UNL     1       5.486   5.656  15.941  0.00  0.00    +0.000 S 
ATOM     13  O   UNL     1       5.628   4.536  15.035  0.00  0.00    +0.000 OA
ATOM     14  O   UNL     1       5.146   6.974  15.448  0.00  0.00    +0.000 OA
BRANCH  12  15
ATOM     15  N   UNL     1       6.902   5.781  16.871  0.00  0.00    +0.000 NA
ATOM     16  C   UNL     1       7.195   7.088  17.486  0.00  0.00    +0.000 C 
ATOM     17  C   UNL     1       7.212   4.639  17.752  0.00  0.00    +0.000 C 
ENDBRANCH  12  15
ENDBRANCH   7  12
ENDBRANCH   3   5
BRANCH   1  18
ATOM     18  C   UNL     1       1.643   8.637  21.254  0.00  0.00    +0.000 C 
BRANCH  18  22
ATOM     19  C   UNL     1       0.100  12.681  19.044  0.00  0.00    +0.000 C 
ATOM     20  C   UNL     1       0.211  11.655  20.120  0.00  0.00    +0.000 A 
ATOM     21  N   UNL     1       1.030  10.605  19.957  0.00  0.00    +0.000 NA
ATOM     22  N   UNL     1       0.905   9.893  21.100  0.00  0.00    +0.000 N 
ATOM     23  C   UNL     1      -0.066  10.402  21.941  0.00  0.00    +0.000 A 
ATOM     24  C   UNL     1      -0.528   9.742  23.194  0.00  0.00    +0.000 C 
ATOM     25  C   UNL     1      -0.473  11.596  21.357  0.00  0.00    +0.000 A 
BRANCH  25  26
ATOM     26  N   UNL     1      -1.426  12.547  21.883  0.00  0.00    +0.000 N 
ATOM     27  O   UNL     1      -2.596  12.449  21.493  0.00  0.00    +0.000 OA
ATOM     28  O   UNL     1      -1.007  13.398  22.675  0.00  0.00    +0.000 OA
ENDBRANCH  25  26
ENDBRANCH  18  22
ENDBRANCH   1  18
TORSDOF 6
ENDMDL
MODEL 7
REMARK VINA RESULT:      -7.1      1.026      1.195
REMARK  Name = 
REMARK  10 active torsions:
REMARK  status: ('A' for Active; 'I' for Inactive)
REMARK    1  A    between atoms: C_1  and  C_2
REMARK    2  A    between atoms: N_4  and  C_5
REMARK    3  A    between atoms: C_5  and  C_6
REMARK    4  A    between atoms: N_8  and  C_9
REMARK    5  A    between atoms: C_11  and  S_12
REMARK    6  A    between atoms: S_12  and  N_15
REMARK    7  A    between atoms: N_15  and  C_16
REMARK    8  A    between atoms: N_15  and  C_17
REMARK    9  A    between atoms: C_22  and  C_23
REMARK   10  A    between atoms: C_24  and  N_25
REMARK                            x       y       z     vdW  Elec       q    Type
REMARK                         _______ _______ _______ _____ _____    ______ ____
ROOT
ATOM      1  C   UNL     1       2.016   6.071  20.448  0.00  0.00    +0.000 C 
ATOM      2  O   UNL     1       2.754   5.364  21.138  0.00  0.00    +0.000 OA
ATOM      3  N   UNL     1       1.989   6.034  19.068  0.00  0.00    +0.000 N 
ATOM      4  H   UNL     1       1.679   6.908  18.629  0.00  0.00    +0.000 HD
ENDROOT
BRANCH   3   5
ATOM      5  C   UNL     1       2.798   5.183  18.271  0.00  0.00    +0.000 A 
ATOM      6  C   UNL     1       3.858   5.677  17.499  0.00  0.00    +0.000 A 
ATOM      7  C   UNL     1       4.635   4.790  16.730  0.00  0.00    +0.000 A 
ATOM      8  C   UNL     1       4.386   3.416  16.755  0.00  0.00    +0.000 A 
ATOM      9  C   UNL     1       3.335   2.925  17.516  0.00  0.00    +0.000 A 
ATOM     10  C   UNL     1       2.549   3.800  18.276  0.00  0.00    +0.000 A 
ATOM     11 CL   UNL     1       1.213   3.134  19.149  0.00  0.00    +0.000 Cl
BRANCH   7  12
ATOM     12  S   UNL     1       5.992   5.412  15.749  0.00  0.00    +0.000 S 
ATOM     13  O   UNL     1       6.435   4.329  14.897  0.00  0.00    +0.000 OA
ATOM     14  O   UNL     1       5.569   6.677  15.186  0.00  0.00    +0.000 OA
BRANCH  12  15
ATOM     15  N   UNL     1       7.197   5.717  16.906  0.00  0.00    +0.000 NA
ATOM     16  C   UNL     1       7.258   7.074  17.479  0.00  0.00    +0.000 C 
ATOM     17  C   UNL     1       7.439   4.653  17.899  0.00  0.00    +0.000 C 
ENDBRANCH  12  15
ENDBRANCH   7  12
ENDBRANCH   3   5
BRANCH   1  18
ATOM     18  C   UNL     1       1.004   6.995  21.115  0.00  0.00    +0.000 C 
BRANCH  18  22
ATOM     19  C   UNL     1       1.650  10.853  18.232  0.00  0.00    +0.000 C 
ATOM     20  C   UNL     1       1.308  10.102  19.473  0.00  0.00    +0.000 A 
ATOM     21  N   UNL     1       1.410   8.765  19.492  0.00  0.00    +0.000 NA
ATOM     22  N   UNL     1       1.048   8.412  20.746  0.00  0.00    +0.000 N 
ATOM     23  C   UNL     1       0.602   9.484  21.494  0.00  0.00    +0.000 A 
ATOM     24  C   UNL     1      -0.002   9.376  22.852  0.00  0.00    +0.000 C 
ATOM     25  C   UNL     1       0.840  10.607  20.709  0.00  0.00    +0.000 A 
BRANCH  25  26
ATOM     26  N   UNL     1       0.613  11.989  21.068  0.00  0.00    +0.000 N 
ATOM     27  O   UNL     1      -0.555  12.395  21.040  0.00  0.00    +0.000 OA
ATOM     28  O   UNL     1       1.599  12.672  21.365  0.00  0.00    +0.000 OA
ENDBRANCH  25  26
ENDBRANCH  18  22
ENDBRANCH   1  18
TORSDOF 6
ENDMDL
MODEL 8
REMARK VINA RESULT:      -7.1      2.161      2.479
REMARK  Name = 
REMARK  10 active torsions:
REMARK  status: ('A' for Active; 'I' for Inactive)
REMARK    1  A    between atoms: C_1  and  C_2
REMARK    2  A    between atoms: N_4  and  C_5
REMARK    3  A    between atoms: C_5  and  C_6
REMARK    4  A    between atoms: N_8  and  C_9
REMARK    5  A    between atoms: C_11  and  S_12
REMARK    6  A    between atoms: S_12  and  N_15
REMARK    7  A    between atoms: N_15  and  C_16
REMARK    8  A    between atoms: N_15  and  C_17
REMARK    9  A    between atoms: C_22  and  C_23
REMARK   10  A    between atoms: C_24  and  N_25
REMARK                            x       y       z     vdW  Elec       q    Type
REMARK                         _______ _______ _______ _____ _____    ______ ____
ROOT
ATOM      1  C   UNL     1       2.014   8.138  18.901  0.00  0.00    +0.000 C 
ATOM      2  O   UNL     1       2.345   8.562  17.792  0.00  0.00    +0.000 OA
ATOM      3  N   UNL     1       2.234   6.842  19.323  0.00  0.00    +0.000 N 
ATOM      4  H   UNL     1       1.574   6.514  20.037  0.00  0.00    +0.000 HD
ENDROOT
BRANCH   3   5
ATOM      5  C   UNL     1       2.867   5.839  18.545  0.00  0.00    +0.000 A 
ATOM      6  C   UNL     1       3.898   6.141  17.644  0.00  0.00    +0.000 A 
ATOM      7  C   UNL     1       4.499   5.108  16.899  0.00  0.00    +0.000 A 
ATOM      8  C   UNL     1       4.106   3.779  17.073  0.00  0.00    +0.000 A 
ATOM      9  C   UNL     1       3.083   3.480  17.962  0.00  0.00    +0.000 A 
ATOM     10  C   UNL     1       2.471   4.500  18.700  0.00  0.00    +0.000 A 
ATOM     11 CL   UNL     1       1.158   4.069  19.739  0.00  0.00    +0.000 Cl
BRANCH   7  12
ATOM     12  S   UNL     1       5.817   5.483  15.754  0.00  0.00    +0.000 S 
ATOM     13  O   UNL     1       6.060   4.289  14.974  0.00  0.00    +0.000 OA
ATOM     14  O   UNL     1       5.482   6.737  15.112  0.00  0.00    +0.000 OA
BRANCH  12  15
ATOM     15  N   UNL     1       7.151   5.744  16.773  0.00  0.00    +0.000 NA
ATOM     16  C   UNL     1       7.274   7.071  17.403  0.00  0.00    +0.000 C 
ATOM     17  C   UNL     1       7.515   4.633  17.675  0.00  0.00    +0.000 C 
ENDBRANCH  12  15
ENDBRANCH   7  12
ENDBRANCH   3   5
BRANCH   1  18
ATOM     18  C   UNL     1       1.396   9.082  19.924  0.00  0.00    +0.000 C 
BRANCH  18  22
ATOM     19  C   UNL     1      -2.101  10.669  16.947  0.00  0.00    +0.000 C 
ATOM     20  C   UNL     1      -1.256  10.613  18.173  0.00  0.00    +0.000 A 
ATOM     21  N   UNL     1      -0.273   9.706  18.264  0.00  0.00    +0.000 NA
ATOM     22  N   UNL     1       0.293   9.933  19.470  0.00  0.00    +0.000 N 
ATOM     23  C   UNL     1      -0.384  10.887  20.205  0.00  0.00    +0.000 A 
ATOM     24  C   UNL     1      -0.083  11.233  21.623  0.00  0.00    +0.000 C 
ATOM     25  C   UNL     1      -1.348  11.401  19.345  0.00  0.00    +0.000 A 
BRANCH  25  26
ATOM     26  N   UNL     1      -2.275  12.477  19.613  0.00  0.00    +0.000 N 
ATOM     27  O   UNL     1      -3.479  12.195  19.628  0.00  0.00    +0.000 OA
ATOM     28  O   UNL     1      -1.804  13.605  19.795  0.00  0.00    +0.000 OA
ENDBRANCH  25  26
ENDBRANCH  18  22
ENDBRANCH   1  18
TORSDOF 6
ENDMDL
MODEL 9
REMARK VINA RESULT:      -7.1      3.367      4.793
REMARK  Name = 
REMARK  10 active torsions:
REMARK  status: ('A' for Active; 'I' for Inactive)
REMARK    1  A    between atoms: C_1  and  C_2
REMARK    2  A    between atoms: N_4  and  C_5
REMARK    3  A    between atoms: C_5  and  C_6
REMARK    4  A    between atoms: N_8  and  C_9
REMARK    5  A    between atoms: C_11  and  S_12
REMARK    6  A    between atoms: S_12  and  N_15
REMARK    7  A    between atoms: N_15  and  C_16
REMARK    8  A    between atoms: N_15  and  C_17
REMARK    9  A    between atoms: C_22  and  C_23
REMARK   10  A    between atoms: C_24  and  N_25
REMARK                            x       y       z     vdW  Elec       q    Type
REMARK                         _______ _______ _______ _____ _____    ______ ____
ROOT
ATOM      1  C   UNL     1      -0.037   8.833  21.842  0.00  0.00    +0.000 C 
ATOM      2  O   UNL     1      -0.897   8.020  21.499  0.00  0.00    +0.000 OA
ATOM      3  N   UNL     1       1.233   8.878  21.301  0.00  0.00    +0.000 N 
ATOM      4  H   UNL     1       1.943   9.277  21.926  0.00  0.00    +0.000 HD
ENDROOT
BRANCH   3   5
ATOM      5  C   UNL     1       1.707   8.005  20.288  0.00  0.00    +0.000 A 
ATOM      6  C   UNL     1       2.059   6.676  20.559  0.00  0.00    +0.000 A 
ATOM      7  C   UNL     1       2.518   5.848  19.517  0.00  0.00    +0.000 A 
ATOM      8  C   UNL     1       2.593   6.324  18.206  0.00  0.00    +0.000 A 
ATOM      9  C   UNL     1       2.248   7.641  17.936  0.00  0.00    +0.000 A 
ATOM     10  C   UNL     1       1.801   8.477  18.967  0.00  0.00    +0.000 A 
ATOM     11 CL   UNL     1       1.452  10.125  18.578  0.00  0.00    +0.000 Cl
BRANCH   7  12
ATOM     12  S   UNL     1       2.962   4.152  19.854  0.00  0.00    +0.000 S 
ATOM     13  O   UNL     1       4.372   4.012  19.560  0.00  0.00    +0.000 OA
ATOM     14  O   UNL     1       2.438   3.823  21.163  0.00  0.00    +0.000 OA
BRANCH  12  15
ATOM     15  N   UNL     1       2.079   3.283  18.692  0.00  0.00    +0.000 NA
ATOM     16  C   UNL     1       2.823   2.335  17.844  0.00  0.00    +0.000 C 
ATOM     17  C   UNL     1       0.759   2.775  19.115  0.00  0.00    +0.000 C 
ENDBRANCH  12  15
ENDBRANCH   7  12
ENDBRANCH   3   5
BRANCH   1  18
ATOM     18  C   UNL     1      -0.373   9.917  22.858  0.00  0.00    +0.000 C 
BRANCH  18  22
ATOM     19  C   UNL     1       1.177  13.808  20.394  0.00  0.00    +0.000 C 
ATOM     20  C   UNL     1       0.292  13.001  21.282  0.00  0.00    +0.000 A 
ATOM     21  N   UNL     1       0.606  11.727  21.556  0.00  0.00    +0.000 NA
ATOM     22  N   UNL     1      -0.376  11.302  22.382  0.00  0.00    +0.000 N 
ATOM     23  C   UNL     1      -1.376  12.241  22.547  0.00  0.00    +0.000 A 
ATOM     24  C   UNL     1      -2.653  11.997  23.276  0.00  0.00    +0.000 C 
ATOM     25  C   UNL     1      -0.919  13.386  21.903  0.00  0.00    +0.000 A 
BRANCH  25  26
ATOM     26  N   UNL     1      -1.570  14.675  21.846  0.00  0.00    +0.000 N 
ATOM     27  O   UNL     1      -1.090  15.581  22.538  0.00  0.00    +0.000 OA
ATOM     28  O   UNL     1      -2.566  14.781  21.123  0.00  0.00    +0.000 OA
ENDBRANCH  25  26
ENDBRANCH  18  22
ENDBRANCH   1  18
TORSDOF 6
ENDMDL
