MODEL 1
REMARK VINA RESULT:      -7.3      0.000      0.000
REMARK  Name = 
REMARK  7 active torsions:
REMARK  status: ('A' for Active; 'I' for Inactive)
REMARK    1  A    between atoms: C_1  and  C_2
REMARK    2  A    between atoms: C_6  and  O_7
REMARK    3  A    between atoms: O_7  and  C_8
REMARK    4  A    between atoms: C_8  and  C_9
REMARK    5  A    between atoms: N_11  and  C_12
REMARK    6  A    between atoms: C_12  and  C_13
REMARK    7  A    between atoms: C_18  and  O_19
REMARK                            x       y       z     vdW  Elec       q    Type
REMARK                         _______ _______ _______ _____ _____    ______ ____
ROOT
ATOM      1  C   UNL     1       5.599   4.796  17.685  0.00  0.00    +0.000 C 
ATOM      2  O   UNL     1       6.578   4.291  18.227  0.00  0.00    +0.000 OA
ATOM      3  N   UNL     1       5.160   4.470  16.424  0.00  0.00    +0.000 N 
ATOM      4  H   UNL     1       4.200   4.693  16.185  0.00  0.00    +0.000 HD
ENDROOT
BRANCH   1   5
ATOM      5  C   UNL     1       4.753   5.874  18.359  0.00  0.00    +0.000 C 
BRANCH   5   6
ATOM      6  O   UNL     1       4.003   5.424  19.481  0.00  0.00    +0.000 OA
BRANCH   6  12
ATOM      7  C   UNL     1       1.272   2.804  21.615  0.00  0.00    +0.000 C 
ATOM      8  C   UNL     1       1.980   3.498  20.452  0.00  0.00    +0.000 C 
ATOM      9  C   UNL     1       1.371   3.066  19.111  0.00  0.00    +0.000 C 
ATOM     10  C   UNL     1       2.010   3.800  17.933  0.00  0.00    +0.000 C 
ATOM     11  C   UNL     1       1.939   5.313  18.120  0.00  0.00    +0.000 C 
ATOM     12  C   UNL     1       2.605   5.747  19.434  0.00  0.00    +0.000 C 
ATOM     13  C   UNL     1       1.920   5.028  20.607  0.00  0.00    +0.000 C 
ENDBRANCH   6  12
ENDBRANCH   5   6
ENDBRANCH   1   5
BRANCH   3  14
ATOM     14  C   UNL     1       5.784   3.412  15.671  0.00  0.00    +0.000 C 
BRANCH  14  15
ATOM     15  C   UNL     1       6.374   3.916  14.382  0.00  0.00    +0.000 A 
ATOM     16  C   UNL     1       5.992   3.320  13.168  0.00  0.00    +0.000 A 
ATOM     17  C   UNL     1       6.486   3.804  11.954  0.00  0.00    +0.000 A 
ATOM     18  C   UNL     1       7.377   4.873  11.937  0.00  0.00    +0.000 A 
ATOM     19  C   UNL     1       7.778   5.463  13.137  0.00  0.00    +0.000 A 
ATOM     20  C   UNL     1       7.282   4.980  14.346  0.00  0.00    +0.000 A 
BRANCH  20  21
ATOM     21  O   UNL     1       7.679   5.548  15.525  0.00  0.00    +0.000 OA
ATOM     22  H   UNL     1       7.525   4.910  16.243  0.00  0.00    +0.000 HD
ENDBRANCH  20  21
ENDBRANCH  14  15
ENDBRANCH   3  14
TORSDOF 6
ENDMDL
MODEL 2
REMARK VINA RESULT:      -7.2      1.063      1.376
REMARK  Name = 
REMARK  7 active torsions:
REMARK  status: ('A' for Active; 'I' for Inactive)
REMARK    1  A    between atoms: C_1  and  C_2
REMARK    2  A    between atoms: C_6  and  O_7
REMARK    3  A    between atoms: O_7  and  C_8
REMARK    4  A    between atoms: C_8  and  C_9
REMARK    5  A    between atoms: N_11  and  C_12
REMARK    6  A    between atoms: C_12  and  C_13
REMARK    7  A    between atoms: C_18  and  O_19
REMARK                            x       y       z     vdW  Elec       q    Type
REMARK                         _______ _______ _______ _____ _____    ______ ____
ROOT
ATOM      1  C   UNL     1       6.606   5.207  18.156  0.00  0.00    +0.000 C 
ATOM      2  O   UNL     1       7.670   5.641  18.591  0.00  0.00    +0.000 OA
ATOM      3  N   UNL     1       6.292   5.131  16.821  0.00  0.00    +0.000 N 
ATOM      4  H   UNL     1       5.551   4.495  16.544  0.00  0.00    +0.000 HD
ENDROOT
BRANCH   1   5
ATOM      5  C   UNL     1       5.488   4.710  19.070  0.00  0.00    +0.000 C 
BRANCH   5   6
ATOM      6  O   UNL     1       4.254   4.452  18.411  0.00  0.00    +0.000 OA
BRANCH   6  12
ATOM      7  C   UNL     1       1.845   2.950  21.700  0.00  0.00    +0.000 C 
ATOM      8  C   UNL     1       2.236   3.372  20.285  0.00  0.00    +0.000 C 
ATOM      9  C   UNL     1       1.043   3.239  19.329  0.00  0.00    +0.000 C 
ATOM     10  C   UNL     1       1.383   3.725  17.922  0.00  0.00    +0.000 C 
ATOM     11  C   UNL     1       1.926   5.152  17.945  0.00  0.00    +0.000 C 
ATOM     12  C   UNL     1       3.158   5.267  18.854  0.00  0.00    +0.000 C 
ATOM     13  C   UNL     1       2.782   4.812  20.273  0.00  0.00    +0.000 C 
ENDBRANCH   6  12
ENDBRANCH   5   6
ENDBRANCH   1   5
BRANCH   3  14
ATOM     14  C   UNL     1       7.258   5.477  15.809  0.00  0.00    +0.000 C 
BRANCH  14  15
ATOM     15  C   UNL     1       6.937   4.834  14.487  0.00  0.00    +0.000 A 
ATOM     16  C   UNL     1       5.853   3.944  14.396  0.00  0.00    +0.000 A 
ATOM     17  C   UNL     1       5.505   3.374  13.168  0.00  0.00    +0.000 A 
ATOM     18  C   UNL     1       6.241   3.671  12.024  0.00  0.00    +0.000 A 
ATOM     19  C   UNL     1       7.330   4.539  12.105  0.00  0.00    +0.000 A 
ATOM     20  C   UNL     1       7.675   5.108  13.329  0.00  0.00    +0.000 A 
BRANCH  20  21
ATOM     21  O   UNL     1       8.748   5.952  13.415  0.00  0.00    +0.000 OA
ATOM     22  H   UNL     1       8.419   6.855  13.564  0.00  0.00    +0.000 HD
ENDBRANCH  20  21
ENDBRANCH  14  15
ENDBRANCH   3  14
TORSDOF 6
ENDMDL
MODEL 3
REMARK VINA RESULT:      -7.2      0.962      1.238
REMARK  Name = 
REMARK  7 active torsions:
REMARK  status: ('A' for Active; 'I' for Inactive)
REMARK    1  A    between atoms: C_1  and  C_2
REMARK    2  A    between atoms: C_6  and  O_7
REMARK    3  A    between atoms: O_7  and  C_8
REMARK    4  A    between atoms: C_8  and  C_9
REMARK    5  A    between atoms: N_11  and  C_12
REMARK    6  A    between atoms: C_12  and  C_13
REMARK    7  A    between atoms: C_18  and  O_19
REMARK                            x       y       z     vdW  Elec       q    Type
REMARK                         _______ _______ _______ _____ _____    ______ ____
ROOT
ATOM      1  C   UNL     1       5.244   5.165  17.357  0.00  0.00    +0.000 C 
ATOM      2  O   UNL     1       5.651   4.170  17.950  0.00  0.00    +0.000 OA
ATOM      3  N   UNL     1       5.900   5.761  16.307  0.00  0.00    +0.000 N 
ATOM      4  H   UNL     1       5.362   6.364  15.694  0.00  0.00    +0.000 HD
ENDROOT
BRANCH   1   5
ATOM      5  C   UNL     1       3.946   5.874  17.738  0.00  0.00    +0.000 C 
BRANCH   5   6
ATOM      6  O   UNL     1       3.332   5.389  18.926  0.00  0.00    +0.000 OA
BRANCH   6  12
ATOM      7  C   UNL     1       1.576   2.577  21.736  0.00  0.00    +0.000 C 
ATOM      8  C   UNL     1       2.084   3.159  20.418  0.00  0.00    +0.000 C 
ATOM      9  C   UNL     1       1.810   2.195  19.256  0.00  0.00    +0.000 C 
ATOM     10  C   UNL     1       2.240   2.783  17.913  0.00  0.00    +0.000 C 
ATOM     11  C   UNL     1       1.596   4.146  17.674  0.00  0.00    +0.000 C 
ATOM     12  C   UNL     1       1.925   5.127  18.809  0.00  0.00    +0.000 C 
ATOM     13  C   UNL     1       1.447   4.534  20.143  0.00  0.00    +0.000 C 
ENDBRANCH   6  12
ENDBRANCH   5   6
ENDBRANCH   1   5
BRANCH   3  14
ATOM     14  C   UNL     1       7.098   5.181  15.755  0.00  0.00    +0.000 C 
BRANCH  14  15
ATOM     15  C   UNL     1       6.883   4.683  14.352  0.00  0.00    +0.000 A 
ATOM     16  C   UNL     1       5.828   3.792  14.089  0.00  0.00    +0.000 A 
ATOM     17  C   UNL     1       5.577   3.355  12.786  0.00  0.00    +0.000 A 
ATOM     18  C   UNL     1       6.382   3.786  11.735  0.00  0.00    +0.000 A 
ATOM     19  C   UNL     1       7.443   4.657  11.985  0.00  0.00    +0.000 A 
ATOM     20  C   UNL     1       7.691   5.093  13.285  0.00  0.00    +0.000 A 
BRANCH  20  21
ATOM     21  O   UNL     1       8.735   5.939  13.537  0.00  0.00    +0.000 OA
ATOM     22  H   UNL     1       8.770   6.111  14.493  0.00  0.00    +0.000 HD
ENDBRANCH  20  21
ENDBRANCH  14  15
ENDBRANCH   3  14
TORSDOF 6
ENDMDL
MODEL 4
REMARK VINA RESULT:      -7.1      1.273      1.916
REMARK  Name = 
REMARK  7 active torsions:
REMARK  status: ('A' for Active; 'I' for Inactive)
REMARK    1  A    between atoms: C_1  and  C_2
REMARK    2  A    between atoms: C_6  and  O_7
REMARK    3  A    between atoms: O_7  and  C_8
REMARK    4  A    between atoms: C_8  and  C_9
REMARK    5  A    between atoms: N_11  and  C_12
REMARK    6  A    between atoms: C_12  and  C_13
REMARK    7  A    between atoms: C_18  and  O_19
REMARK                            x       y       z     vdW  Elec       q    Type
REMARK                         _______ _______ _______ _____ _____    ______ ____
ROOT
ATOM      1  C   UNL     1       6.543   4.727  17.942  0.00  0.00    +0.000 C 
ATOM      2  O   UNL     1       7.687   4.334  18.154  0.00  0.00    +0.000 OA
ATOM      3  N   UNL     1       6.168   5.453  16.837  0.00  0.00    +0.000 N 
ATOM      4  H   UNL     1       5.184   5.466  16.591  0.00  0.00    +0.000 HD
ENDROOT
BRANCH   1   5
ATOM      5  C   UNL     1       5.391   4.459  18.909  0.00  0.00    +0.000 C 
BRANCH   5   6
ATOM      6  O   UNL     1       4.563   3.359  18.554  0.00  0.00    +0.000 OA
BRANCH   6  12
ATOM      7  C   UNL     1       1.397   5.444  20.679  0.00  0.00    +0.000 C 
ATOM      8  C   UNL     1       2.136   4.329  19.940  0.00  0.00    +0.000 C 
ATOM      9  C   UNL     1       1.228   3.106  19.754  0.00  0.00    +0.000 C 
ATOM     10  C   UNL     1       1.915   2.002  18.953  0.00  0.00    +0.000 C 
ATOM     11  C   UNL     1       2.429   2.528  17.615  0.00  0.00    +0.000 C 
ATOM     12  C   UNL     1       3.387   3.712  17.809  0.00  0.00    +0.000 C 
ATOM     13  C   UNL     1       2.662   4.826  18.581  0.00  0.00    +0.000 C 
ENDBRANCH   6  12
ENDBRANCH   5   6
ENDBRANCH   1   5
BRANCH   3  14
ATOM     14  C   UNL     1       7.104   5.727  15.776  0.00  0.00    +0.000 C 
BRANCH  14  15
ATOM     15  C   UNL     1       6.770   4.962  14.525  0.00  0.00    +0.000 A 
ATOM     16  C   UNL     1       5.615   4.162  14.491  0.00  0.00    +0.000 A 
ATOM     17  C   UNL     1       5.257   3.482  13.324  0.00  0.00    +0.000 A 
ATOM     18  C   UNL     1       6.052   3.578  12.186  0.00  0.00    +0.000 A 
ATOM     19  C   UNL     1       7.211   4.355  12.212  0.00  0.00    +0.000 A 
ATOM     20  C   UNL     1       7.566   5.033  13.375  0.00  0.00    +0.000 A 
BRANCH  20  21
ATOM     21  O   UNL     1       8.705   5.789  13.409  0.00  0.00    +0.000 OA
ATOM     22  H   UNL     1       9.467   5.207  13.247  0.00  0.00    +0.000 HD
ENDBRANCH  20  21
ENDBRANCH  14  15
ENDBRANCH   3  14
TORSDOF 6
ENDMDL
MODEL 5
REMARK VINA RESULT:      -7.0      1.408      1.881
REMARK  Name = 
REMARK  7 active torsions:
REMARK  status: ('A' for Active; 'I' for Inactive)
REMARK    1  A    between atoms: C_1  and  C_2
REMARK    2  A    between atoms: C_6  and  O_7
REMARK    3  A    between atoms: O_7  and  C_8
REMARK    4  A    between atoms: C_8  and  C_9
REMARK    5  A    between atoms: N_11  and  C_12
REMARK    6  A    between atoms: C_12  and  C_13
REMARK    7  A    between atoms: C_18  and  O_19
REMARK                            x       y       z     vdW  Elec       q    Type
REMARK                         _______ _______ _______ _____ _____    ______ ____
ROOT
ATOM      1  C   UNL     1       5.026   6.429  16.523  0.00  0.00    +0.000 C 
ATOM      2  O   UNL     1       5.075   7.191  15.561  0.00  0.00    +0.000 OA
ATOM      3  N   UNL     1       5.961   5.458  16.788  0.00  0.00    +0.000 N 
ATOM      4  H   UNL     1       6.013   5.096  17.734  0.00  0.00    +0.000 HD
ENDROOT
BRANCH   1   5
ATOM      5  C   UNL     1       3.890   6.469  17.543  0.00  0.00    +0.000 C 
BRANCH   5   6
ATOM      6  O   UNL     1       3.642   5.234  18.204  0.00  0.00    +0.000 OA
BRANCH   6  12
ATOM      7  C   UNL     1       1.471   2.977  21.216  0.00  0.00    +0.000 C 
ATOM      8  C   UNL     1       2.322   3.273  19.982  0.00  0.00    +0.000 C 
ATOM      9  C   UNL     1       2.655   1.978  19.228  0.00  0.00    +0.000 C 
ATOM     10  C   UNL     1       3.443   2.250  17.948  0.00  0.00    +0.000 C 
ATOM     11  C   UNL     1       2.715   3.249  17.052  0.00  0.00    +0.000 C 
ATOM     12  C   UNL     1       2.440   4.566  17.791  0.00  0.00    +0.000 C 
ATOM     13  C   UNL     1       1.612   4.274  19.052  0.00  0.00    +0.000 C 
ENDBRANCH   6  12
ENDBRANCH   5   6
ENDBRANCH   1   5
BRANCH   3  14
ATOM     14  C   UNL     1       7.147   5.329  15.980  0.00  0.00    +0.000 C 
BRANCH  14  15
ATOM     15  C   UNL     1       6.846   4.727  14.635  0.00  0.00    +0.000 A 
ATOM     16  C   UNL     1       5.768   3.835  14.503  0.00  0.00    +0.000 A 
ATOM     17  C   UNL     1       5.436   3.302  13.255  0.00  0.00    +0.000 A 
ATOM     18  C   UNL     1       6.183   3.638  12.129  0.00  0.00    +0.000 A 
ATOM     19  C   UNL     1       7.267   4.510  12.250  0.00  0.00    +0.000 A 
ATOM     20  C   UNL     1       7.595   5.041  13.495  0.00  0.00    +0.000 A 
BRANCH  20  21
ATOM     21  O   UNL     1       8.661   5.888  13.620  0.00  0.00    +0.000 OA
ATOM     22  H   UNL     1       8.333   6.759  13.900  0.00  0.00    +0.000 HD
ENDBRANCH  20  21
ENDBRANCH  14  15
ENDBRANCH   3  14
TORSDOF 6
ENDMDL
MODEL 6
REMARK VINA RESULT:      -6.8      5.525      6.777
REMARK  Name = 
REMARK  7 active torsions:
REMARK  status: ('A' for Active; 'I' for Inactive)
REMARK    1  A    between atoms: C_1  and  C_2
REMARK    2  A    between atoms: C_6  and  O_7
REMARK    3  A    between atoms: O_7  and  C_8
REMARK    4  A    between atoms: C_8  and  C_9
REMARK    5  A    between atoms: N_11  and  C_12
REMARK    6  A    between atoms: C_12  and  C_13
REMARK    7  A    between atoms: C_18  and  O_19
REMARK                            x       y       z     vdW  Elec       q    Type
REMARK                         _______ _______ _______ _____ _____    ______ ____
ROOT
ATOM      1  C   UNL     1       7.878   7.846  17.936  0.00  0.00    +0.000 C 
ATOM      2  O   UNL     1       7.375   8.023  16.830  0.00  0.00    +0.000 OA
ATOM      3  N   UNL     1       8.515   8.825  18.660  0.00  0.00    +0.000 N 
ATOM      4  H   UNL     1       8.620   8.683  19.659  0.00  0.00    +0.000 HD
ENDROOT
BRANCH   1   5
ATOM      5  C   UNL     1       7.862   6.490  18.638  0.00  0.00    +0.000 C 
BRANCH   5   6
ATOM      6  O   UNL     1       6.953   5.546  18.084  0.00  0.00    +0.000 OA
BRANCH   6  12
ATOM      7  C   UNL     1       4.183   2.742  19.915  0.00  0.00    +0.000 C 
ATOM      8  C   UNL     1       4.876   3.580  18.841  0.00  0.00    +0.000 C 
ATOM      9  C   UNL     1       4.191   3.394  17.481  0.00  0.00    +0.000 C 
ATOM     10  C   UNL     1       4.816   4.277  16.402  0.00  0.00    +0.000 C 
ATOM     11  C   UNL     1       4.830   5.743  16.827  0.00  0.00    +0.000 C 
ATOM     12  C   UNL     1       5.572   5.933  18.157  0.00  0.00    +0.000 C 
ATOM     13  C   UNL     1       4.901   5.068  19.236  0.00  0.00    +0.000 C 
ENDBRANCH   6  12
ENDBRANCH   5   6
ENDBRANCH   1   5
BRANCH   3  14
ATOM     14  C   UNL     1       8.553  10.188  18.194  0.00  0.00    +0.000 C 
BRANCH  14  15
ATOM     15  C   UNL     1       9.791  10.905  18.660  0.00  0.00    +0.000 A 
ATOM     16  C   UNL     1      10.675  11.446  17.712  0.00  0.00    +0.000 A 
ATOM     17  C   UNL     1      11.804  12.160  18.121  0.00  0.00    +0.000 A 
ATOM     18  C   UNL     1      12.074  12.327  19.476  0.00  0.00    +0.000 A 
ATOM     19  C   UNL     1      11.213  11.779  20.428  0.00  0.00    +0.000 A 
ATOM     20  C   UNL     1      10.087  11.070  20.019  0.00  0.00    +0.000 A 
BRANCH  20  21
ATOM     21  O   UNL     1       9.245  10.523  20.947  0.00  0.00    +0.000 OA
ATOM     22  H   UNL     1       8.572   9.997  20.483  0.00  0.00    +0.000 HD
ENDBRANCH  20  21
ENDBRANCH  14  15
ENDBRANCH   3  14
TORSDOF 6
ENDMDL
MODEL 7
REMARK VINA RESULT:      -6.8      1.999      3.461
REMARK  Name = 
REMARK  7 active torsions:
REMARK  status: ('A' for Active; 'I' for Inactive)
REMARK    1  A    between atoms: C_1  and  C_2
REMARK    2  A    between atoms: C_6  and  O_7
REMARK    3  A    between atoms: O_7  and  C_8
REMARK    4  A    between atoms: C_8  and  C_9
REMARK    5  A    between atoms: N_11  and  C_12
REMARK    6  A    between atoms: C_12  and  C_13
REMARK    7  A    between atoms: C_18  and  O_19
REMARK                            x       y       z     vdW  Elec       q    Type
REMARK                         _______ _______ _______ _____ _____    ______ ____
ROOT
ATOM      1  C   UNL     1       2.594   7.250  18.916  0.00  0.00    +0.000 C 
ATOM      2  O   UNL     1       2.023   8.192  18.373  0.00  0.00    +0.000 OA
ATOM      3  N   UNL     1       3.719   6.638  18.419  0.00  0.00    +0.000 N 
ATOM      4  H   UNL     1       4.287   6.097  19.062  0.00  0.00    +0.000 HD
ENDROOT
BRANCH   1   5
ATOM      5  C   UNL     1       2.098   6.633  20.223  0.00  0.00    +0.000 C 
BRANCH   5   6
ATOM      6  O   UNL     1       1.461   5.370  20.078  0.00  0.00    +0.000 OA
BRANCH   6  12
ATOM      7  C   UNL     1       3.914   2.814  17.561  0.00  0.00    +0.000 C 
ATOM      8  C   UNL     1       2.762   3.264  18.458  0.00  0.00    +0.000 C 
ATOM      9  C   UNL     1       1.796   2.101  18.726  0.00  0.00    +0.000 C 
ATOM     10  C   UNL     1       0.673   2.501  19.681  0.00  0.00    +0.000 C 
ATOM     11  C   UNL     1       1.231   3.077  20.981  0.00  0.00    +0.000 C 
ATOM     12  C   UNL     1       2.147   4.279  20.712  0.00  0.00    +0.000 C 
ATOM     13  C   UNL     1       3.291   3.844  19.782  0.00  0.00    +0.000 C 
ENDBRANCH   6  12
ENDBRANCH   5   6
ENDBRANCH   1   5
BRANCH   3  14
ATOM     14  C   UNL     1       4.377   7.139  17.239  0.00  0.00    +0.000 C 
BRANCH  14  15
ATOM     15  C   UNL     1       5.324   6.127  16.654  0.00  0.00    +0.000 A 
ATOM     16  C   UNL     1       5.257   5.829  15.282  0.00  0.00    +0.000 A 
ATOM     17  C   UNL     1       6.159   4.931  14.706  0.00  0.00    +0.000 A 
ATOM     18  C   UNL     1       7.125   4.308  15.492  0.00  0.00    +0.000 A 
ATOM     19  C   UNL     1       7.191   4.582  16.859  0.00  0.00    +0.000 A 
ATOM     20  C   UNL     1       6.292   5.479  17.431  0.00  0.00    +0.000 A 
BRANCH  20  21
ATOM     21  O   UNL     1       6.347   5.744  18.771  0.00  0.00    +0.000 OA
ATOM     22  H   UNL     1       6.792   6.598  18.900  0.00  0.00    +0.000 HD
ENDBRANCH  20  21
ENDBRANCH  14  15
ENDBRANCH   3  14
TORSDOF 6
ENDMDL
MODEL 8
REMARK VINA RESULT:      -6.7      1.135      1.627
REMARK  Name = 
REMARK  7 active torsions:
REMARK  status: ('A' for Active; 'I' for Inactive)
REMARK    1  A    between atoms: C_1  and  C_2
REMARK    2  A    between atoms: C_6  and  O_7
REMARK    3  A    between atoms: O_7  and  C_8
REMARK    4  A    between atoms: C_8  and  C_9
REMARK    5  A    between atoms: N_11  and  C_12
REMARK    6  A    between atoms: C_12  and  C_13
REMARK    7  A    between atoms: C_18  and  O_19
REMARK                            x       y       z     vdW  Elec       q    Type
REMARK                         _______ _______ _______ _____ _____    ______ ____
ROOT
ATOM      1  C   UNL     1       6.550   5.184  18.453  0.00  0.00    +0.000 C 
ATOM      2  O   UNL     1       7.651   4.959  18.947  0.00  0.00    +0.000 OA
ATOM      3  N   UNL     1       6.334   5.396  17.112  0.00  0.00    +0.000 N 
ATOM      4  H   UNL     1       5.393   5.266  16.758  0.00  0.00    +0.000 HD
ENDROOT
BRANCH   1   5
ATOM      5  C   UNL     1       5.276   5.268  19.291  0.00  0.00    +0.000 C 
BRANCH   5   6
ATOM      6  O   UNL     1       4.166   4.558  18.755  0.00  0.00    +0.000 OA
BRANCH   6  12
ATOM      7  C   UNL     1       1.523   2.722  21.676  0.00  0.00    +0.000 C 
ATOM      8  C   UNL     1       2.070   3.183  20.325  0.00  0.00    +0.000 C 
ATOM      9  C   UNL     1       1.090   2.834  19.196  0.00  0.00    +0.000 C 
ATOM     10  C   UNL     1       1.575   3.348  17.842  0.00  0.00    +0.000 C 
ATOM     11  C   UNL     1       1.865   4.846  17.890  0.00  0.00    +0.000 C 
ATOM     12  C   UNL     1       2.893   5.183  18.980  0.00  0.00    +0.000 C 
ATOM     13  C   UNL     1       2.366   4.693  20.339  0.00  0.00    +0.000 C 
ENDBRANCH   6  12
ENDBRANCH   5   6
ENDBRANCH   1   5
BRANCH   3  14
ATOM     14  C   UNL     1       7.407   5.270  16.158  0.00  0.00    +0.000 C 
BRANCH  14  15
ATOM     15  C   UNL     1       6.915   4.775  14.826  0.00  0.00    +0.000 A 
ATOM     16  C   UNL     1       7.653   5.064  13.665  0.00  0.00    +0.000 A 
ATOM     17  C   UNL     1       7.244   4.572  12.423  0.00  0.00    +0.000 A 
ATOM     18  C   UNL     1       6.089   3.802  12.321  0.00  0.00    +0.000 A 
ATOM     19  C   UNL     1       5.337   3.522  13.464  0.00  0.00    +0.000 A 
ATOM     20  C   UNL     1       5.748   4.012  14.701  0.00  0.00    +0.000 A 
BRANCH  20  21
ATOM     21  O   UNL     1       5.010   3.748  15.822  0.00  0.00    +0.000 OA
ATOM     22  H   UNL     1       5.420   4.204  16.576  0.00  0.00    +0.000 HD
ENDBRANCH  20  21
ENDBRANCH  14  15
ENDBRANCH   3  14
TORSDOF 6
ENDMDL
MODEL 9
REMARK VINA RESULT:      -6.7      1.278      2.213
REMARK  Name = 
REMARK  7 active torsions:
REMARK  status: ('A' for Active; 'I' for Inactive)
REMARK    1  A    between atoms: C_1  and  C_2
REMARK    2  A    between atoms: C_6  and  O_7
REMARK    3  A    between atoms: O_7  and  C_8
REMARK    4  A    between atoms: C_8  and  C_9
REMARK    5  A    between atoms: N_11  and  C_12
REMARK    6  A    between atoms: C_12  and  C_13
REMARK    7  A    between atoms: C_18  and  O_19
REMARK                            x       y       z     vdW  Elec       q    Type
REMARK                         _______ _______ _______ _____ _____    ______ ____
ROOT
ATOM      1  C   UNL     1       6.567   4.715  17.897  0.00  0.00    +0.000 C 
ATOM      2  O   UNL     1       7.696   4.403  18.268  0.00  0.00    +0.000 OA
ATOM      3  N   UNL     1       6.287   5.294  16.683  0.00  0.00    +0.000 N 
ATOM      4  H   UNL     1       5.334   5.233  16.338  0.00  0.00    +0.000 HD
ENDROOT
BRANCH   1   5
ATOM      5  C   UNL     1       5.330   4.502  18.766  0.00  0.00    +0.000 C 
BRANCH   5   6
ATOM      6  O   UNL     1       4.552   5.672  18.987  0.00  0.00    +0.000 OA
BRANCH   6  12
ATOM      7  C   UNL     1       1.412   8.151  20.682  0.00  0.00    +0.000 C 
ATOM      8  C   UNL     1       2.184   6.900  20.265  0.00  0.00    +0.000 C 
ATOM      9  C   UNL     1       1.388   5.633  20.604  0.00  0.00    +0.000 C 
ATOM     10  C   UNL     1       2.103   4.368  20.132  0.00  0.00    +0.000 C 
ATOM     11  C   UNL     1       2.431   4.442  18.643  0.00  0.00    +0.000 C 
ATOM     12  C   UNL     1       3.281   5.679  18.318  0.00  0.00    +0.000 C 
ATOM     13  C   UNL     1       2.526   6.941  18.765  0.00  0.00    +0.000 C 
ENDBRANCH   6  12
ENDBRANCH   5   6
ENDBRANCH   1   5
BRANCH   3  14
ATOM     14  C   UNL     1       7.319   5.493  15.698  0.00  0.00    +0.000 C 
BRANCH  14  15
ATOM     15  C   UNL     1       6.975   4.839  14.387  0.00  0.00    +0.000 A 
ATOM     16  C   UNL     1       5.885   3.953  14.322  0.00  0.00    +0.000 A 
ATOM     17  C   UNL     1       5.515   3.373  13.106  0.00  0.00    +0.000 A 
ATOM     18  C   UNL     1       6.233   3.655  11.948  0.00  0.00    +0.000 A 
ATOM     19  C   UNL     1       7.328   4.519  12.003  0.00  0.00    +0.000 A 
ATOM     20  C   UNL     1       7.695   5.098  13.215  0.00  0.00    +0.000 A 
BRANCH  20  21
ATOM     21  O   UNL     1       8.772   5.938  13.276  0.00  0.00    +0.000 OA
ATOM     22  H   UNL     1       9.583   5.407  13.202  0.00  0.00    +0.000 HD
ENDBRANCH  20  21
ENDBRANCH  14  15
ENDBRANCH   3  14
TORSDOF 6
ENDMDL
