MODEL 1
REMARK VINA RESULT:      -8.3      0.000      0.000
REMARK  Name = 
REMARK  4 active torsions:
REMARK  status: ('A' for Active; 'I' for Inactive)
REMARK    1  A    between atoms: C_1  and  O_2
REMARK    2  A    between atoms: O_2  and  C_3
REMARK    3  A    between atoms: N_12  and  C_13
REMARK    4  A    between atoms: N_19  and  C_20
REMARK                            x       y       z     vdW  Elec       q    Type
REMARK                         _______ _______ _______ _____ _____    ______ ____
ROOT
ATOM      1  C   UNL     1       2.140   8.714  18.834  0.00  0.00    +0.000 A 
ATOM      2  C   UNL     1       1.505   8.210  19.962  0.00  0.00    +0.000 A 
ATOM      3  C   UNL     1       1.574   6.839  20.270  0.00  0.00    +0.000 A 
ATOM      4  C   UNL     1       2.277   5.933  19.469  0.00  0.00    +0.000 A 
ATOM      5  C   UNL     1       2.937   6.476  18.356  0.00  0.00    +0.000 A 
ATOM      6  C   UNL     1       2.853   7.840  18.033  0.00  0.00    +0.000 A 
ATOM      7  C   UNL     1       3.729   5.595  17.448  0.00  0.00    +0.000 C 
ATOM      8  C   UNL     1       4.243   4.327  18.140  0.00  0.00    +0.000 C 
ATOM      9  C   UNL     1       3.053   3.654  18.823  0.00  0.00    +0.000 C 
ATOM     10  N   UNL     1       2.340   4.571  19.736  0.00  0.00    +0.000 N 
ATOM     11  C   UNL     1       1.926   4.050  21.035  0.00  0.00    +0.000 C 
ATOM     12  C   UNL     1       5.353   4.574  19.139  0.00  0.00    +0.000 C 
ATOM     13  O   UNL     1       5.310   4.333  20.336  0.00  0.00    +0.000 OA
ATOM     14  N   UNL     1       6.522   5.009  18.581  0.00  0.00    +0.000 N 
ATOM     15  C   UNL     1       6.974   4.589  17.361  0.00  0.00    +0.000 C 
ATOM     16  O   UNL     1       8.186   4.645  17.169  0.00  0.00    +0.000 OA
ATOM     17  N   UNL     1       6.005   4.096  16.483  0.00  0.00    +0.000 N 
ATOM     18  C   UNL     1       4.828   3.526  16.995  0.00  0.00    +0.000 C 
ATOM     19  O   UNL     1       4.261   2.542  16.518  0.00  0.00    +0.000 OA
ATOM     20  H   UNL     1       7.262   5.204  19.241  0.00  0.00    +0.000 HD
ENDROOT
BRANCH  17  21
ATOM     21  C   UNL     1       6.155   4.270  15.059  0.00  0.00    +0.000 A 
ATOM     22  C   UNL     1       5.497   3.451  14.127  0.00  0.00    +0.000 A 
ATOM     23  C   UNL     1       5.869   3.438  12.779  0.00  0.00    +0.000 A 
ATOM     24  C   UNL     1       6.905   4.247  12.346  0.00  0.00    +0.000 A 
ATOM     25  F   UNL     1       7.304   4.187  11.071  0.00  0.00    +0.000 F 
ATOM     26  C   UNL     1       7.544   5.107  13.226  0.00  0.00    +0.000 A 
ATOM     27  C   UNL     1       7.154   5.138  14.569  0.00  0.00    +0.000 A 
ENDBRANCH  17  21
BRANCH   1  29
ATOM     28  C   UNL     1       1.033  10.802  18.820  0.00  0.00    +0.000 C 
ATOM     29  O   UNL     1       2.143  10.013  18.413  0.00  0.00    +0.000 OA
ENDBRANCH   1  29
TORSDOF 2
ENDMDL
MODEL 2
REMARK VINA RESULT:      -8.0      6.628     10.393
REMARK  Name = 
REMARK  4 active torsions:
REMARK  status: ('A' for Active; 'I' for Inactive)
REMARK    1  A    between atoms: C_1  and  O_2
REMARK    2  A    between atoms: O_2  and  C_3
REMARK    3  A    between atoms: N_12  and  C_13
REMARK    4  A    between atoms: N_19  and  C_20
REMARK                            x       y       z     vdW  Elec       q    Type
REMARK                         _______ _______ _______ _____ _____    ______ ____
ROOT
ATOM      1  C   UNL     1      -3.985  12.846  24.390  0.00  0.00    +0.000 A 
ATOM      2  C   UNL     1      -3.844  14.181  24.750  0.00  0.00    +0.000 A 
ATOM      3  C   UNL     1      -2.754  14.936  24.282  0.00  0.00    +0.000 A 
ATOM      4  C   UNL     1      -1.776  14.389  23.444  0.00  0.00    +0.000 A 
ATOM      5  C   UNL     1      -1.962  13.049  23.071  0.00  0.00    +0.000 A 
ATOM      6  C   UNL     1      -3.038  12.286  23.551  0.00  0.00    +0.000 A 
ATOM      7  C   UNL     1      -0.985  12.378  22.165  0.00  0.00    +0.000 C 
ATOM      8  C   UNL     1      -0.231  13.360  21.261  0.00  0.00    +0.000 C 
ATOM      9  C   UNL     1       0.354  14.457  22.150  0.00  0.00    +0.000 C 
ATOM     10  N   UNL     1      -0.676  15.105  22.989  0.00  0.00    +0.000 N 
ATOM     11  C   UNL     1      -0.633  16.559  23.115  0.00  0.00    +0.000 C 
ATOM     12  C   UNL     1      -1.079  13.968  20.165  0.00  0.00    +0.000 C 
ATOM     13  O   UNL     1      -1.326  15.156  20.021  0.00  0.00    +0.000 OA
ATOM     14  N   UNL     1      -1.496  13.074  19.218  0.00  0.00    +0.000 N 
ATOM     15  C   UNL     1      -0.736  12.020  18.795  0.00  0.00    +0.000 C 
ATOM     16  O   UNL     1      -0.966  11.588  17.669  0.00  0.00    +0.000 OA
ATOM     17  N   UNL     1       0.256  11.584  19.677  0.00  0.00    +0.000 N 
ATOM     18  C   UNL     1       0.813  12.485  20.599  0.00  0.00    +0.000 C 
ATOM     19  O   UNL     1       2.001  12.509  20.924  0.00  0.00    +0.000 OA
ATOM     20  H   UNL     1      -2.087  13.463  18.497  0.00  0.00    +0.000 HD
ENDROOT
BRANCH  17  21
ATOM     21  C   UNL     1       0.629  10.190  19.723  0.00  0.00    +0.000 A 
ATOM     22  C   UNL     1       0.507   9.417  20.890  0.00  0.00    +0.000 A 
ATOM     23  C   UNL     1       1.133   8.173  21.005  0.00  0.00    +0.000 A 
ATOM     24  C   UNL     1       1.887   7.684  19.953  0.00  0.00    +0.000 A 
ATOM     25  F   UNL     1       2.539   6.523  20.088  0.00  0.00    +0.000 F 
ATOM     26  C   UNL     1       1.987   8.394  18.767  0.00  0.00    +0.000 A 
ATOM     27  C   UNL     1       1.341   9.628  18.643  0.00  0.00    +0.000 A 
ENDBRANCH  17  21
BRANCH   1  29
ATOM     28  C   UNL     1      -6.291  12.331  24.334  0.00  0.00    +0.000 C 
ATOM     29  O   UNL     1      -4.983  11.999  24.780  0.00  0.00    +0.000 OA
ENDBRANCH   1  29
TORSDOF 2
ENDMDL
MODEL 3
REMARK VINA RESULT:      -7.8      9.554     13.587
REMARK  Name = 
REMARK  4 active torsions:
REMARK  status: ('A' for Active; 'I' for Inactive)
REMARK    1  A    between atoms: C_1  and  O_2
REMARK    2  A    between atoms: O_2  and  C_3
REMARK    3  A    between atoms: N_12  and  C_13
REMARK    4  A    between atoms: N_19  and  C_20
REMARK                            x       y       z     vdW  Elec       q    Type
REMARK                         _______ _______ _______ _____ _____    ______ ____
ROOT
ATOM      1  C   UNL     1      -3.114  11.005  17.894  0.00  0.00    +0.000 A 
ATOM      2  C   UNL     1      -1.871  10.401  17.759  0.00  0.00    +0.000 A 
ATOM      3  C   UNL     1      -0.834  10.687  18.666  0.00  0.00    +0.000 A 
ATOM      4  C   UNL     1      -1.004  11.579  19.730  0.00  0.00    +0.000 A 
ATOM      5  C   UNL     1      -2.280  12.148  19.861  0.00  0.00    +0.000 A 
ATOM      6  C   UNL     1      -3.312  11.880  18.946  0.00  0.00    +0.000 A 
ATOM      7  C   UNL     1      -2.570  13.098  20.974  0.00  0.00    +0.000 C 
ATOM      8  C   UNL     1      -1.660  12.893  22.191  0.00  0.00    +0.000 C 
ATOM      9  C   UNL     1      -0.214  12.891  21.697  0.00  0.00    +0.000 C 
ATOM     10  N   UNL     1       0.010  11.900  20.623  0.00  0.00    +0.000 N 
ATOM     11  C   UNL     1       1.227  11.096  20.684  0.00  0.00    +0.000 C 
ATOM     12  C   UNL     1      -1.950  11.630  22.973  0.00  0.00    +0.000 C 
ATOM     13  O   UNL     1      -1.177  10.700  23.151  0.00  0.00    +0.000 OA
ATOM     14  N   UNL     1      -3.163  11.627  23.604  0.00  0.00    +0.000 N 
ATOM     15  C   UNL     1      -3.727  12.746  24.150  0.00  0.00    +0.000 C 
ATOM     16  O   UNL     1      -4.528  12.572  25.064  0.00  0.00    +0.000 OA
ATOM     17  N   UNL     1      -3.290  13.969  23.636  0.00  0.00    +0.000 N 
ATOM     18  C   UNL     1      -2.004  14.070  23.079  0.00  0.00    +0.000 C 
ATOM     19  O   UNL     1      -1.262  15.045  23.203  0.00  0.00    +0.000 OA
ATOM     20  H   UNL     1      -3.379  10.778  24.106  0.00  0.00    +0.000 HD
ENDROOT
BRANCH  17  21
ATOM     21  C   UNL     1      -4.189  15.096  23.570  0.00  0.00    +0.000 A 
ATOM     22  C   UNL     1      -4.234  16.081  24.570  0.00  0.00    +0.000 A 
ATOM     23  C   UNL     1      -5.292  16.993  24.644  0.00  0.00    +0.000 A 
ATOM     24  C   UNL     1      -6.316  16.932  23.716  0.00  0.00    +0.000 A 
ATOM     25  F   UNL     1      -7.360  17.762  23.825  0.00  0.00    +0.000 F 
ATOM     26  C   UNL     1      -6.280  16.007  22.684  0.00  0.00    +0.000 A 
ATOM     27  C   UNL     1      -5.209  15.111  22.596  0.00  0.00    +0.000 A 
ENDBRANCH  17  21
BRANCH   1  29
ATOM     28  C   UNL     1      -5.152  11.881  17.076  0.00  0.00    +0.000 C 
ATOM     29  O   UNL     1      -4.198  10.826  17.082  0.00  0.00    +0.000 OA
ENDBRANCH   1  29
TORSDOF 2
ENDMDL
MODEL 4
REMARK VINA RESULT:      -7.8      7.680     11.056
REMARK  Name = 
REMARK  4 active torsions:
REMARK  status: ('A' for Active; 'I' for Inactive)
REMARK    1  A    between atoms: C_1  and  O_2
REMARK    2  A    between atoms: O_2  and  C_3
REMARK    3  A    between atoms: N_12  and  C_13
REMARK    4  A    between atoms: N_19  and  C_20
REMARK                            x       y       z     vdW  Elec       q    Type
REMARK                         _______ _______ _______ _____ _____    ______ ____
ROOT
ATOM      1  C   UNL     1      -6.468  12.631  21.575  0.00  0.00    +0.000 A 
ATOM      2  C   UNL     1      -6.641  13.250  22.807  0.00  0.00    +0.000 A 
ATOM      3  C   UNL     1      -5.528  13.638  23.575  0.00  0.00    +0.000 A 
ATOM      4  C   UNL     1      -4.215  13.423  23.141  0.00  0.00    +0.000 A 
ATOM      5  C   UNL     1      -4.072  12.828  21.879  0.00  0.00    +0.000 A 
ATOM      6  C   UNL     1      -5.179  12.421  21.118  0.00  0.00    +0.000 A 
ATOM      7  C   UNL     1      -2.713  12.573  21.317  0.00  0.00    +0.000 C 
ATOM      8  C   UNL     1      -1.644  13.518  21.879  0.00  0.00    +0.000 C 
ATOM      9  C   UNL     1      -1.737  13.472  23.404  0.00  0.00    +0.000 C 
ATOM     10  N   UNL     1      -3.099  13.773  23.891  0.00  0.00    +0.000 N 
ATOM     11  C   UNL     1      -3.229  14.657  25.045  0.00  0.00    +0.000 C 
ATOM     12  C   UNL     1      -1.760  14.945  21.388  0.00  0.00    +0.000 C 
ATOM     13  O   UNL     1      -1.957  15.931  22.081  0.00  0.00    +0.000 OA
ATOM     14  N   UNL     1      -1.509  15.100  20.053  0.00  0.00    +0.000 N 
ATOM     15  C   UNL     1      -0.578  14.366  19.374  0.00  0.00    +0.000 C 
ATOM     16  O   UNL     1      -0.102  14.874  18.362  0.00  0.00    +0.000 OA
ATOM     17  N   UNL     1      -0.234  13.135  19.938  0.00  0.00    +0.000 N 
ATOM     18  C   UNL     1      -0.355  12.947  21.325  0.00  0.00    +0.000 C 
ATOM     19  O   UNL     1       0.435  12.304  22.017  0.00  0.00    +0.000 OA
ATOM     20  H   UNL     1      -1.612  16.044  19.708  0.00  0.00    +0.000 HD
ENDROOT
BRANCH  17  21
ATOM     21  C   UNL     1       0.135  12.024  19.095  0.00  0.00    +0.000 A 
ATOM     22  C   UNL     1      -0.781  11.029  18.717  0.00  0.00    +0.000 A 
ATOM     23  C   UNL     1      -0.354   9.823  18.154  0.00  0.00    +0.000 A 
ATOM     24  C   UNL     1       0.997   9.597  17.960  0.00  0.00    +0.000 A 
ATOM     25  F   UNL     1       1.410   8.418  17.482  0.00  0.00    +0.000 F 
ATOM     26  C   UNL     1       1.928  10.576  18.272  0.00  0.00    +0.000 A 
ATOM     27  C   UNL     1       1.498  11.792  18.812  0.00  0.00    +0.000 A 
ENDBRANCH  17  21
BRANCH   1  29
ATOM     28  C   UNL     1      -7.344  10.849  20.292  0.00  0.00    +0.000 C 
ATOM     29  O   UNL     1      -7.455  12.195  20.737  0.00  0.00    +0.000 OA
ENDBRANCH   1  29
TORSDOF 2
ENDMDL
MODEL 5
REMARK VINA RESULT:      -7.8      4.563      7.014
REMARK  Name = 
REMARK  4 active torsions:
REMARK  status: ('A' for Active; 'I' for Inactive)
REMARK    1  A    between atoms: C_1  and  O_2
REMARK    2  A    between atoms: O_2  and  C_3
REMARK    3  A    between atoms: N_12  and  C_13
REMARK    4  A    between atoms: N_19  and  C_20
REMARK                            x       y       z     vdW  Elec       q    Type
REMARK                         _______ _______ _______ _____ _____    ______ ____
ROOT
ATOM      1  C   UNL     1      -2.851  10.315  16.338  0.00  0.00    +0.000 A 
ATOM      2  C   UNL     1      -2.921  11.627  16.790  0.00  0.00    +0.000 A 
ATOM      3  C   UNL     1      -2.105  12.063  17.849  0.00  0.00    +0.000 A 
ATOM      4  C   UNL     1      -1.197  11.210  18.487  0.00  0.00    +0.000 A 
ATOM      5  C   UNL     1      -1.124   9.902  17.987  0.00  0.00    +0.000 A 
ATOM      6  C   UNL     1      -1.951   9.456  16.943  0.00  0.00    +0.000 A 
ATOM      7  C   UNL     1      -0.174   8.919  18.587  0.00  0.00    +0.000 C 
ATOM      8  C   UNL     1       1.033   9.585  19.259  0.00  0.00    +0.000 C 
ATOM      9  C   UNL     1       0.503  10.648  20.221  0.00  0.00    +0.000 C 
ATOM     10  N   UNL     1      -0.399  11.609  19.552  0.00  0.00    +0.000 N 
ATOM     11  C   UNL     1      -0.243  13.024  19.874  0.00  0.00    +0.000 C 
ATOM     12  C   UNL     1       2.020  10.198  18.290  0.00  0.00    +0.000 C 
ATOM     13  O   UNL     1       2.326  11.379  18.225  0.00  0.00    +0.000 OA
ATOM     14  N   UNL     1       2.678   9.288  17.510  0.00  0.00    +0.000 N 
ATOM     15  C   UNL     1       3.049   8.050  17.952  0.00  0.00    +0.000 C 
ATOM     16  O   UNL     1       4.003   7.522  17.387  0.00  0.00    +0.000 OA
ATOM     17  N   UNL     1       2.329   7.542  19.036  0.00  0.00    +0.000 N 
ATOM     18  C   UNL     1       1.725   8.426  19.946  0.00  0.00    +0.000 C 
ATOM     19  O   UNL     1       1.665   8.246  21.163  0.00  0.00    +0.000 OA
ATOM     20  H   UNL     1       3.319   9.688  16.840  0.00  0.00    +0.000 HD
ENDROOT
BRANCH  17  21
ATOM     21  C   UNL     1       2.105   6.122  19.163  0.00  0.00    +0.000 A 
ATOM     22  C   UNL     1       1.960   5.281  18.048  0.00  0.00    +0.000 A 
ATOM     23  C   UNL     1       1.461   3.982  18.177  0.00  0.00    +0.000 A 
ATOM     24  C   UNL     1       1.101   3.507  19.426  0.00  0.00    +0.000 A 
ATOM     25  F   UNL     1       0.562   2.287  19.541  0.00  0.00    +0.000 F 
ATOM     26  C   UNL     1       1.278   4.289  20.556  0.00  0.00    +0.000 A 
ATOM     27  C   UNL     1       1.801   5.579  20.429  0.00  0.00    +0.000 A 
ENDBRANCH  17  21
BRANCH   1  29
ATOM     28  C   UNL     1      -3.173  10.071  14.009  0.00  0.00    +0.000 C 
ATOM     29  O   UNL     1      -3.589   9.759  15.332  0.00  0.00    +0.000 OA
ENDBRANCH   1  29
TORSDOF 2
ENDMDL
MODEL 6
REMARK VINA RESULT:      -7.5      9.283     12.645
REMARK  Name = 
REMARK  4 active torsions:
REMARK  status: ('A' for Active; 'I' for Inactive)
REMARK    1  A    between atoms: C_1  and  O_2
REMARK    2  A    between atoms: O_2  and  C_3
REMARK    3  A    between atoms: N_12  and  C_13
REMARK    4  A    between atoms: N_19  and  C_20
REMARK                            x       y       z     vdW  Elec       q    Type
REMARK                         _______ _______ _______ _____ _____    ______ ____
ROOT
ATOM      1  C   UNL     1      -6.853  13.459  18.396  0.00  0.00    +0.000 A 
ATOM      2  C   UNL     1      -7.912  14.058  19.066  0.00  0.00    +0.000 A 
ATOM      3  C   UNL     1      -7.896  14.178  20.468  0.00  0.00    +0.000 A 
ATOM      4  C   UNL     1      -6.829  13.707  21.241  0.00  0.00    +0.000 A 
ATOM      5  C   UNL     1      -5.759  13.136  20.534  0.00  0.00    +0.000 A 
ATOM      6  C   UNL     1      -5.780  12.998  19.137  0.00  0.00    +0.000 A 
ATOM      7  C   UNL     1      -4.565  12.620  21.265  0.00  0.00    +0.000 C 
ATOM      8  C   UNL     1      -4.352  13.300  22.623  0.00  0.00    +0.000 C 
ATOM      9  C   UNL     1      -5.669  13.224  23.394  0.00  0.00    +0.000 C 
ATOM     10  N   UNL     1      -6.800  13.788  22.627  0.00  0.00    +0.000 N 
ATOM     11  C   UNL     1      -7.746  14.641  23.340  0.00  0.00    +0.000 C 
ATOM     12  C   UNL     1      -3.880  14.735  22.529  0.00  0.00    +0.000 C 
ATOM     13  O   UNL     1      -4.473  15.717  22.949  0.00  0.00    +0.000 OA
ATOM     14  N   UNL     1      -2.622  14.878  22.012  0.00  0.00    +0.000 N 
ATOM     15  C   UNL     1      -1.611  13.987  22.241  0.00  0.00    +0.000 C 
ATOM     16  O   UNL     1      -0.463  14.417  22.155  0.00  0.00    +0.000 OA
ATOM     17  N   UNL     1      -1.999  12.693  22.597  0.00  0.00    +0.000 N 
ATOM     18  C   UNL     1      -3.231  12.489  23.240  0.00  0.00    +0.000 C 
ATOM     19  O   UNL     1      -3.424  11.671  24.140  0.00  0.00    +0.000 OA
ATOM     20  H   UNL     1      -2.307  15.833  21.918  0.00  0.00    +0.000 HD
ENDROOT
BRANCH  17  21
ATOM     21  C   UNL     1      -1.199  11.558  22.208  0.00  0.00    +0.000 A 
ATOM     22  C   UNL     1      -0.976  11.220  20.863  0.00  0.00    +0.000 A 
ATOM     23  C   UNL     1      -0.454   9.974  20.503  0.00  0.00    +0.000 A 
ATOM     24  C   UNL     1      -0.145   9.050  21.486  0.00  0.00    +0.000 A 
ATOM     25  F   UNL     1       0.293   7.834  21.139  0.00  0.00    +0.000 F 
ATOM     26  C   UNL     1      -0.303   9.367  22.826  0.00  0.00    +0.000 A 
ATOM     27  C   UNL     1      -0.801  10.623  23.186  0.00  0.00    +0.000 A 
ENDBRANCH  17  21
BRANCH   1  29
ATOM     28  C   UNL     1      -6.943  14.421  16.239  0.00  0.00    +0.000 C 
ATOM     29  O   UNL     1      -6.746  13.269  17.048  0.00  0.00    +0.000 OA
ENDBRANCH   1  29
TORSDOF 2
ENDMDL
MODEL 7
REMARK VINA RESULT:      -7.5      5.363      8.539
REMARK  Name = 
REMARK  4 active torsions:
REMARK  status: ('A' for Active; 'I' for Inactive)
REMARK    1  A    between atoms: C_1  and  O_2
REMARK    2  A    between atoms: O_2  and  C_3
REMARK    3  A    between atoms: N_12  and  C_13
REMARK    4  A    between atoms: N_19  and  C_20
REMARK                            x       y       z     vdW  Elec       q    Type
REMARK                         _______ _______ _______ _____ _____    ______ ____
ROOT
ATOM      1  C   UNL     1      -4.136  10.631  15.834  0.00  0.00    +0.000 A 
ATOM      2  C   UNL     1      -5.001  11.529  16.446  0.00  0.00    +0.000 A 
ATOM      3  C   UNL     1      -4.723  12.028  17.731  0.00  0.00    +0.000 A 
ATOM      4  C   UNL     1      -3.578  11.651  18.442  0.00  0.00    +0.000 A 
ATOM      5  C   UNL     1      -2.706  10.770  17.785  0.00  0.00    +0.000 A 
ATOM      6  C   UNL     1      -2.990  10.254  16.510  0.00  0.00    +0.000 A 
ATOM      7  C   UNL     1      -1.448  10.321  18.451  0.00  0.00    +0.000 C 
ATOM      8  C   UNL     1      -0.936  11.315  19.500  0.00  0.00    +0.000 C 
ATOM      9  C   UNL     1      -2.094  11.632  20.445  0.00  0.00    +0.000 C 
ATOM     10  N   UNL     1      -3.293  12.108  19.722  0.00  0.00    +0.000 N 
ATOM     11  C   UNL     1      -4.019  13.243  20.284  0.00  0.00    +0.000 C 
ATOM     12  C   UNL     1      -0.368  12.591  18.918  0.00  0.00    +0.000 C 
ATOM     13  O   UNL     1      -0.790  13.722  19.112  0.00  0.00    +0.000 OA
ATOM     14  N   UNL     1       0.783  12.417  18.202  0.00  0.00    +0.000 N 
ATOM     15  C   UNL     1       1.739  11.497  18.531  0.00  0.00    +0.000 C 
ATOM     16  O   UNL     1       2.885  11.729  18.154  0.00  0.00    +0.000 OA
ATOM     17  N   UNL     1       1.313  10.417  19.307  0.00  0.00    +0.000 N 
ATOM     18  C   UNL     1       0.204  10.564  20.156  0.00  0.00    +0.000 C 
ATOM     19  O   UNL     1       0.107  10.061  21.276  0.00  0.00    +0.000 OA
ATOM     20  H   UNL     1       1.156  13.258  17.785  0.00  0.00    +0.000 HD
ENDROOT
BRANCH  17  21
ATOM     21  C   UNL     1       1.931   9.121  19.156  0.00  0.00    +0.000 A 
ATOM     22  C   UNL     1       2.435   8.667  17.926  0.00  0.00    +0.000 A 
ATOM     23  C   UNL     1       2.760   7.322  17.726  0.00  0.00    +0.000 A 
ATOM     24  C   UNL     1       2.586   6.414  18.756  0.00  0.00    +0.000 A 
ATOM     25  F   UNL     1       2.835   5.116  18.544  0.00  0.00    +0.000 F 
ATOM     26  C   UNL     1       2.140   6.834  19.999  0.00  0.00    +0.000 A 
ATOM     27  C   UNL     1       1.839   8.184  20.206  0.00  0.00    +0.000 A 
ENDBRANCH  17  21
BRANCH   1  29
ATOM     28  C   UNL     1      -3.107   9.934  13.822  0.00  0.00    +0.000 C 
ATOM     29  O   UNL     1      -4.290  10.063  14.601  0.00  0.00    +0.000 OA
ENDBRANCH   1  29
TORSDOF 2
ENDMDL
MODEL 8
REMARK VINA RESULT:      -7.5      6.990     10.592
REMARK  Name = 
REMARK  4 active torsions:
REMARK  status: ('A' for Active; 'I' for Inactive)
REMARK    1  A    between atoms: C_1  and  O_2
REMARK    2  A    between atoms: O_2  and  C_3
REMARK    3  A    between atoms: N_12  and  C_13
REMARK    4  A    between atoms: N_19  and  C_20
REMARK                            x       y       z     vdW  Elec       q    Type
REMARK                         _______ _______ _______ _____ _____    ______ ____
ROOT
ATOM      1  C   UNL     1       0.536  10.549  18.833  0.00  0.00    +0.000 A 
ATOM      2  C   UNL     1      -0.439  10.565  19.822  0.00  0.00    +0.000 A 
ATOM      3  C   UNL     1      -0.465  11.590  20.785  0.00  0.00    +0.000 A 
ATOM      4  C   UNL     1       0.474  12.628  20.790  0.00  0.00    +0.000 A 
ATOM      5  C   UNL     1       1.426  12.604  19.759  0.00  0.00    +0.000 A 
ATOM      6  C   UNL     1       1.467  11.572  18.808  0.00  0.00    +0.000 A 
ATOM      7  C   UNL     1       2.460  13.676  19.666  0.00  0.00    +0.000 C 
ATOM      8  C   UNL     1       2.020  14.993  20.315  0.00  0.00    +0.000 C 
ATOM      9  C   UNL     1       1.538  14.677  21.730  0.00  0.00    +0.000 C 
ATOM     10  N   UNL     1       0.487  13.637  21.744  0.00  0.00    +0.000 N 
ATOM     11  C   UNL     1      -0.661  13.842  22.623  0.00  0.00    +0.000 C 
ATOM     12  C   UNL     1       0.946  15.733  19.547  0.00  0.00    +0.000 C 
ATOM     13  O   UNL     1      -0.174  16.002  19.953  0.00  0.00    +0.000 OA
ATOM     14  N   UNL     1       1.355  16.213  18.334  0.00  0.00    +0.000 N 
ATOM     15  C   UNL     1       2.615  16.688  18.101  0.00  0.00    +0.000 C 
ATOM     16  O   UNL     1       2.741  17.500  17.187  0.00  0.00    +0.000 OA
ATOM     17  N   UNL     1       3.614  16.233  18.964  0.00  0.00    +0.000 N 
ATOM     18  C   UNL     1       3.278  15.835  20.269  0.00  0.00    +0.000 C 
ATOM     19  O   UNL     1       3.968  16.049  21.266  0.00  0.00    +0.000 OA
ATOM     20  H   UNL     1       0.639  16.684  17.799  0.00  0.00    +0.000 HD
ENDROOT
BRANCH  17  21
ATOM     21  C   UNL     1       4.966  16.060  18.490  0.00  0.00    +0.000 A 
ATOM     22  C   UNL     1       5.409  14.866  17.899  0.00  0.00    +0.000 A 
ATOM     23  C   UNL     1       6.771  14.609  17.714  0.00  0.00    +0.000 A 
ATOM     24  C   UNL     1       7.707  15.546  18.116  0.00  0.00    +0.000 A 
ATOM     25  F   UNL     1       9.012  15.272  17.998  0.00  0.00    +0.000 F 
ATOM     26  C   UNL     1       7.306  16.758  18.655  0.00  0.00    +0.000 A 
ATOM     27  C   UNL     1       5.942  17.025  18.817  0.00  0.00    +0.000 A 
ENDBRANCH  17  21
BRANCH   1  29
ATOM     28  C   UNL     1       1.934   8.938  17.815  0.00  0.00    +0.000 C 
ATOM     29  O   UNL     1       0.683   9.613  17.849  0.00  0.00    +0.000 OA
ENDBRANCH   1  29
TORSDOF 2
ENDMDL
MODEL 9
REMARK VINA RESULT:      -7.4      9.254     12.745
REMARK  Name = 
REMARK  4 active torsions:
REMARK  status: ('A' for Active; 'I' for Inactive)
REMARK    1  A    between atoms: C_1  and  O_2
REMARK    2  A    between atoms: O_2  and  C_3
REMARK    3  A    between atoms: N_12  and  C_13
REMARK    4  A    between atoms: N_19  and  C_20
REMARK                            x       y       z     vdW  Elec       q    Type
REMARK                         _______ _______ _______ _____ _____    ______ ____
ROOT
ATOM      1  C   UNL     1      -6.888  14.055  18.778  0.00  0.00    +0.000 A 
ATOM      2  C   UNL     1      -7.917  14.646  19.501  0.00  0.00    +0.000 A 
ATOM      3  C   UNL     1      -7.910  14.620  20.907  0.00  0.00    +0.000 A 
ATOM      4  C   UNL     1      -6.883  14.007  21.633  0.00  0.00    +0.000 A 
ATOM      5  C   UNL     1      -5.842  13.447  20.877  0.00  0.00    +0.000 A 
ATOM      6  C   UNL     1      -5.854  13.454  19.473  0.00  0.00    +0.000 A 
ATOM      7  C   UNL     1      -4.690  12.786  21.558  0.00  0.00    +0.000 C 
ATOM      8  C   UNL     1      -4.452  13.308  22.980  0.00  0.00    +0.000 C 
ATOM      9  C   UNL     1      -5.780  13.235  23.731  0.00  0.00    +0.000 C 
ATOM     10  N   UNL     1      -6.865  13.944  23.021  0.00  0.00    +0.000 N 
ATOM     11  C   UNL     1      -7.767  14.775  23.813  0.00  0.00    +0.000 C 
ATOM     12  C   UNL     1      -3.892  14.713  23.037  0.00  0.00    +0.000 C 
ATOM     13  O   UNL     1      -4.430  15.682  23.553  0.00  0.00    +0.000 OA
ATOM     14  N   UNL     1      -2.622  14.831  22.545  0.00  0.00    +0.000 N 
ATOM     15  C   UNL     1      -1.670  13.861  22.686  0.00  0.00    +0.000 C 
ATOM     16  O   UNL     1      -0.497  14.226  22.651  0.00  0.00    +0.000 OA
ATOM     17  N   UNL     1      -2.141  12.564  22.905  0.00  0.00    +0.000 N 
ATOM     18  C   UNL     1      -3.390  12.371  23.516  0.00  0.00    +0.000 C 
ATOM     19  O   UNL     1      -3.643  11.478  24.326  0.00  0.00    +0.000 OA
ATOM     20  H   UNL     1      -2.249  15.769  22.552  0.00  0.00    +0.000 HD
ENDROOT
BRANCH  17  21
ATOM     21  C   UNL     1      -1.406  11.427  22.404  0.00  0.00    +0.000 A 
ATOM     22  C   UNL     1      -0.829  10.470  23.255  0.00  0.00    +0.000 A 
ATOM     23  C   UNL     1       0.112   9.551  22.783  0.00  0.00    +0.000 A 
ATOM     24  C   UNL     1       0.488   9.576  21.452  0.00  0.00    +0.000 A 
ATOM     25  F   UNL     1       1.437   8.740  21.014  0.00  0.00    +0.000 F 
ATOM     26  C   UNL     1      -0.097  10.472  20.571  0.00  0.00    +0.000 A 
ATOM     27  C   UNL     1      -1.058  11.375  21.038  0.00  0.00    +0.000 A 
ENDBRANCH  17  21
BRANCH   1  29
ATOM     28  C   UNL     1      -6.226  12.799  16.888  0.00  0.00    +0.000 C 
ATOM     29  O   UNL     1      -6.777  13.998  17.418  0.00  0.00    +0.000 OA
ENDBRANCH   1  29
TORSDOF 2
ENDMDL
