MODEL 1
REMARK VINA RESULT:      -8.3      0.000      0.000
REMARK  Name = 
REMARK  8 active torsions:
REMARK  status: ('A' for Active; 'I' for Inactive)
REMARK    1  A    between atoms: C_1  and  C_2
REMARK    2  A    between atoms: C_2  and  O_3
REMARK    3  A    between atoms: C_2  and  C_15
REMARK    4  A    between atoms: O_3  and  C_4
REMARK    5  A    between atoms: C_4  and  C_6
REMARK    6  A    between atoms: N_17  and  C_18
REMARK    7  A    between atoms: C_21  and  S_22
REMARK    8  A    between atoms: S_22  and  N_23
REMARK                            x       y       z     vdW  Elec       q    Type
REMARK                         _______ _______ _______ _____ _____    ______ ____
ROOT
ATOM      1  C   UNL     1       1.901   4.314  19.639  0.00  0.00    +0.000 C 
ATOM      2  O   UNL     1       1.122   4.314  18.687  0.00  0.00    +0.000 OA
ATOM      3  N   UNL     1       2.428   5.453  20.233  0.00  0.00    +0.000 N 
ATOM      4  H   UNL     1       3.174   5.316  20.913  0.00  0.00    +0.000 HD
ENDROOT
BRANCH   3   5
ATOM      5  C   UNL     1       2.082   6.783  19.910  0.00  0.00    +0.000 A 
ATOM      6  C   UNL     1       2.392   7.363  18.675  0.00  0.00    +0.000 A 
ATOM      7  C   UNL     1       2.064   8.688  18.403  0.00  0.00    +0.000 A 
ATOM      8  C   UNL     1       1.404   9.444  19.370  0.00  0.00    +0.000 A 
ATOM      9  C   UNL     1       1.069   8.880  20.603  0.00  0.00    +0.000 A 
ATOM     10  C   UNL     1       1.395   7.540  20.864  0.00  0.00    +0.000 A 
BRANCH   8  11
ATOM     11  S   UNL     1       1.045  11.143  19.023  0.00  0.00    +0.000 S 
ATOM     12  O   UNL     1      -0.258  11.232  18.406  0.00  0.00    +0.000 OA
ATOM     13  O   UNL     1       1.428  11.952  20.156  0.00  0.00    +0.000 OA
BRANCH  11  14
ATOM     14  N   UNL     1       2.156  11.479  17.812  0.00  0.00    +0.000 NA
ATOM     15  H   UNL     1       1.760  11.234  16.905  0.00  0.00    +0.000 HD
ATOM     16  H   UNL     1       2.462  12.449  17.885  0.00  0.00    +0.000 HD
ENDBRANCH  11  14
ENDBRANCH   8  11
ENDBRANCH   3   5
BRANCH   1  18
ATOM     17  C   UNL     1       2.363   3.095  21.771  0.00  0.00    +0.000 C 
ATOM     18  C   UNL     1       2.411   2.991  20.247  0.00  0.00    +0.000 C 
BRANCH  18  19
ATOM     19  O   UNL     1       3.777   2.728  19.882  0.00  0.00    +0.000 OA
BRANCH  19  20
ATOM     20  C   UNL     1       4.046   2.688  18.555  0.00  0.00    +0.000 C 
ATOM     21  O   UNL     1       3.673   1.808  17.792  0.00  0.00    +0.000 OA
BRANCH  20  22
ATOM     22  C   UNL     1       4.782   3.912  18.122  0.00  0.00    +0.000 A 
ATOM     23  C   UNL     1       4.442   4.606  16.940  0.00  0.00    +0.000 A 
ATOM     24  C   UNL     1       5.214   5.684  16.494  0.00  0.00    +0.000 A 
ATOM     25  C   UNL     1       6.306   6.070  17.250  0.00  0.00    +0.000 A 
ATOM     26  C   UNL     1       6.627   5.417  18.445  0.00  0.00    +0.000 A 
ATOM     27  C   UNL     1       5.881   4.334  18.889  0.00  0.00    +0.000 A 
ATOM     28  C   UNL     1       7.863   6.006  19.054  0.00  0.00    +0.000 C 
ATOM     29  C   UNL     1       7.955   7.348  18.310  0.00  0.00    +0.000 C 
ATOM     30  C   UNL     1       7.325   7.121  16.929  0.00  0.00    +0.000 C 
ENDBRANCH  20  22
ENDBRANCH  19  20
ENDBRANCH  18  19
ENDBRANCH   1  18
TORSDOF 7
ENDMDL
MODEL 2
REMARK VINA RESULT:      -7.9      0.851      1.349
REMARK  Name = 
REMARK  8 active torsions:
REMARK  status: ('A' for Active; 'I' for Inactive)
REMARK    1  A    between atoms: C_1  and  C_2
REMARK    2  A    between atoms: C_2  and  O_3
REMARK    3  A    between atoms: C_2  and  C_15
REMARK    4  A    between atoms: O_3  and  C_4
REMARK    5  A    between atoms: C_4  and  C_6
REMARK    6  A    between atoms: N_17  and  C_18
REMARK    7  A    between atoms: C_21  and  S_22
REMARK    8  A    between atoms: S_22  and  N_23
REMARK                            x       y       z     vdW  Elec       q    Type
REMARK                         _______ _______ _______ _____ _____    ______ ____
ROOT
ATOM      1  C   UNL     1       1.655   4.148  20.085  0.00  0.00    +0.000 C 
ATOM      2  O   UNL     1       0.445   4.206  19.874  0.00  0.00    +0.000 OA
ATOM      3  N   UNL     1       2.510   5.241  20.110  0.00  0.00    +0.000 N 
ATOM      4  H   UNL     1       3.510   5.047  20.147  0.00  0.00    +0.000 HD
ENDROOT
BRANCH   3   5
ATOM      5  C   UNL     1       2.118   6.593  19.998  0.00  0.00    +0.000 A 
ATOM      6  C   UNL     1       1.464   7.276  21.030  0.00  0.00    +0.000 A 
ATOM      7  C   UNL     1       1.064   8.600  20.871  0.00  0.00    +0.000 A 
ATOM      8  C   UNL     1       1.330   9.259  19.673  0.00  0.00    +0.000 A 
ATOM      9  C   UNL     1       1.997   8.602  18.636  0.00  0.00    +0.000 A 
ATOM     10  C   UNL     1       2.406   7.271  18.809  0.00  0.00    +0.000 A 
BRANCH   8  11
ATOM     11  S   UNL     1       0.763  10.925  19.474  0.00  0.00    +0.000 S 
ATOM     12  O   UNL     1       1.652  11.619  18.572  0.00  0.00    +0.000 OA
ATOM     13  O   UNL     1      -0.671  10.924  19.307  0.00  0.00    +0.000 OA
BRANCH  11  14
ATOM     14  N   UNL     1       1.057  11.562  20.997  0.00  0.00    +0.000 NA
ATOM     15  H   UNL     1       1.418  10.833  21.611  0.00  0.00    +0.000 HD
ATOM     16  H   UNL     1       1.663  12.379  20.917  0.00  0.00    +0.000 HD
ENDBRANCH  11  14
ENDBRANCH   8  11
ENDBRANCH   3   5
BRANCH   1  18
ATOM     17  C   UNL     1       2.516   2.552  21.806  0.00  0.00    +0.000 C 
ATOM     18  C   UNL     1       2.359   2.792  20.304  0.00  0.00    +0.000 C 
BRANCH  18  19
ATOM     19  O   UNL     1       3.678   2.777  19.732  0.00  0.00    +0.000 OA
BRANCH  19  20
ATOM     20  C   UNL     1       3.750   2.919  18.386  0.00  0.00    +0.000 C 
ATOM     21  O   UNL     1       3.138   2.236  17.577  0.00  0.00    +0.000 OA
BRANCH  20  22
ATOM     22  C   UNL     1       4.603   4.086  18.017  0.00  0.00    +0.000 A 
ATOM     23  C   UNL     1       4.383   4.825  16.834  0.00  0.00    +0.000 A 
ATOM     24  C   UNL     1       5.262   5.844  16.451  0.00  0.00    +0.000 A 
ATOM     25  C   UNL     1       6.341   6.126  17.269  0.00  0.00    +0.000 A 
ATOM     26  C   UNL     1       6.545   5.429  18.465  0.00  0.00    +0.000 A 
ATOM     27  C   UNL     1       5.692   4.403  18.847  0.00  0.00    +0.000 A 
ATOM     28  C   UNL     1       7.791   5.904  19.148  0.00  0.00    +0.000 C 
ATOM     29  C   UNL     1       8.030   7.247  18.439  0.00  0.00    +0.000 C 
ATOM     30  C   UNL     1       7.457   7.096  17.023  0.00  0.00    +0.000 C 
ENDBRANCH  20  22
ENDBRANCH  19  20
ENDBRANCH  18  19
ENDBRANCH   1  18
TORSDOF 7
ENDMDL
MODEL 3
REMARK VINA RESULT:      -7.7      0.940      1.105
REMARK  Name = 
REMARK  8 active torsions:
REMARK  status: ('A' for Active; 'I' for Inactive)
REMARK    1  A    between atoms: C_1  and  C_2
REMARK    2  A    between atoms: C_2  and  O_3
REMARK    3  A    between atoms: C_2  and  C_15
REMARK    4  A    between atoms: O_3  and  C_4
REMARK    5  A    between atoms: C_4  and  C_6
REMARK    6  A    between atoms: N_17  and  C_18
REMARK    7  A    between atoms: C_21  and  S_22
REMARK    8  A    between atoms: S_22  and  N_23
REMARK                            x       y       z     vdW  Elec       q    Type
REMARK                         _______ _______ _______ _____ _____    ______ ____
ROOT
ATOM      1  C   UNL     1       1.661   4.252  20.158  0.00  0.00    +0.000 C 
ATOM      2  O   UNL     1       0.474   4.265  19.836  0.00  0.00    +0.000 OA
ATOM      3  N   UNL     1       2.461   5.379  20.285  0.00  0.00    +0.000 N 
ATOM      4  H   UNL     1       3.461   5.225  20.411  0.00  0.00    +0.000 HD
ENDROOT
BRANCH   3   5
ATOM      5  C   UNL     1       2.022   6.715  20.165  0.00  0.00    +0.000 A 
ATOM      6  C   UNL     1       2.250   7.483  19.017  0.00  0.00    +0.000 A 
ATOM      7  C   UNL     1       1.830   8.808  18.947  0.00  0.00    +0.000 A 
ATOM      8  C   UNL     1       1.162   9.375  20.029  0.00  0.00    +0.000 A 
ATOM      9  C   UNL     1       0.907   8.623  21.179  0.00  0.00    +0.000 A 
ATOM     10  C   UNL     1       1.325   7.284  21.236  0.00  0.00    +0.000 A 
BRANCH   8  11
ATOM     11  S   UNL     1       0.686  11.079  19.939  0.00  0.00    +0.000 S 
ATOM     12  O   UNL     1       1.052  11.736  21.172  0.00  0.00    +0.000 OA
ATOM     13  O   UNL     1       1.038  11.604  18.642  0.00  0.00    +0.000 OA
BRANCH  11  14
ATOM     14  N   UNL     1      -0.987  10.959  19.957  0.00  0.00    +0.000 NA
ATOM     15  H   UNL     1      -1.385  11.605  19.276  0.00  0.00    +0.000 HD
ATOM     16  H   UNL     1      -1.264   9.987  19.821  0.00  0.00    +0.000 HD
ENDBRANCH  11  14
ENDBRANCH   8  11
ENDBRANCH   3   5
BRANCH   1  18
ATOM     17  C   UNL     1       2.368   2.617  21.912  0.00  0.00    +0.000 C 
ATOM     18  C   UNL     1       2.399   2.922  20.414  0.00  0.00    +0.000 C 
BRANCH  18  19
ATOM     19  O   UNL     1       3.781   2.995  20.024  0.00  0.00    +0.000 OA
BRANCH  19  20
ATOM     20  C   UNL     1       4.033   2.948  18.693  0.00  0.00    +0.000 C 
ATOM     21  O   UNL     1       3.655   2.061  17.941  0.00  0.00    +0.000 OA
BRANCH  20  22
ATOM     22  C   UNL     1       4.754   4.174  18.242  0.00  0.00    +0.000 A 
ATOM     23  C   UNL     1       4.324   4.922  17.125  0.00  0.00    +0.000 A 
ATOM     24  C   UNL     1       5.077   6.002  16.652  0.00  0.00    +0.000 A 
ATOM     25  C   UNL     1       6.243   6.335  17.318  0.00  0.00    +0.000 A 
ATOM     26  C   UNL     1       6.656   5.627  18.452  0.00  0.00    +0.000 A 
ATOM     27  C   UNL     1       5.929   4.542  18.920  0.00  0.00    +0.000 A 
ATOM     28  C   UNL     1       7.957   6.166  18.966  0.00  0.00    +0.000 C 
ATOM     29  C   UNL     1       8.012   7.535  18.270  0.00  0.00    +0.000 C 
ATOM     30  C   UNL     1       7.253   7.378  16.946  0.00  0.00    +0.000 C 
ENDBRANCH  20  22
ENDBRANCH  19  20
ENDBRANCH  18  19
ENDBRANCH   1  18
TORSDOF 7
ENDMDL
MODEL 4
REMARK VINA RESULT:      -7.7      0.677      1.296
REMARK  Name = 
REMARK  8 active torsions:
REMARK  status: ('A' for Active; 'I' for Inactive)
REMARK    1  A    between atoms: C_1  and  C_2
REMARK    2  A    between atoms: C_2  and  O_3
REMARK    3  A    between atoms: C_2  and  C_15
REMARK    4  A    between atoms: O_3  and  C_4
REMARK    5  A    between atoms: C_4  and  C_6
REMARK    6  A    between atoms: N_17  and  C_18
REMARK    7  A    between atoms: C_21  and  S_22
REMARK    8  A    between atoms: S_22  and  N_23
REMARK                            x       y       z     vdW  Elec       q    Type
REMARK                         _______ _______ _______ _____ _____    ______ ____
ROOT
ATOM      1  C   UNL     1       1.677   4.072  19.593  0.00  0.00    +0.000 C 
ATOM      2  O   UNL     1       1.016   4.154  18.560  0.00  0.00    +0.000 OA
ATOM      3  N   UNL     1       2.195   5.153  20.292  0.00  0.00    +0.000 N 
ATOM      4  H   UNL     1       2.848   4.947  21.048  0.00  0.00    +0.000 HD
ENDROOT
BRANCH   3   5
ATOM      5  C   UNL     1       1.967   6.513  19.988  0.00  0.00    +0.000 A 
ATOM      6  C   UNL     1       1.310   7.381  20.867  0.00  0.00    +0.000 A 
ATOM      7  C   UNL     1       1.074   8.709  20.520  0.00  0.00    +0.000 A 
ATOM      8  C   UNL     1       1.511   9.184  19.285  0.00  0.00    +0.000 A 
ATOM      9  C   UNL     1       2.185   8.339  18.399  0.00  0.00    +0.000 A 
ATOM     10  C   UNL     1       2.428   7.005  18.763  0.00  0.00    +0.000 A 
BRANCH   8  11
ATOM     11  S   UNL     1       1.152  10.860  18.842  0.00  0.00    +0.000 S 
ATOM     12  O   UNL     1      -0.158  10.917  18.236  0.00  0.00    +0.000 OA
ATOM     13  O   UNL     1       1.551  11.734  19.920  0.00  0.00    +0.000 OA
BRANCH  11  14
ATOM     14  N   UNL     1       2.249  11.119  17.600  0.00  0.00    +0.000 NA
ATOM     15  H   UNL     1       3.176  10.809  17.890  0.00  0.00    +0.000 HD
ATOM     16  H   UNL     1       1.910  10.679  16.744  0.00  0.00    +0.000 HD
ENDBRANCH  11  14
ENDBRANCH   8  11
ENDBRANCH   3   5
BRANCH   1  18
ATOM     17  C   UNL     1       2.603   2.910  21.603  0.00  0.00    +0.000 C 
ATOM     18  C   UNL     1       2.036   2.699  20.199  0.00  0.00    +0.000 C 
BRANCH  18  19
ATOM     19  O   UNL     1       3.046   2.024  19.431  0.00  0.00    +0.000 OA
BRANCH  19  20
ATOM     20  C   UNL     1       4.331   2.365  19.697  0.00  0.00    +0.000 C 
ATOM     21  O   UNL     1       5.040   1.819  20.531  0.00  0.00    +0.000 OA
BRANCH  20  22
ATOM     22  C   UNL     1       4.803   3.435  18.771  0.00  0.00    +0.000 A 
ATOM     23  C   UNL     1       4.334   3.530  17.442  0.00  0.00    +0.000 A 
ATOM     24  C   UNL     1       4.872   4.471  16.557  0.00  0.00    +0.000 A 
ATOM     25  C   UNL     1       5.859   5.322  17.020  0.00  0.00    +0.000 A 
ATOM     26  C   UNL     1       6.301   5.265  18.346  0.00  0.00    +0.000 A 
ATOM     27  C   UNL     1       5.790   4.324  19.229  0.00  0.00    +0.000 A 
ATOM     28  C   UNL     1       7.389   6.268  18.585  0.00  0.00    +0.000 C 
ATOM     29  C   UNL     1       7.208   7.201  17.376  0.00  0.00    +0.000 C 
ATOM     30  C   UNL     1       6.644   6.334  16.242  0.00  0.00    +0.000 C 
ENDBRANCH  20  22
ENDBRANCH  19  20
ENDBRANCH  18  19
ENDBRANCH   1  18
TORSDOF 7
ENDMDL
MODEL 5
REMARK VINA RESULT:      -7.6      2.277      4.424
REMARK  Name = 
REMARK  8 active torsions:
REMARK  status: ('A' for Active; 'I' for Inactive)
REMARK    1  A    between atoms: C_1  and  C_2
REMARK    2  A    between atoms: C_2  and  O_3
REMARK    3  A    between atoms: C_2  and  C_15
REMARK    4  A    between atoms: O_3  and  C_4
REMARK    5  A    between atoms: C_4  and  C_6
REMARK    6  A    between atoms: N_17  and  C_18
REMARK    7  A    between atoms: C_21  and  S_22
REMARK    8  A    between atoms: S_22  and  N_23
REMARK                            x       y       z     vdW  Elec       q    Type
REMARK                         _______ _______ _______ _____ _____    ______ ____
ROOT
ATOM      1  C   UNL     1       5.307   6.716  17.214  0.00  0.00    +0.000 C 
ATOM      2  O   UNL     1       5.964   7.374  18.018  0.00  0.00    +0.000 OA
ATOM      3  N   UNL     1       3.921   6.643  17.192  0.00  0.00    +0.000 N 
ATOM      4  H   UNL     1       3.504   5.949  16.573  0.00  0.00    +0.000 HD
ENDROOT
BRANCH   3   5
ATOM      5  C   UNL     1       3.047   7.383  18.017  0.00  0.00    +0.000 A 
ATOM      6  C   UNL     1       2.476   8.595  17.614  0.00  0.00    +0.000 A 
ATOM      7  C   UNL     1       1.643   9.313  18.468  0.00  0.00    +0.000 A 
ATOM      8  C   UNL     1       1.362   8.811  19.736  0.00  0.00    +0.000 A 
ATOM      9  C   UNL     1       1.906   7.593  20.153  0.00  0.00    +0.000 A 
ATOM     10  C   UNL     1       2.737   6.871  19.282  0.00  0.00    +0.000 A 
BRANCH   8  11
ATOM     11  S   UNL     1       0.344   9.767  20.825  0.00  0.00    +0.000 S 
ATOM     12  O   UNL     1      -0.452   8.872  21.633  0.00  0.00    +0.000 OA
ATOM     13  O   UNL     1       1.127  10.839  21.391  0.00  0.00    +0.000 OA
BRANCH  11  14
ATOM     14  N   UNL     1      -0.719  10.484  19.745  0.00  0.00    +0.000 NA
ATOM     15  H   UNL     1      -0.668  10.008  18.844  0.00  0.00    +0.000 HD
ATOM     16  H   UNL     1      -1.655  10.512  20.149  0.00  0.00    +0.000 HD
ENDBRANCH  11  14
ENDBRANCH   8  11
ENDBRANCH   3   5
BRANCH   1  18
ATOM     17  C   UNL     1       5.273   6.020  14.813  0.00  0.00    +0.000 C 
ATOM     18  C   UNL     1       6.001   5.845  16.146  0.00  0.00    +0.000 C 
BRANCH  18  19
ATOM     19  O   UNL     1       5.948   4.448  16.479  0.00  0.00    +0.000 OA
BRANCH  19  20
ATOM     20  C   UNL     1       5.978   4.144  17.799  0.00  0.00    +0.000 C 
ATOM     21  O   UNL     1       6.949   4.290  18.528  0.00  0.00    +0.000 OA
BRANCH  20  22
ATOM     22  C   UNL     1       4.637   3.695  18.274  0.00  0.00    +0.000 A 
ATOM     23  C   UNL     1       3.638   3.256  17.378  0.00  0.00    +0.000 A 
ATOM     24  C   UNL     1       2.352   2.946  17.834  0.00  0.00    +0.000 A 
ATOM     25  C   UNL     1       2.086   3.059  19.186  0.00  0.00    +0.000 A 
ATOM     26  C   UNL     1       3.080   3.452  20.089  0.00  0.00    +0.000 A 
ATOM     27  C   UNL     1       4.355   3.781  19.648  0.00  0.00    +0.000 A 
ATOM     28  C   UNL     1       2.532   3.521  21.482  0.00  0.00    +0.000 C 
ATOM     29  C   UNL     1       1.241   2.699  21.339  0.00  0.00    +0.000 C 
ATOM     30  C   UNL     1       0.774   2.877  19.887  0.00  0.00    +0.000 C 
ENDBRANCH  20  22
ENDBRANCH  19  20
ENDBRANCH  18  19
ENDBRANCH   1  18
TORSDOF 7
ENDMDL
MODEL 6
REMARK VINA RESULT:      -7.6      2.322      4.558
REMARK  Name = 
REMARK  8 active torsions:
REMARK  status: ('A' for Active; 'I' for Inactive)
REMARK    1  A    between atoms: C_1  and  C_2
REMARK    2  A    between atoms: C_2  and  O_3
REMARK    3  A    between atoms: C_2  and  C_15
REMARK    4  A    between atoms: O_3  and  C_4
REMARK    5  A    between atoms: C_4  and  C_6
REMARK    6  A    between atoms: N_17  and  C_18
REMARK    7  A    between atoms: C_21  and  S_22
REMARK    8  A    between atoms: S_22  and  N_23
REMARK                            x       y       z     vdW  Elec       q    Type
REMARK                         _______ _______ _______ _____ _____    ______ ____
ROOT
ATOM      1  C   UNL     1       5.304   6.683  17.152  0.00  0.00    +0.000 C 
ATOM      2  O   UNL     1       5.990   7.433  17.845  0.00  0.00    +0.000 OA
ATOM      3  N   UNL     1       3.926   6.550  17.250  0.00  0.00    +0.000 N 
ATOM      4  H   UNL     1       3.496   5.790  16.725  0.00  0.00    +0.000 HD
ENDROOT
BRANCH   3   5
ATOM      5  C   UNL     1       3.084   7.319  18.083  0.00  0.00    +0.000 A 
ATOM      6  C   UNL     1       2.734   6.917  19.377  0.00  0.00    +0.000 A 
ATOM      7  C   UNL     1       1.876   7.686  20.158  0.00  0.00    +0.000 A 
ATOM      8  C   UNL     1       1.368   8.879  19.650  0.00  0.00    +0.000 A 
ATOM      9  C   UNL     1       1.718   9.309  18.367  0.00  0.00    +0.000 A 
ATOM     10  C   UNL     1       2.593   8.532  17.591  0.00  0.00    +0.000 A 
BRANCH   8  11
ATOM     11  S   UNL     1       0.234   9.813  20.639  0.00  0.00    +0.000 S 
ATOM     12  O   UNL     1       0.983  10.675  21.525  0.00  0.00    +0.000 OA
ATOM     13  O   UNL     1      -0.840  10.296  19.805  0.00  0.00    +0.000 OA
BRANCH  11  14
ATOM     14  N   UNL     1      -0.428   8.615  21.608  0.00  0.00    +0.000 NA
ATOM     15  H   UNL     1      -0.017   7.713  21.369  0.00  0.00    +0.000 HD
ATOM     16  H   UNL     1      -0.329   8.872  22.590  0.00  0.00    +0.000 HD
ENDBRANCH  11  14
ENDBRANCH   8  11
ENDBRANCH   3   5
BRANCH   1  18
ATOM     17  C   UNL     1       5.225   5.929  14.771  0.00  0.00    +0.000 C 
ATOM     18  C   UNL     1       5.954   5.757  16.103  0.00  0.00    +0.000 C 
BRANCH  18  19
ATOM     19  O   UNL     1       5.843   4.372  16.472  0.00  0.00    +0.000 OA
BRANCH  19  20
ATOM     20  C   UNL     1       5.902   4.097  17.798  0.00  0.00    +0.000 C 
ATOM     21  O   UNL     1       6.887   4.264  18.503  0.00  0.00    +0.000 OA
BRANCH  20  22
ATOM     22  C   UNL     1       4.574   3.652  18.312  0.00  0.00    +0.000 A 
ATOM     23  C   UNL     1       3.566   3.168  17.449  0.00  0.00    +0.000 A 
ATOM     24  C   UNL     1       2.291   2.862  17.936  0.00  0.00    +0.000 A 
ATOM     25  C   UNL     1       2.045   3.023  19.287  0.00  0.00    +0.000 A 
ATOM     26  C   UNL     1       3.048   3.462  20.158  0.00  0.00    +0.000 A 
ATOM     27  C   UNL     1       4.312   3.787  19.686  0.00  0.00    +0.000 A 
ATOM     28  C   UNL     1       2.521   3.578  21.556  0.00  0.00    +0.000 C 
ATOM     29  C   UNL     1       1.238   2.737  21.465  0.00  0.00    +0.000 C 
ATOM     30  C   UNL     1       0.746   2.854  20.015  0.00  0.00    +0.000 C 
ENDBRANCH  20  22
ENDBRANCH  19  20
ENDBRANCH  18  19
ENDBRANCH   1  18
TORSDOF 7
ENDMDL
MODEL 7
REMARK VINA RESULT:      -7.5      5.040      7.106
REMARK  Name = 
REMARK  8 active torsions:
REMARK  status: ('A' for Active; 'I' for Inactive)
REMARK    1  A    between atoms: C_1  and  C_2
REMARK    2  A    between atoms: C_2  and  O_3
REMARK    3  A    between atoms: C_2  and  C_15
REMARK    4  A    between atoms: O_3  and  C_4
REMARK    5  A    between atoms: C_4  and  C_6
REMARK    6  A    between atoms: N_17  and  C_18
REMARK    7  A    between atoms: C_21  and  S_22
REMARK    8  A    between atoms: S_22  and  N_23
REMARK                            x       y       z     vdW  Elec       q    Type
REMARK                         _______ _______ _______ _____ _____    ______ ____
ROOT
ATOM      1  C   UNL     1       7.816   7.868  17.948  0.00  0.00    +0.000 C 
ATOM      2  O   UNL     1       7.536   8.401  16.875  0.00  0.00    +0.000 OA
ATOM      3  N   UNL     1       8.565   8.459  18.956  0.00  0.00    +0.000 N 
ATOM      4  H   UNL     1       8.852   7.861  19.730  0.00  0.00    +0.000 HD
ENDROOT
BRANCH   3   5
ATOM      5  C   UNL     1       9.037   9.790  18.956  0.00  0.00    +0.000 A 
ATOM      6  C   UNL     1       8.918  10.632  17.845  0.00  0.00    +0.000 A 
ATOM      7  C   UNL     1       9.424  11.928  17.871  0.00  0.00    +0.000 A 
ATOM      8  C   UNL     1      10.046  12.400  19.025  0.00  0.00    +0.000 A 
ATOM      9  C   UNL     1      10.159  11.583  20.153  0.00  0.00    +0.000 A 
ATOM     10  C   UNL     1       9.636  10.281  20.121  0.00  0.00    +0.000 A 
BRANCH   8  11
ATOM     11  S   UNL     1      10.730  14.033  19.017  0.00  0.00    +0.000 S 
ATOM     12  O   UNL     1       9.688  14.982  19.333  0.00  0.00    +0.000 OA
ATOM     13  O   UNL     1      12.003  14.019  19.698  0.00  0.00    +0.000 OA
BRANCH  11  14
ATOM     14  N   UNL     1      11.072  14.244  17.389  0.00  0.00    +0.000 NA
ATOM     15  H   UNL     1      10.423  14.919  16.986  0.00  0.00    +0.000 HD
ATOM     16  H   UNL     1      12.055  14.490  17.273  0.00  0.00    +0.000 HD
ENDBRANCH  11  14
ENDBRANCH   8  11
ENDBRANCH   3   5
BRANCH   1  18
ATOM     17  C   UNL     1       8.193   5.895  19.435  0.00  0.00    +0.000 C 
ATOM     18  C   UNL     1       7.377   6.421  18.254  0.00  0.00    +0.000 C 
BRANCH  18  19
ATOM     19  O   UNL     1       7.622   5.542  17.143  0.00  0.00    +0.000 OA
BRANCH  19  20
ATOM     20  C   UNL     1       6.680   5.529  16.169  0.00  0.00    +0.000 C 
ATOM     21  O   UNL     1       6.908   5.649  14.974  0.00  0.00    +0.000 OA
BRANCH  20  22
ATOM     22  C   UNL     1       5.328   5.251  16.737  0.00  0.00    +0.000 A 
ATOM     23  C   UNL     1       4.462   6.291  17.138  0.00  0.00    +0.000 A 
ATOM     24  C   UNL     1       3.246   6.008  17.771  0.00  0.00    +0.000 A 
ATOM     25  C   UNL     1       2.903   4.684  17.977  0.00  0.00    +0.000 A 
ATOM     26  C   UNL     1       3.735   3.645  17.546  0.00  0.00    +0.000 A 
ATOM     27  C   UNL     1       4.951   3.912  16.934  0.00  0.00    +0.000 A 
ATOM     28  C   UNL     1       3.150   2.314  17.911  0.00  0.00    +0.000 C 
ATOM     29  C   UNL     1       1.690   2.696  18.200  0.00  0.00    +0.000 C 
ATOM     30  C   UNL     1       1.713   4.143  18.710  0.00  0.00    +0.000 C 
ENDBRANCH  20  22
ENDBRANCH  19  20
ENDBRANCH  18  19
ENDBRANCH   1  18
TORSDOF 7
ENDMDL
MODEL 8
REMARK VINA RESULT:      -7.4      1.187      1.974
REMARK  Name = 
REMARK  8 active torsions:
REMARK  status: ('A' for Active; 'I' for Inactive)
REMARK    1  A    between atoms: C_1  and  C_2
REMARK    2  A    between atoms: C_2  and  O_3
REMARK    3  A    between atoms: C_2  and  C_15
REMARK    4  A    between atoms: O_3  and  C_4
REMARK    5  A    between atoms: C_4  and  C_6
REMARK    6  A    between atoms: N_17  and  C_18
REMARK    7  A    between atoms: C_21  and  S_22
REMARK    8  A    between atoms: S_22  and  N_23
REMARK                            x       y       z     vdW  Elec       q    Type
REMARK                         _______ _______ _______ _____ _____    ______ ____
ROOT
ATOM      1  C   UNL     1       1.694   4.046  19.540  0.00  0.00    +0.000 C 
ATOM      2  O   UNL     1       1.140   4.088  18.443  0.00  0.00    +0.000 OA
ATOM      3  N   UNL     1       2.135   5.154  20.251  0.00  0.00    +0.000 N 
ATOM      4  H   UNL     1       2.710   4.977  21.074  0.00  0.00    +0.000 HD
ENDROOT
BRANCH   3   5
ATOM      5  C   UNL     1       1.933   6.501  19.880  0.00  0.00    +0.000 A 
ATOM      6  C   UNL     1       2.329   7.009  18.638  0.00  0.00    +0.000 A 
ATOM      7  C   UNL     1       2.141   8.351  18.319  0.00  0.00    +0.000 A 
ATOM      8  C   UNL     1       1.537   9.198  19.245  0.00  0.00    +0.000 A 
ATOM      9  C   UNL     1       1.117   8.710  20.485  0.00  0.00    +0.000 A 
ATOM     10  C   UNL     1       1.301   7.352  20.793  0.00  0.00    +0.000 A 
BRANCH   8  11
ATOM     11  S   UNL     1       1.358  10.913  18.840  0.00  0.00    +0.000 S 
ATOM     12  O   UNL     1       1.051  11.651  20.043  0.00  0.00    +0.000 OA
ATOM     13  O   UNL     1       2.414  11.302  17.935  0.00  0.00    +0.000 OA
BRANCH  11  14
ATOM     14  N   UNL     1      -0.052  10.896  17.934  0.00  0.00    +0.000 NA
ATOM     15  H   UNL     1       0.165  10.670  16.963  0.00  0.00    +0.000 HD
ATOM     16  H   UNL     1      -0.732  10.271  18.366  0.00  0.00    +0.000 HD
ENDBRANCH  11  14
ENDBRANCH   8  11
ENDBRANCH   3   5
BRANCH   1  18
ATOM     17  C   UNL     1       2.469   2.961  21.655  0.00  0.00    +0.000 C 
ATOM     18  C   UNL     1       1.997   2.697  20.225  0.00  0.00    +0.000 C 
BRANCH  18  19
ATOM     19  O   UNL     1       3.050   1.983  19.556  0.00  0.00    +0.000 OA
BRANCH  19  20
ATOM     20  C   UNL     1       4.317   2.345  19.874  0.00  0.00    +0.000 C 
ATOM     21  O   UNL     1       5.006   1.804  20.727  0.00  0.00    +0.000 OA
BRANCH  20  22
ATOM     22  C   UNL     1       4.801   3.436  18.978  0.00  0.00    +0.000 A 
ATOM     23  C   UNL     1       5.388   4.614  19.489  0.00  0.00    +0.000 A 
ATOM     24  C   UNL     1       5.732   5.671  18.639  0.00  0.00    +0.000 A 
ATOM     25  C   UNL     1       5.505   5.527  17.282  0.00  0.00    +0.000 A 
ATOM     26  C   UNL     1       4.963   4.348  16.761  0.00  0.00    +0.000 A 
ATOM     27  C   UNL     1       4.599   3.299  17.594  0.00  0.00    +0.000 A 
ATOM     28  C   UNL     1       4.793   4.456  15.275  0.00  0.00    +0.000 C 
ATOM     29  C   UNL     1       5.705   5.651  14.954  0.00  0.00    +0.000 C 
ATOM     30  C   UNL     1       5.700   6.546  16.201  0.00  0.00    +0.000 C 
ENDBRANCH  20  22
ENDBRANCH  19  20
ENDBRANCH  18  19
ENDBRANCH   1  18
TORSDOF 7
ENDMDL
MODEL 9
REMARK VINA RESULT:      -7.4      0.958      1.173
REMARK  Name = 
REMARK  8 active torsions:
REMARK  status: ('A' for Active; 'I' for Inactive)
REMARK    1  A    between atoms: C_1  and  C_2
REMARK    2  A    between atoms: C_2  and  O_3
REMARK    3  A    between atoms: C_2  and  C_15
REMARK    4  A    between atoms: O_3  and  C_4
REMARK    5  A    between atoms: C_4  and  C_6
REMARK    6  A    between atoms: N_17  and  C_18
REMARK    7  A    between atoms: C_21  and  S_22
REMARK    8  A    between atoms: S_22  and  N_23
REMARK                            x       y       z     vdW  Elec       q    Type
REMARK                         _______ _______ _______ _____ _____    ______ ____
ROOT
ATOM      1  C   UNL     1       1.663   3.905  19.421  0.00  0.00    +0.000 C 
ATOM      2  O   UNL     1       0.767   3.982  18.583  0.00  0.00    +0.000 OA
ATOM      3  N   UNL     1       2.373   4.986  19.926  0.00  0.00    +0.000 N 
ATOM      4  H   UNL     1       3.187   4.777  20.502  0.00  0.00    +0.000 HD
ENDROOT
BRANCH   3   5
ATOM      5  C   UNL     1       2.118   6.344  19.635  0.00  0.00    +0.000 A 
ATOM      6  C   UNL     1       2.470   6.933  18.416  0.00  0.00    +0.000 A 
ATOM      7  C   UNL     1       2.231   8.283  18.177  0.00  0.00    +0.000 A 
ATOM      8  C   UNL     1       1.621   9.057  19.161  0.00  0.00    +0.000 A 
ATOM      9  C   UNL     1       1.244   8.487  20.380  0.00  0.00    +0.000 A 
ATOM     10  C   UNL     1       1.479   7.122  20.607  0.00  0.00    +0.000 A 
BRANCH   8  11
ATOM     11  S   UNL     1       1.376  10.785  18.857  0.00  0.00    +0.000 S 
ATOM     12  O   UNL     1       1.028  11.436  20.098  0.00  0.00    +0.000 OA
ATOM     13  O   UNL     1       2.425  11.269  17.990  0.00  0.00    +0.000 OA
BRANCH  11  14
ATOM     14  N   UNL     1      -0.023  10.766  17.934  0.00  0.00    +0.000 NA
ATOM     15  H   UNL     1      -0.432  11.700  17.910  0.00  0.00    +0.000 HD
ATOM     16  H   UNL     1       0.176  10.374  17.013  0.00  0.00    +0.000 HD
ENDBRANCH  11  14
ENDBRANCH   8  11
ENDBRANCH   3   5
BRANCH   1  18
ATOM     17  C   UNL     1       2.582   2.716  21.418  0.00  0.00    +0.000 C 
ATOM     18  C   UNL     1       2.119   2.538  19.972  0.00  0.00    +0.000 C 
BRANCH  18  19
ATOM     19  O   UNL     1       3.233   2.010  19.232  0.00  0.00    +0.000 OA
BRANCH  19  20
ATOM     20  C   UNL     1       4.464   2.407  19.637  0.00  0.00    +0.000 C 
ATOM     21  O   UNL     1       5.099   1.896  20.549  0.00  0.00    +0.000 OA
BRANCH  20  22
ATOM     22  C   UNL     1       4.990   3.493  18.759  0.00  0.00    +0.000 A 
ATOM     23  C   UNL     1       4.571   3.636  17.419  0.00  0.00    +0.000 A 
ATOM     24  C   UNL     1       5.159   4.591  16.581  0.00  0.00    +0.000 A 
ATOM     25  C   UNL     1       6.146   5.407  17.102  0.00  0.00    +0.000 A 
ATOM     26  C   UNL     1       6.540   5.302  18.441  0.00  0.00    +0.000 A 
ATOM     27  C   UNL     1       5.979   4.347  19.278  0.00  0.00    +0.000 A 
ATOM     28  C   UNL     1       7.638   6.275  18.747  0.00  0.00    +0.000 C 
ATOM     29  C   UNL     1       7.520   7.245  17.561  0.00  0.00    +0.000 C 
ATOM     30  C   UNL     1       6.978   6.424  16.382  0.00  0.00    +0.000 C 
ENDBRANCH  20  22
ENDBRANCH  19  20
ENDBRANCH  18  19
ENDBRANCH   1  18
TORSDOF 7
ENDMDL
