MODEL 1
REMARK VINA RESULT:      -7.4      0.000      0.000
REMARK  Name = 
REMARK  11 active torsions:
REMARK  status: ('A' for Active; 'I' for Inactive)
REMARK    1  A    between atoms: C_1  and  C_2
REMARK    2  A    between atoms: C_2  and  C_3
REMARK    3  A    between atoms: C_3  and  C_4
REMARK    4  A    between atoms: C_3  and  N_6
REMARK    5  A    between atoms: C_4  and  C_5
REMARK    6  A    between atoms: C_7  and  C_9
REMARK    7  A    between atoms: C_9  and  O_10
REMARK    8  A    between atoms: O_10  and  C_11
REMARK    9  A    between atoms: C_11  and  C_13
REMARK   10  A    between atoms: C_17  and  C_18
REMARK   11  A    between atoms: C_19  and  O_20
REMARK                            x       y       z     vdW  Elec       q    Type
REMARK                         _______ _______ _______ _____ _____    ______ ____
ROOT
ATOM      1  O   UNL     1       5.869   4.069  16.047  0.00  0.00    +0.000 OA
ENDROOT
BRANCH   1   2
ATOM      2  C   UNL     1       5.694   4.241  17.378  0.00  0.00    +0.000 C 
ATOM      3  O   UNL     1       6.583   4.354  18.208  0.00  0.00    +0.000 OA
BRANCH   2   4
ATOM      4  C   UNL     1       4.249   4.319  17.724  0.00  0.00    +0.000 A 
ATOM      5  C   UNL     1       3.687   5.605  17.792  0.00  0.00    +0.000 A 
ATOM      6  C   UNL     1       2.352   5.777  18.153  0.00  0.00    +0.000 A 
ATOM      7  C   UNL     1       1.563   4.666  18.445  0.00  0.00    +0.000 A 
ATOM      8  C   UNL     1       2.091   3.367  18.382  0.00  0.00    +0.000 A 
ATOM      9  C   UNL     1       1.198   2.201  18.699  0.00  0.00    +0.000 C 
ATOM     10  C   UNL     1       3.446   3.203  18.025  0.00  0.00    +0.000 A 
BRANCH  10  11
ATOM     11  O   UNL     1       3.996   1.945  18.015  0.00  0.00    +0.000 OA
ATOM     12  H   UNL     1       4.759   1.935  17.414  0.00  0.00    +0.000 HD
ENDBRANCH  10  11
ENDBRANCH   2   4
ENDBRANCH   1   2
BRANCH   1  13
ATOM     13  C   UNL     1       7.052   4.632  15.471  0.00  0.00    +0.000 C 
BRANCH  13  15
ATOM     14  N   UNL     1       6.228   3.581  13.419  0.00  0.00    +0.000 N 
ATOM     15  C   UNL     1       7.007   4.589  13.941  0.00  0.00    +0.000 C 
ATOM     16  O   UNL     1       7.618   5.399  13.249  0.00  0.00    +0.000 OA
ATOM     17  H   UNL     1       5.658   3.058  14.083  0.00  0.00    +0.000 HD
BRANCH  14  18
ATOM     18  C   UNL     1       6.004   3.392  11.988  0.00  0.00    +0.000 C 
BRANCH  18  20
ATOM     19  C   UNL     1       6.387   1.042  11.065  0.00  0.00    +0.000 C 
ATOM     20  C   UNL     1       7.021   2.381  11.430  0.00  0.00    +0.000 C 
ENDBRANCH  18  20
BRANCH  18  21
ATOM     21  C   UNL     1       4.545   2.949  11.757  0.00  0.00    +0.000 C 
ATOM     22  C   UNL     1       3.819   3.732  10.672  0.00  0.00    +0.000 C 
ENDBRANCH  18  21
ENDBRANCH  14  18
ENDBRANCH  13  15
ENDBRANCH   1  13
TORSDOF 8
ENDMDL
MODEL 2
REMARK VINA RESULT:      -7.3      1.134      1.621
REMARK  Name = 
REMARK  11 active torsions:
REMARK  status: ('A' for Active; 'I' for Inactive)
REMARK    1  A    between atoms: C_1  and  C_2
REMARK    2  A    between atoms: C_2  and  C_3
REMARK    3  A    between atoms: C_3  and  C_4
REMARK    4  A    between atoms: C_3  and  N_6
REMARK    5  A    between atoms: C_4  and  C_5
REMARK    6  A    between atoms: C_7  and  C_9
REMARK    7  A    between atoms: C_9  and  O_10
REMARK    8  A    between atoms: O_10  and  C_11
REMARK    9  A    between atoms: C_11  and  C_13
REMARK   10  A    between atoms: C_17  and  C_18
REMARK   11  A    between atoms: C_19  and  O_20
REMARK                            x       y       z     vdW  Elec       q    Type
REMARK                         _______ _______ _______ _____ _____    ______ ____
ROOT
ATOM      1  O   UNL     1       5.832   4.825  16.575  0.00  0.00    +0.000 OA
ENDROOT
BRANCH   1   2
ATOM      2  C   UNL     1       5.645   4.427  17.854  0.00  0.00    +0.000 C 
ATOM      3  O   UNL     1       6.515   4.312  18.703  0.00  0.00    +0.000 OA
BRANCH   2   4
ATOM      4  C   UNL     1       4.205   4.173  18.132  0.00  0.00    +0.000 A 
ATOM      5  C   UNL     1       3.524   3.348  17.221  0.00  0.00    +0.000 A 
ATOM      6  C   UNL     1       2.163   3.092  17.377  0.00  0.00    +0.000 A 
ATOM      7  C   UNL     1       1.469   3.653  18.447  0.00  0.00    +0.000 A 
ATOM      8  C   UNL     1       2.119   4.477  19.379  0.00  0.00    +0.000 A 
ATOM      9  C   UNL     1       1.328   5.052  20.520  0.00  0.00    +0.000 C 
ATOM     10  C   UNL     1       3.495   4.738  19.208  0.00  0.00    +0.000 A 
BRANCH  10  11
ATOM     11  O   UNL     1       4.135   5.589  20.075  0.00  0.00    +0.000 OA
ATOM     12  H   UNL     1       3.675   5.579  20.931  0.00  0.00    +0.000 HD
ENDBRANCH  10  11
ENDBRANCH   2   4
ENDBRANCH   1   2
BRANCH   1  13
ATOM     13  C   UNL     1       6.826   4.125  15.818  0.00  0.00    +0.000 C 
BRANCH  13  15
ATOM     14  N   UNL     1       6.232   3.335  13.577  0.00  0.00    +0.000 N 
ATOM     15  C   UNL     1       6.687   4.402  14.319  0.00  0.00    +0.000 C 
ATOM     16  O   UNL     1       6.959   5.497  13.831  0.00  0.00    +0.000 OA
ATOM     17  H   UNL     1       5.905   2.524  14.104  0.00  0.00    +0.000 HD
BRANCH  14  18
ATOM     18  C   UNL     1       5.978   3.398  12.141  0.00  0.00    +0.000 C 
BRANCH  18  20
ATOM     19  C   UNL     1       6.457   1.088  11.166  0.00  0.00    +0.000 C 
ATOM     20  C   UNL     1       6.981   2.502  11.394  0.00  0.00    +0.000 C 
ENDBRANCH  18  20
BRANCH  18  21
ATOM     21  C   UNL     1       4.514   3.000  11.867  0.00  0.00    +0.000 C 
ATOM     22  C   UNL     1       3.860   3.770  10.728  0.00  0.00    +0.000 C 
ENDBRANCH  18  21
ENDBRANCH  14  18
ENDBRANCH  13  15
ENDBRANCH   1  13
TORSDOF 8
ENDMDL
MODEL 3
REMARK VINA RESULT:      -7.2      1.173      1.289
REMARK  Name = 
REMARK  11 active torsions:
REMARK  status: ('A' for Active; 'I' for Inactive)
REMARK    1  A    between atoms: C_1  and  C_2
REMARK    2  A    between atoms: C_2  and  C_3
REMARK    3  A    between atoms: C_3  and  C_4
REMARK    4  A    between atoms: C_3  and  N_6
REMARK    5  A    between atoms: C_4  and  C_5
REMARK    6  A    between atoms: C_7  and  C_9
REMARK    7  A    between atoms: C_9  and  O_10
REMARK    8  A    between atoms: O_10  and  C_11
REMARK    9  A    between atoms: C_11  and  C_13
REMARK   10  A    between atoms: C_17  and  C_18
REMARK   11  A    between atoms: C_19  and  O_20
REMARK                            x       y       z     vdW  Elec       q    Type
REMARK                         _______ _______ _______ _____ _____    ______ ____
ROOT
ATOM      1  O   UNL     1       5.060   4.167  16.268  0.00  0.00    +0.000 OA
ENDROOT
BRANCH   1   2
ATOM      2  C   UNL     1       4.516   5.287  16.800  0.00  0.00    +0.000 C 
ATOM      3  O   UNL     1       4.748   6.432  16.447  0.00  0.00    +0.000 OA
BRANCH   2   4
ATOM      4  C   UNL     1       3.541   4.952  17.873  0.00  0.00    +0.000 A 
ATOM      5  C   UNL     1       3.623   5.708  19.055  0.00  0.00    +0.000 A 
ATOM      6  C   UNL     1       2.780   5.434  20.130  0.00  0.00    +0.000 A 
ATOM      7  C   UNL     1       1.842   4.407  20.035  0.00  0.00    +0.000 A 
ATOM      8  C   UNL     1       1.730   3.637  18.867  0.00  0.00    +0.000 A 
ATOM      9  C   UNL     1       0.699   2.545  18.810  0.00  0.00    +0.000 C 
ATOM     10  C   UNL     1       2.594   3.914  17.787  0.00  0.00    +0.000 A 
BRANCH  10  11
ATOM     11  O   UNL     1       2.540   3.133  16.658  0.00  0.00    +0.000 OA
ATOM     12  H   UNL     1       3.070   3.547  15.958  0.00  0.00    +0.000 HD
ENDBRANCH  10  11
ENDBRANCH   2   4
ENDBRANCH   1   2
BRANCH   1  13
ATOM     13  C   UNL     1       6.436   4.238  15.880  0.00  0.00    +0.000 C 
BRANCH  13  15
ATOM     14  N   UNL     1       5.936   3.440  13.619  0.00  0.00    +0.000 N 
ATOM     15  C   UNL     1       6.583   4.400  14.364  0.00  0.00    +0.000 C 
ATOM     16  O   UNL     1       7.226   5.322  13.868  0.00  0.00    +0.000 OA
ATOM     17  H   UNL     1       5.319   2.808  14.130  0.00  0.00    +0.000 HD
BRANCH  14  18
ATOM     18  C   UNL     1       5.902   3.437  12.159  0.00  0.00    +0.000 C 
BRANCH  18  20
ATOM     19  C   UNL     1       6.590   1.247  11.042  0.00  0.00    +0.000 C 
ATOM     20  C   UNL     1       7.059   2.582  11.612  0.00  0.00    +0.000 C 
ENDBRANCH  18  20
BRANCH  18  21
ATOM     21  C   UNL     1       4.523   2.936  11.684  0.00  0.00    +0.000 C 
ATOM     22  C   UNL     1       3.853   3.835  10.655  0.00  0.00    +0.000 C 
ENDBRANCH  18  21
ENDBRANCH  14  18
ENDBRANCH  13  15
ENDBRANCH   1  13
TORSDOF 8
ENDMDL
MODEL 4
REMARK VINA RESULT:      -7.2      0.897      1.069
REMARK  Name = 
REMARK  11 active torsions:
REMARK  status: ('A' for Active; 'I' for Inactive)
REMARK    1  A    between atoms: C_1  and  C_2
REMARK    2  A    between atoms: C_2  and  C_3
REMARK    3  A    between atoms: C_3  and  C_4
REMARK    4  A    between atoms: C_3  and  N_6
REMARK    5  A    between atoms: C_4  and  C_5
REMARK    6  A    between atoms: C_7  and  C_9
REMARK    7  A    between atoms: C_9  and  O_10
REMARK    8  A    between atoms: O_10  and  C_11
REMARK    9  A    between atoms: C_11  and  C_13
REMARK   10  A    between atoms: C_17  and  C_18
REMARK   11  A    between atoms: C_19  and  O_20
REMARK                            x       y       z     vdW  Elec       q    Type
REMARK                         _______ _______ _______ _____ _____    ______ ____
ROOT
ATOM      1  O   UNL     1       6.477   4.015  15.563  0.00  0.00    +0.000 OA
ENDROOT
BRANCH   1   2
ATOM      2  C   UNL     1       6.431   4.401  16.859  0.00  0.00    +0.000 C 
ATOM      3  O   UNL     1       7.382   4.461  17.623  0.00  0.00    +0.000 OA
BRANCH   2   4
ATOM      4  C   UNL     1       5.051   4.795  17.254  0.00  0.00    +0.000 A 
ATOM      5  C   UNL     1       4.811   6.170  17.414  0.00  0.00    +0.000 A 
ATOM      6  C   UNL     1       3.561   6.627  17.826  0.00  0.00    +0.000 A 
ATOM      7  C   UNL     1       2.535   5.717  18.075  0.00  0.00    +0.000 A 
ATOM      8  C   UNL     1       2.739   4.338  17.919  0.00  0.00    +0.000 A 
ATOM      9  C   UNL     1       1.600   3.397  18.193  0.00  0.00    +0.000 C 
ATOM     10  C   UNL     1       4.011   3.882  17.511  0.00  0.00    +0.000 A 
BRANCH  10  11
ATOM     11  O   UNL     1       4.246   2.533  17.410  0.00  0.00    +0.000 OA
ATOM     12  H   UNL     1       5.202   2.371  17.467  0.00  0.00    +0.000 HD
ENDBRANCH  10  11
ENDBRANCH   2   4
ENDBRANCH   1   2
BRANCH   1  13
ATOM     13  C   UNL     1       7.053   4.938  14.633  0.00  0.00    +0.000 C 
BRANCH  13  15
ATOM     14  N   UNL     1       5.747   3.676  12.991  0.00  0.00    +0.000 N 
ATOM     15  C   UNL     1       6.848   4.479  13.187  0.00  0.00    +0.000 C 
ATOM     16  O   UNL     1       7.610   4.814  12.284  0.00  0.00    +0.000 OA
ATOM     17  H   UNL     1       5.109   3.580  13.781  0.00  0.00    +0.000 HD
BRANCH  14  18
ATOM     18  C   UNL     1       5.337   3.172  11.683  0.00  0.00    +0.000 C 
BRANCH  18  20
ATOM     19  C   UNL     1       7.158   1.557  10.912  0.00  0.00    +0.000 C 
ATOM     20  C   UNL     1       5.771   1.704  11.530  0.00  0.00    +0.000 C 
ENDBRANCH  18  20
BRANCH  18  21
ATOM     21  C   UNL     1       3.815   3.357  11.522  0.00  0.00    +0.000 C 
ATOM     22  C   UNL     1       3.369   3.658  10.098  0.00  0.00    +0.000 C 
ENDBRANCH  18  21
ENDBRANCH  14  18
ENDBRANCH  13  15
ENDBRANCH   1  13
TORSDOF 8
ENDMDL
MODEL 5
REMARK VINA RESULT:      -7.1      1.285      1.318
REMARK  Name = 
REMARK  11 active torsions:
REMARK  status: ('A' for Active; 'I' for Inactive)
REMARK    1  A    between atoms: C_1  and  C_2
REMARK    2  A    between atoms: C_2  and  C_3
REMARK    3  A    between atoms: C_3  and  C_4
REMARK    4  A    between atoms: C_3  and  N_6
REMARK    5  A    between atoms: C_4  and  C_5
REMARK    6  A    between atoms: C_7  and  C_9
REMARK    7  A    between atoms: C_9  and  O_10
REMARK    8  A    between atoms: O_10  and  C_11
REMARK    9  A    between atoms: C_11  and  C_13
REMARK   10  A    between atoms: C_17  and  C_18
REMARK   11  A    between atoms: C_19  and  O_20
REMARK                            x       y       z     vdW  Elec       q    Type
REMARK                         _______ _______ _______ _____ _____    ______ ____
ROOT
ATOM      1  O   UNL     1       6.792   5.174  16.440  0.00  0.00    +0.000 OA
ENDROOT
BRANCH   1   2
ATOM      2  C   UNL     1       6.658   5.076  17.783  0.00  0.00    +0.000 C 
ATOM      3  O   UNL     1       7.569   4.956  18.586  0.00  0.00    +0.000 OA
BRANCH   2   4
ATOM      4  C   UNL     1       5.229   5.173  18.189  0.00  0.00    +0.000 A 
ATOM      5  C   UNL     1       4.527   6.309  17.752  0.00  0.00    +0.000 A 
ATOM      6  C   UNL     1       3.198   6.505  18.122  0.00  0.00    +0.000 A 
ATOM      7  C   UNL     1       2.555   5.567  18.927  0.00  0.00    +0.000 A 
ATOM      8  C   UNL     1       3.224   4.418  19.376  0.00  0.00    +0.000 A 
ATOM      9  C   UNL     1       2.485   3.432  20.235  0.00  0.00    +0.000 C 
ATOM     10  C   UNL     1       4.573   4.232  19.005  0.00  0.00    +0.000 A 
BRANCH  10  11
ATOM     11  O   UNL     1       5.263   3.145  19.482  0.00  0.00    +0.000 OA
ATOM     12  H   UNL     1       6.215   3.296  19.369  0.00  0.00    +0.000 HD
ENDBRANCH  10  11
ENDBRANCH   2   4
ENDBRANCH   1   2
BRANCH   1  13
ATOM     13  C   UNL     1       6.826   3.948  15.702  0.00  0.00    +0.000 C 
BRANCH  13  15
ATOM     14  N   UNL     1       6.039   3.169  13.518  0.00  0.00    +0.000 N 
ATOM     15  C   UNL     1       6.658   4.193  14.200  0.00  0.00    +0.000 C 
ATOM     16  O   UNL     1       7.044   5.227  13.662  0.00  0.00    +0.000 OA
ATOM     17  H   UNL     1       5.635   2.425  14.087  0.00  0.00    +0.000 HD
BRANCH  14  18
ATOM     18  C   UNL     1       5.731   3.219  12.091  0.00  0.00    +0.000 C 
BRANCH  18  20
ATOM     19  C   UNL     1       7.365   1.647  10.918  0.00  0.00    +0.000 C 
ATOM     20  C   UNL     1       5.952   1.833  11.461  0.00  0.00    +0.000 C 
ENDBRANCH  18  20
BRANCH  18  21
ATOM     21  C   UNL     1       4.289   3.730  11.901  0.00  0.00    +0.000 C 
ATOM     22  C   UNL     1       3.655   3.335  10.575  0.00  0.00    +0.000 C 
ENDBRANCH  18  21
ENDBRANCH  14  18
ENDBRANCH  13  15
ENDBRANCH   1  13
TORSDOF 8
ENDMDL
MODEL 6
REMARK VINA RESULT:      -7.1      1.183      1.227
REMARK  Name = 
REMARK  11 active torsions:
REMARK  status: ('A' for Active; 'I' for Inactive)
REMARK    1  A    between atoms: C_1  and  C_2
REMARK    2  A    between atoms: C_2  and  C_3
REMARK    3  A    between atoms: C_3  and  C_4
REMARK    4  A    between atoms: C_3  and  N_6
REMARK    5  A    between atoms: C_4  and  C_5
REMARK    6  A    between atoms: C_7  and  C_9
REMARK    7  A    between atoms: C_9  and  O_10
REMARK    8  A    between atoms: O_10  and  C_11
REMARK    9  A    between atoms: C_11  and  C_13
REMARK   10  A    between atoms: C_17  and  C_18
REMARK   11  A    between atoms: C_19  and  O_20
REMARK                            x       y       z     vdW  Elec       q    Type
REMARK                         _______ _______ _______ _____ _____    ______ ____
ROOT
ATOM      1  O   UNL     1       5.718   4.069  16.428  0.00  0.00    +0.000 OA
ENDROOT
BRANCH   1   2
ATOM      2  C   UNL     1       5.304   5.195  17.054  0.00  0.00    +0.000 C 
ATOM      3  O   UNL     1       5.756   6.316  16.884  0.00  0.00    +0.000 OA
BRANCH   2   4
ATOM      4  C   UNL     1       4.171   4.910  17.976  0.00  0.00    +0.000 A 
ATOM      5  C   UNL     1       3.036   5.728  17.848  0.00  0.00    +0.000 A 
ATOM      6  C   UNL     1       1.945   5.563  18.700  0.00  0.00    +0.000 A 
ATOM      7  C   UNL     1       1.974   4.577  19.684  0.00  0.00    +0.000 A 
ATOM      8  C   UNL     1       3.090   3.739  19.835  0.00  0.00    +0.000 A 
ATOM      9  C   UNL     1       3.071   2.686  20.906  0.00  0.00    +0.000 C 
ATOM     10  C   UNL     1       4.193   3.919  18.975  0.00  0.00    +0.000 A 
BRANCH  10  11
ATOM     11  O   UNL     1       5.318   3.149  19.146  0.00  0.00    +0.000 OA
ATOM     12  H   UNL     1       5.161   2.508  19.859  0.00  0.00    +0.000 HD
ENDBRANCH  10  11
ENDBRANCH   2   4
ENDBRANCH   1   2
BRANCH   1  13
ATOM     13  C   UNL     1       7.005   4.112  15.803  0.00  0.00    +0.000 C 
BRANCH  13  15
ATOM     14  N   UNL     1       6.266   3.344  13.598  0.00  0.00    +0.000 N 
ATOM     15  C   UNL     1       6.889   4.354  14.296  0.00  0.00    +0.000 C 
ATOM     16  O   UNL     1       7.319   5.376  13.766  0.00  0.00    +0.000 OA
ATOM     17  H   UNL     1       5.826   2.612  14.157  0.00  0.00    +0.000 HD
BRANCH  14  18
ATOM     18  C   UNL     1       6.004   3.395  12.163  0.00  0.00    +0.000 C 
BRANCH  18  20
ATOM     19  C   UNL     1       6.349   1.102  11.095  0.00  0.00    +0.000 C 
ATOM     20  C   UNL     1       6.971   2.456  11.422  0.00  0.00    +0.000 C 
ENDBRANCH  18  20
BRANCH  18  21
ATOM     21  C   UNL     1       4.525   3.042  11.904  0.00  0.00    +0.000 C 
ATOM     22  C   UNL     1       3.910   3.761  10.712  0.00  0.00    +0.000 C 
ENDBRANCH  18  21
ENDBRANCH  14  18
ENDBRANCH  13  15
ENDBRANCH   1  13
TORSDOF 8
ENDMDL
MODEL 7
REMARK VINA RESULT:      -6.8      1.605      2.405
REMARK  Name = 
REMARK  11 active torsions:
REMARK  status: ('A' for Active; 'I' for Inactive)
REMARK    1  A    between atoms: C_1  and  C_2
REMARK    2  A    between atoms: C_2  and  C_3
REMARK    3  A    between atoms: C_3  and  C_4
REMARK    4  A    between atoms: C_3  and  N_6
REMARK    5  A    between atoms: C_4  and  C_5
REMARK    6  A    between atoms: C_7  and  C_9
REMARK    7  A    between atoms: C_9  and  O_10
REMARK    8  A    between atoms: O_10  and  C_11
REMARK    9  A    between atoms: C_11  and  C_13
REMARK   10  A    between atoms: C_17  and  C_18
REMARK   11  A    between atoms: C_19  and  O_20
REMARK                            x       y       z     vdW  Elec       q    Type
REMARK                         _______ _______ _______ _____ _____    ______ ____
ROOT
ATOM      1  O   UNL     1       5.600   4.301  16.524  0.00  0.00    +0.000 OA
ENDROOT
BRANCH   1   2
ATOM      2  C   UNL     1       5.756   4.576  17.840  0.00  0.00    +0.000 C 
ATOM      3  O   UNL     1       6.731   4.295  18.519  0.00  0.00    +0.000 OA
BRANCH   2   4
ATOM      4  C   UNL     1       4.584   5.320  18.376  0.00  0.00    +0.000 A 
ATOM      5  C   UNL     1       3.946   4.764  19.497  0.00  0.00    +0.000 A 
ATOM      6  C   UNL     1       2.812   5.367  20.039  0.00  0.00    +0.000 A 
ATOM      7  C   UNL     1       2.308   6.536  19.471  0.00  0.00    +0.000 A 
ATOM      8  C   UNL     1       2.924   7.121  18.354  0.00  0.00    +0.000 A 
ATOM      9  C   UNL     1       2.348   8.384  17.782  0.00  0.00    +0.000 C 
ATOM     10  C   UNL     1       4.066   6.498  17.806  0.00  0.00    +0.000 A 
BRANCH  10  11
ATOM     11  O   UNL     1       4.647   7.022  16.678  0.00  0.00    +0.000 OA
ATOM     12  H   UNL     1       4.271   7.901  16.503  0.00  0.00    +0.000 HD
ENDBRANCH  10  11
ENDBRANCH   2   4
ENDBRANCH   1   2
BRANCH   1  13
ATOM     13  C   UNL     1       6.778   3.944  15.793  0.00  0.00    +0.000 C 
BRANCH  13  15
ATOM     14  N   UNL     1       6.115   3.169  13.567  0.00  0.00    +0.000 N 
ATOM     15  C   UNL     1       6.615   4.224  14.297  0.00  0.00    +0.000 C 
ATOM     16  O   UNL     1       6.906   5.310  13.802  0.00  0.00    +0.000 OA
ATOM     17  H   UNL     1       5.777   2.368  14.101  0.00  0.00    +0.000 HD
BRANCH  14  18
ATOM     18  C   UNL     1       5.832   3.238  12.136  0.00  0.00    +0.000 C 
BRANCH  18  20
ATOM     19  C   UNL     1       7.427   1.691  10.880  0.00  0.00    +0.000 C 
ATOM     20  C   UNL     1       6.041   1.855  11.495  0.00  0.00    +0.000 C 
ENDBRANCH  18  20
BRANCH  18  21
ATOM     21  C   UNL     1       4.401   3.775  11.927  0.00  0.00    +0.000 C 
ATOM     22  C   UNL     1       3.650   3.120  10.777  0.00  0.00    +0.000 C 
ENDBRANCH  18  21
ENDBRANCH  14  18
ENDBRANCH  13  15
ENDBRANCH   1  13
TORSDOF 8
ENDMDL
MODEL 8
REMARK VINA RESULT:      -6.8      1.312      1.759
REMARK  Name = 
REMARK  11 active torsions:
REMARK  status: ('A' for Active; 'I' for Inactive)
REMARK    1  A    between atoms: C_1  and  C_2
REMARK    2  A    between atoms: C_2  and  C_3
REMARK    3  A    between atoms: C_3  and  C_4
REMARK    4  A    between atoms: C_3  and  N_6
REMARK    5  A    between atoms: C_4  and  C_5
REMARK    6  A    between atoms: C_7  and  C_9
REMARK    7  A    between atoms: C_9  and  O_10
REMARK    8  A    between atoms: O_10  and  C_11
REMARK    9  A    between atoms: C_11  and  C_13
REMARK   10  A    between atoms: C_17  and  C_18
REMARK   11  A    between atoms: C_19  and  O_20
REMARK                            x       y       z     vdW  Elec       q    Type
REMARK                         _______ _______ _______ _____ _____    ______ ____
ROOT
ATOM      1  O   UNL     1       5.267   4.156  16.021  0.00  0.00    +0.000 OA
ENDROOT
BRANCH   1   2
ATOM      2  C   UNL     1       4.511   4.883  16.876  0.00  0.00    +0.000 C 
ATOM      3  O   UNL     1       4.290   6.081  16.796  0.00  0.00    +0.000 OA
BRANCH   2   4
ATOM      4  C   UNL     1       3.926   4.022  17.941  0.00  0.00    +0.000 A 
ATOM      5  C   UNL     1       4.829   3.449  18.852  0.00  0.00    +0.000 A 
ATOM      6  C   UNL     1       4.376   2.593  19.854  0.00  0.00    +0.000 A 
ATOM      7  C   UNL     1       3.016   2.305  19.960  0.00  0.00    +0.000 A 
ATOM      8  C   UNL     1       2.087   2.864  19.069  0.00  0.00    +0.000 A 
ATOM      9  C   UNL     1       0.631   2.528  19.229  0.00  0.00    +0.000 C 
ATOM     10  C   UNL     1       2.555   3.722  18.052  0.00  0.00    +0.000 A 
BRANCH  10  11
ATOM     11  O   UNL     1       1.669   4.232  17.135  0.00  0.00    +0.000 OA
ATOM     12  H   UNL     1       1.952   5.125  16.880  0.00  0.00    +0.000 HD
ENDBRANCH  10  11
ENDBRANCH   2   4
ENDBRANCH   1   2
BRANCH   1  13
ATOM     13  C   UNL     1       6.500   4.741  15.590  0.00  0.00    +0.000 C 
BRANCH  13  15
ATOM     14  N   UNL     1       5.851   3.695  13.473  0.00  0.00    +0.000 N 
ATOM     15  C   UNL     1       6.683   4.612  14.076  0.00  0.00    +0.000 C 
ATOM     16  O   UNL     1       7.507   5.284  13.460  0.00  0.00    +0.000 OA
ATOM     17  H   UNL     1       5.113   3.300  14.057  0.00  0.00    +0.000 HD
BRANCH  14  18
ATOM     18  C   UNL     1       5.822   3.454  12.033  0.00  0.00    +0.000 C 
BRANCH  18  20
ATOM     19  C   UNL     1       6.346   1.152  11.061  0.00  0.00    +0.000 C 
ATOM     20  C   UNL     1       6.914   2.438  11.653  0.00  0.00    +0.000 C 
ENDBRANCH  18  20
BRANCH  18  21
ATOM     21  C   UNL     1       4.412   2.984  11.625  0.00  0.00    +0.000 C 
ATOM     22  C   UNL     1       3.762   3.827  10.537  0.00  0.00    +0.000 C 
ENDBRANCH  18  21
ENDBRANCH  14  18
ENDBRANCH  13  15
ENDBRANCH   1  13
TORSDOF 8
ENDMDL
MODEL 9
REMARK VINA RESULT:      -6.8      1.375      2.176
REMARK  Name = 
REMARK  11 active torsions:
REMARK  status: ('A' for Active; 'I' for Inactive)
REMARK    1  A    between atoms: C_1  and  C_2
REMARK    2  A    between atoms: C_2  and  C_3
REMARK    3  A    between atoms: C_3  and  C_4
REMARK    4  A    between atoms: C_3  and  N_6
REMARK    5  A    between atoms: C_4  and  C_5
REMARK    6  A    between atoms: C_7  and  C_9
REMARK    7  A    between atoms: C_9  and  O_10
REMARK    8  A    between atoms: O_10  and  C_11
REMARK    9  A    between atoms: C_11  and  C_13
REMARK   10  A    between atoms: C_17  and  C_18
REMARK   11  A    between atoms: C_19  and  O_20
REMARK                            x       y       z     vdW  Elec       q    Type
REMARK                         _______ _______ _______ _____ _____    ______ ____
ROOT
ATOM      1  O   UNL     1       7.372   4.547  16.578  0.00  0.00    +0.000 OA
ENDROOT
BRANCH   1   2
ATOM      2  C   UNL     1       7.086   5.468  17.527  0.00  0.00    +0.000 C 
ATOM      3  O   UNL     1       7.897   6.165  18.116  0.00  0.00    +0.000 OA
BRANCH   2   4
ATOM      4  C   UNL     1       5.618   5.568  17.753  0.00  0.00    +0.000 A 
ATOM      5  C   UNL     1       5.010   6.786  17.405  0.00  0.00    +0.000 A 
ATOM      6  C   UNL     1       3.648   6.986  17.624  0.00  0.00    +0.000 A 
ATOM      7  C   UNL     1       2.879   5.970  18.187  0.00  0.00    +0.000 A 
ATOM      8  C   UNL     1       3.453   4.739  18.541  0.00  0.00    +0.000 A 
ATOM      9  C   UNL     1       2.580   3.672  19.139  0.00  0.00    +0.000 C 
ATOM     10  C   UNL     1       4.834   4.549  18.325  0.00  0.00    +0.000 A 
BRANCH  10  11
ATOM     11  O   UNL     1       5.426   3.374  18.719  0.00  0.00    +0.000 OA
ATOM     12  H   UNL     1       4.948   3.018  19.487  0.00  0.00    +0.000 HD
ENDBRANCH  10  11
ENDBRANCH   2   4
ENDBRANCH   1   2
BRANCH   1  13
ATOM     13  C   UNL     1       7.255   4.964  15.214  0.00  0.00    +0.000 C 
BRANCH  13  15
ATOM     14  N   UNL     1       6.621   3.784  13.164  0.00  0.00    +0.000 N 
ATOM     15  C   UNL     1       6.245   4.105  14.449  0.00  0.00    +0.000 C 
ATOM     16  O   UNL     1       5.190   3.733  14.957  0.00  0.00    +0.000 OA
ATOM     17  H   UNL     1       7.576   4.027  12.897  0.00  0.00    +0.000 HD
BRANCH  14  18
ATOM     18  C   UNL     1       5.832   2.931  12.280  0.00  0.00    +0.000 C 
BRANCH  18  20
ATOM     19  C   UNL     1       3.591   2.999  11.059  0.00  0.00    +0.000 C 
ATOM     20  C   UNL     1       4.823   3.786  11.493  0.00  0.00    +0.000 C 
ENDBRANCH  18  20
BRANCH  18  21
ATOM     21  C   UNL     1       6.782   2.141  11.357  0.00  0.00    +0.000 C 
ATOM     22  C   UNL     1       6.340   0.711  11.082  0.00  0.00    +0.000 C 
ENDBRANCH  18  21
ENDBRANCH  14  18
ENDBRANCH  13  15
ENDBRANCH   1  13
TORSDOF 8
ENDMDL
