MODEL 1
REMARK VINA RESULT:      -7.1      0.000      0.000
REMARK  Name = 
REMARK  6 active torsions:
REMARK  status: ('A' for Active; 'I' for Inactive)
REMARK    1  A    between atoms: C_1  and  C_2
REMARK    2  A    between atoms: C_2  and  C_3
REMARK    3  A    between atoms: C_2  and  C_4
REMARK    4  A    between atoms: C_7  and  C_8
REMARK    5  A    between atoms: N_9  and  N_10
REMARK    6  A    between atoms: C_11  and  C_13
REMARK                            x       y       z     vdW  Elec       q    Type
REMARK                         _______ _______ _______ _____ _____    ______ ____
ROOT
ATOM      1  C   UNL     1       8.673   9.913  17.633  0.00  0.00    +0.000 C 
ATOM      2  N   UNL     1       8.143   8.837  18.114  0.00  0.00    +0.000 NA
ENDROOT
BRANCH   1   6
ATOM      3  C   UNL     1      10.025  13.002  20.300  0.00  0.00    +0.000 A 
ATOM      4  C   UNL     1       9.826  13.266  18.935  0.00  0.00    +0.000 A 
ATOM      5  C   UNL     1       9.399  12.260  18.067  0.00  0.00    +0.000 A 
ATOM      6  C   UNL     1       9.164  10.969  18.549  0.00  0.00    +0.000 A 
ATOM      7  C   UNL     1       9.371  10.683  19.899  0.00  0.00    +0.000 A 
ATOM      8  C   UNL     1       9.796  11.699  20.769  0.00  0.00    +0.000 A 
BRANCH   3  10
ATOM      9  C   UNL     1      10.740  15.391  20.382  0.00  0.00    +0.000 C 
ATOM     10  C   UNL     1      10.399  14.156  21.219  0.00  0.00    +0.000 C 
ATOM     11  C   UNL     1       9.341  14.499  22.270  0.00  0.00    +0.000 C 
ENDBRANCH   3  10
ENDBRANCH   1   6
BRANCH   2  12
ATOM     12  N   UNL     1       7.708   7.892  17.241  0.00  0.00    +0.000 N 
ATOM     13  C   UNL     1       7.476   6.610  17.718  0.00  0.00    +0.000 C 
ATOM     14  O   UNL     1       7.656   6.239  18.876  0.00  0.00    +0.000 OA
ATOM     15  H   UNL     1       7.530   8.107  16.262  0.00  0.00    +0.000 HD
BRANCH  13  16
ATOM     16  C   UNL     1       6.963   5.644  16.715  0.00  0.00    +0.000 A 
ATOM     17  C   UNL     1       5.994   4.724  17.096  0.00  0.00    +0.000 A 
ATOM     18  N   UNL     1       5.463   3.823  16.232  0.00  0.00    +0.000 NA
ATOM     19  C   UNL     1       5.945   3.885  14.971  0.00  0.00    +0.000 A 
ATOM     20  C   UNL     1       6.918   4.800  14.589  0.00  0.00    +0.000 A 
ATOM     21  N   UNL     1       7.457   5.705  15.443  0.00  0.00    +0.000 NA
ENDBRANCH  13  16
ENDBRANCH   2  12
TORSDOF 4
ENDMDL
MODEL 2
REMARK VINA RESULT:      -7.0      0.263      1.105
REMARK  Name = 
REMARK  6 active torsions:
REMARK  status: ('A' for Active; 'I' for Inactive)
REMARK    1  A    between atoms: C_1  and  C_2
REMARK    2  A    between atoms: C_2  and  C_3
REMARK    3  A    between atoms: C_2  and  C_4
REMARK    4  A    between atoms: C_7  and  C_8
REMARK    5  A    between atoms: N_9  and  N_10
REMARK    6  A    between atoms: C_11  and  C_13
REMARK                            x       y       z     vdW  Elec       q    Type
REMARK                         _______ _______ _______ _____ _____    ______ ____
ROOT
ATOM      1  C   UNL     1       8.642   9.748  17.610  0.00  0.00    +0.000 C 
ATOM      2  N   UNL     1       7.667   8.982  17.977  0.00  0.00    +0.000 NA
ENDROOT
BRANCH   1   6
ATOM      3  C   UNL     1       9.996  12.943  20.148  0.00  0.00    +0.000 A 
ATOM      4  C   UNL     1       9.932  11.623  20.624  0.00  0.00    +0.000 A 
ATOM      5  C   UNL     1       9.480  10.589  19.804  0.00  0.00    +0.000 A 
ATOM      6  C   UNL     1       9.083  10.855  18.490  0.00  0.00    +0.000 A 
ATOM      7  C   UNL     1       9.126  12.162  18.004  0.00  0.00    +0.000 A 
ATOM      8  C   UNL     1       9.585  13.198  18.831  0.00  0.00    +0.000 A 
BRANCH   3  10
ATOM      9  C   UNL     1      11.127  15.167  20.200  0.00  0.00    +0.000 C 
ATOM     10  C   UNL     1      10.585  14.016  21.052  0.00  0.00    +0.000 C 
ATOM     11  C   UNL     1       9.624  14.548  22.117  0.00  0.00    +0.000 C 
ENDBRANCH   3  10
ENDBRANCH   1   6
BRANCH   2  12
ATOM     12  N   UNL     1       7.294   7.977  17.143  0.00  0.00    +0.000 N 
ATOM     13  C   UNL     1       7.414   6.670  17.591  0.00  0.00    +0.000 C 
ATOM     14  O   UNL     1       7.859   6.332  18.686  0.00  0.00    +0.000 OA
ATOM     15  H   UNL     1       6.915   8.161  16.216  0.00  0.00    +0.000 HD
BRANCH  13  16
ATOM     16  C   UNL     1       6.950   5.629  16.640  0.00  0.00    +0.000 A 
ATOM     17  C   UNL     1       5.988   4.716  17.055  0.00  0.00    +0.000 A 
ATOM     18  N   UNL     1       5.501   3.749  16.238  0.00  0.00    +0.000 NA
ATOM     19  C   UNL     1       6.018   3.737  14.989  0.00  0.00    +0.000 A 
ATOM     20  C   UNL     1       6.982   4.646  14.575  0.00  0.00    +0.000 A 
ATOM     21  N   UNL     1       7.479   5.617  15.382  0.00  0.00    +0.000 NA
ENDBRANCH  13  16
ENDBRANCH   2  12
TORSDOF 4
ENDMDL
MODEL 3
REMARK VINA RESULT:      -6.8      6.844      9.781
REMARK  Name = 
REMARK  6 active torsions:
REMARK  status: ('A' for Active; 'I' for Inactive)
REMARK    1  A    between atoms: C_1  and  C_2
REMARK    2  A    between atoms: C_2  and  C_3
REMARK    3  A    between atoms: C_2  and  C_4
REMARK    4  A    between atoms: C_7  and  C_8
REMARK    5  A    between atoms: N_9  and  N_10
REMARK    6  A    between atoms: C_11  and  C_13
REMARK                            x       y       z     vdW  Elec       q    Type
REMARK                         _______ _______ _______ _____ _____    ______ ____
ROOT
ATOM      1  C   UNL     1       3.416   6.475  18.576  0.00  0.00    +0.000 C 
ATOM      2  N   UNL     1       2.505   7.371  18.375  0.00  0.00    +0.000 NA
ENDROOT
BRANCH   1   6
ATOM      3  C   UNL     1       5.447   4.633  15.264  0.00  0.00    +0.000 A 
ATOM      4  C   UNL     1       5.428   6.030  15.411  0.00  0.00    +0.000 A 
ATOM      5  C   UNL     1       4.758   6.628  16.479  0.00  0.00    +0.000 A 
ATOM      6  C   UNL     1       4.092   5.839  17.421  0.00  0.00    +0.000 A 
ATOM      7  C   UNL     1       4.088   4.450  17.285  0.00  0.00    +0.000 A 
ATOM      8  C   UNL     1       4.766   3.853  16.212  0.00  0.00    +0.000 A 
BRANCH   3  10
ATOM      9  C   UNL     1       5.356   3.675  12.962  0.00  0.00    +0.000 C 
ATOM     10  C   UNL     1       6.272   4.029  14.137  0.00  0.00    +0.000 C 
ATOM     11  C   UNL     1       7.435   4.903  13.662  0.00  0.00    +0.000 C 
ENDBRANCH   3  10
ENDBRANCH   1   6
BRANCH   2  12
ATOM     12  N   UNL     1       1.910   7.933  19.460  0.00  0.00    +0.000 N 
ATOM     13  C   UNL     1       1.286   9.162  19.307  0.00  0.00    +0.000 C 
ATOM     14  O   UNL     1       1.244   9.813  18.265  0.00  0.00    +0.000 OA
ATOM     15  H   UNL     1       1.895   7.467  20.365  0.00  0.00    +0.000 HD
BRANCH  13  16
ATOM     16  C   UNL     1       0.625   9.692  20.524  0.00  0.00    +0.000 A 
ATOM     17  C   UNL     1       1.004   9.201  21.768  0.00  0.00    +0.000 A 
ATOM     18  N   UNL     1       0.459   9.649  22.926  0.00  0.00    +0.000 NA
ATOM     19  C   UNL     1      -0.480  10.611  22.785  0.00  0.00    +0.000 A 
ATOM     20  C   UNL     1      -0.864  11.100  21.543  0.00  0.00    +0.000 A 
ATOM     21  N   UNL     1      -0.328  10.659  20.377  0.00  0.00    +0.000 NA
ENDBRANCH  13  16
ENDBRANCH   2  12
TORSDOF 4
ENDMDL
MODEL 4
REMARK VINA RESULT:      -6.7      2.754      8.714
REMARK  Name = 
REMARK  6 active torsions:
REMARK  status: ('A' for Active; 'I' for Inactive)
REMARK    1  A    between atoms: C_1  and  C_2
REMARK    2  A    between atoms: C_2  and  C_3
REMARK    3  A    between atoms: C_2  and  C_4
REMARK    4  A    between atoms: C_7  and  C_8
REMARK    5  A    between atoms: N_9  and  N_10
REMARK    6  A    between atoms: C_11  and  C_13
REMARK                            x       y       z     vdW  Elec       q    Type
REMARK                         _______ _______ _______ _____ _____    ______ ____
ROOT
ATOM      1  C   UNL     1       7.870   8.250  17.393  0.00  0.00    +0.000 C 
ATOM      2  N   UNL     1       8.317   8.921  18.404  0.00  0.00    +0.000 NA
ENDROOT
BRANCH   1   6
ATOM      3  C   UNL     1       5.338   4.823  17.970  0.00  0.00    +0.000 A 
ATOM      4  C   UNL     1       4.915   5.907  17.183  0.00  0.00    +0.000 A 
ATOM      5  C   UNL     1       5.732   7.025  17.007  0.00  0.00    +0.000 A 
ATOM      6  C   UNL     1       6.989   7.080  17.615  0.00  0.00    +0.000 A 
ATOM      7  C   UNL     1       7.421   6.019  18.412  0.00  0.00    +0.000 A 
ATOM      8  C   UNL     1       6.599   4.896  18.584  0.00  0.00    +0.000 A 
BRANCH   3  10
ATOM      9  C   UNL     1       4.303   3.158  19.513  0.00  0.00    +0.000 C 
ATOM     10  C   UNL     1       4.450   3.591  18.052  0.00  0.00    +0.000 C 
ATOM     11  C   UNL     1       3.073   3.755  17.403  0.00  0.00    +0.000 C 
ENDBRANCH   3  10
ENDBRANCH   1   6
BRANCH   2  12
ATOM     12  N   UNL     1       9.120   9.989  18.158  0.00  0.00    +0.000 N 
ATOM     13  C   UNL     1       9.592  10.721  19.238  0.00  0.00    +0.000 C 
ATOM     14  O   UNL     1       9.325  10.501  20.417  0.00  0.00    +0.000 OA
ATOM     15  H   UNL     1       9.394  10.248  17.212  0.00  0.00    +0.000 HD
BRANCH  13  16
ATOM     16  C   UNL     1      10.495  11.847  18.893  0.00  0.00    +0.000 A 
ATOM     17  C   UNL     1      11.153  12.523  19.914  0.00  0.00    +0.000 A 
ATOM     18  N   UNL     1      12.007  13.550  19.677  0.00  0.00    +0.000 NA
ATOM     19  C   UNL     1      12.174  13.868  18.374  0.00  0.00    +0.000 A 
ATOM     20  C   UNL     1      11.515  13.197  17.353  0.00  0.00    +0.000 A 
ATOM     21  N   UNL     1      10.657  12.170  17.576  0.00  0.00    +0.000 NA
ENDBRANCH  13  16
ENDBRANCH   2  12
TORSDOF 4
ENDMDL
MODEL 5
REMARK VINA RESULT:      -6.6      2.792      8.717
REMARK  Name = 
REMARK  6 active torsions:
REMARK  status: ('A' for Active; 'I' for Inactive)
REMARK    1  A    between atoms: C_1  and  C_2
REMARK    2  A    between atoms: C_2  and  C_3
REMARK    3  A    between atoms: C_2  and  C_4
REMARK    4  A    between atoms: C_7  and  C_8
REMARK    5  A    between atoms: N_9  and  N_10
REMARK    6  A    between atoms: C_11  and  C_13
REMARK                            x       y       z     vdW  Elec       q    Type
REMARK                         _______ _______ _______ _____ _____    ______ ____
ROOT
ATOM      1  C   UNL     1       8.140   8.281  17.505  0.00  0.00    +0.000 C 
ATOM      2  N   UNL     1       8.246   9.197  18.412  0.00  0.00    +0.000 NA
ENDROOT
BRANCH   1   6
ATOM      3  C   UNL     1       5.494   4.935  18.043  0.00  0.00    +0.000 A 
ATOM      4  C   UNL     1       5.126   6.021  17.231  0.00  0.00    +0.000 A 
ATOM      5  C   UNL     1       5.981   7.113  17.067  0.00  0.00    +0.000 A 
ATOM      6  C   UNL     1       7.220   7.139  17.713  0.00  0.00    +0.000 A 
ATOM      7  C   UNL     1       7.596   6.077  18.536  0.00  0.00    +0.000 A 
ATOM      8  C   UNL     1       6.737   4.980  18.695  0.00  0.00    +0.000 A 
BRANCH   3  10
ATOM      9  C   UNL     1       4.024   3.579  19.535  0.00  0.00    +0.000 C 
ATOM     10  C   UNL     1       4.568   3.730  18.112  0.00  0.00    +0.000 C 
ATOM     11  C   UNL     1       3.419   3.753  17.101  0.00  0.00    +0.000 C 
ENDBRANCH   3  10
ENDBRANCH   1   6
BRANCH   2  12
ATOM     12  N   UNL     1       9.100  10.229  18.182  0.00  0.00    +0.000 N 
ATOM     13  C   UNL     1       9.656  10.879  19.273  0.00  0.00    +0.000 C 
ATOM     14  O   UNL     1       9.424  10.617  20.451  0.00  0.00    +0.000 OA
ATOM     15  H   UNL     1       9.351  10.517  17.238  0.00  0.00    +0.000 HD
BRANCH  13  16
ATOM     16  C   UNL     1      10.609  11.968  18.943  0.00  0.00    +0.000 A 
ATOM     17  C   UNL     1      11.178  12.007  17.676  0.00  0.00    +0.000 A 
ATOM     18  N   UNL     1      12.042  12.981  17.294  0.00  0.00    +0.000 NA
ATOM     19  C   UNL     1      12.308  13.914  18.235  0.00  0.00    +0.000 A 
ATOM     20  C   UNL     1      11.743  13.874  19.504  0.00  0.00    +0.000 A 
ATOM     21  N   UNL     1      10.880  12.905  19.899  0.00  0.00    +0.000 NA
ENDBRANCH  13  16
ENDBRANCH   2  12
TORSDOF 4
ENDMDL
MODEL 6
REMARK VINA RESULT:      -6.6      2.777      8.757
REMARK  Name = 
REMARK  6 active torsions:
REMARK  status: ('A' for Active; 'I' for Inactive)
REMARK    1  A    between atoms: C_1  and  C_2
REMARK    2  A    between atoms: C_2  and  C_3
REMARK    3  A    between atoms: C_2  and  C_4
REMARK    4  A    between atoms: C_7  and  C_8
REMARK    5  A    between atoms: N_9  and  N_10
REMARK    6  A    between atoms: C_11  and  C_13
REMARK                            x       y       z     vdW  Elec       q    Type
REMARK                         _______ _______ _______ _____ _____    ______ ____
ROOT
ATOM      1  C   UNL     1       8.035   8.408  17.542  0.00  0.00    +0.000 C 
ATOM      2  N   UNL     1       8.485   9.073  18.556  0.00  0.00    +0.000 NA
ENDROOT
BRANCH   1   6
ATOM      3  C   UNL     1       5.542   4.976  18.239  0.00  0.00    +0.000 A 
ATOM      4  C   UNL     1       6.768   5.123  18.908  0.00  0.00    +0.000 A 
ATOM      5  C   UNL     1       7.583   6.231  18.672  0.00  0.00    +0.000 A 
ATOM      6  C   UNL     1       7.186   7.214  17.761  0.00  0.00    +0.000 A 
ATOM      7  C   UNL     1       5.978   7.078  17.076  0.00  0.00    +0.000 A 
ATOM      8  C   UNL     1       5.160   5.965  17.319  0.00  0.00    +0.000 A 
BRANCH   3  10
ATOM      9  C   UNL     1       3.628   4.234  19.658  0.00  0.00    +0.000 C 
ATOM     10  C   UNL     1       4.649   3.799  18.604  0.00  0.00    +0.000 C 
ATOM     11  C   UNL     1       3.942   3.145  17.414  0.00  0.00    +0.000 C 
ENDBRANCH   3  10
ENDBRANCH   1   6
BRANCH   2  12
ATOM     12  N   UNL     1       9.258  10.163  18.314  0.00  0.00    +0.000 N 
ATOM     13  C   UNL     1       9.703  10.909  19.395  0.00  0.00    +0.000 C 
ATOM     14  O   UNL     1       9.436  10.683  20.573  0.00  0.00    +0.000 OA
ATOM     15  H   UNL     1       9.531  10.429  17.369  0.00  0.00    +0.000 HD
BRANCH  13  16
ATOM     16  C   UNL     1      10.575  12.061  19.054  0.00  0.00    +0.000 A 
ATOM     17  C   UNL     1      11.313  12.025  17.877  0.00  0.00    +0.000 A 
ATOM     18  N   UNL     1      12.117  13.047  17.489  0.00  0.00    +0.000 NA
ATOM     19  C   UNL     1      12.148  14.104  18.329  0.00  0.00    +0.000 A 
ATOM     20  C   UNL     1      11.415  14.140  19.509  0.00  0.00    +0.000 A 
ATOM     21  N   UNL     1      10.609  13.125  19.909  0.00  0.00    +0.000 NA
ENDBRANCH  13  16
ENDBRANCH   2  12
TORSDOF 4
ENDMDL
MODEL 7
REMARK VINA RESULT:      -6.6      6.787      9.763
REMARK  Name = 
REMARK  6 active torsions:
REMARK  status: ('A' for Active; 'I' for Inactive)
REMARK    1  A    between atoms: C_1  and  C_2
REMARK    2  A    between atoms: C_2  and  C_3
REMARK    3  A    between atoms: C_2  and  C_4
REMARK    4  A    between atoms: C_7  and  C_8
REMARK    5  A    between atoms: N_9  and  N_10
REMARK    6  A    between atoms: C_11  and  C_13
REMARK                            x       y       z     vdW  Elec       q    Type
REMARK                         _______ _______ _______ _____ _____    ______ ____
ROOT
ATOM      1  C   UNL     1       3.548   6.323  18.387  0.00  0.00    +0.000 C 
ATOM      2  N   UNL     1       2.750   7.322  18.195  0.00  0.00    +0.000 NA
ENDROOT
BRANCH   1   6
ATOM      3  C   UNL     1       5.653   4.641  15.036  0.00  0.00    +0.000 A 
ATOM      4  C   UNL     1       5.055   3.813  16.000  0.00  0.00    +0.000 A 
ATOM      5  C   UNL     1       4.383   4.360  17.094  0.00  0.00    +0.000 A 
ATOM      6  C   UNL     1       4.296   5.746  17.245  0.00  0.00    +0.000 A 
ATOM      7  C   UNL     1       4.896   6.586  16.306  0.00  0.00    +0.000 A 
ATOM      8  C   UNL     1       5.568   6.032  15.206  0.00  0.00    +0.000 A 
BRANCH   3  10
ATOM      9  C   UNL     1       5.204   3.626  12.802  0.00  0.00    +0.000 C 
ATOM     10  C   UNL     1       6.291   3.996  13.814  0.00  0.00    +0.000 C 
ATOM     11  C   UNL     1       7.379   4.839  13.145  0.00  0.00    +0.000 C 
ENDBRANCH   3  10
ENDBRANCH   1   6
BRANCH   2  12
ATOM     12  N   UNL     1       2.084   7.823  19.268  0.00  0.00    +0.000 N 
ATOM     13  C   UNL     1       1.510   9.081  19.159  0.00  0.00    +0.000 C 
ATOM     14  O   UNL     1       1.572   9.807  18.169  0.00  0.00    +0.000 OA
ATOM     15  H   UNL     1       1.981   7.293  20.132  0.00  0.00    +0.000 HD
BRANCH  13  16
ATOM     16  C   UNL     1       0.765   9.544  20.356  0.00  0.00    +0.000 A 
ATOM     17  C   UNL     1       0.929   8.865  21.558  0.00  0.00    +0.000 A 
ATOM     18  N   UNL     1       0.298   9.239  22.699  0.00  0.00    +0.000 NA
ATOM     19  C   UNL     1      -0.503  10.322  22.583  0.00  0.00    +0.000 A 
ATOM     20  C   UNL     1      -0.671  10.999  21.382  0.00  0.00    +0.000 A 
ATOM     21  N   UNL     1      -0.047  10.634  20.234  0.00  0.00    +0.000 NA
ENDBRANCH  13  16
ENDBRANCH   2  12
TORSDOF 4
ENDMDL
MODEL 8
REMARK VINA RESULT:      -6.6      2.712      8.754
REMARK  Name = 
REMARK  6 active torsions:
REMARK  status: ('A' for Active; 'I' for Inactive)
REMARK    1  A    between atoms: C_1  and  C_2
REMARK    2  A    between atoms: C_2  and  C_3
REMARK    3  A    between atoms: C_2  and  C_4
REMARK    4  A    between atoms: C_7  and  C_8
REMARK    5  A    between atoms: N_9  and  N_10
REMARK    6  A    between atoms: C_11  and  C_13
REMARK                            x       y       z     vdW  Elec       q    Type
REMARK                         _______ _______ _______ _____ _____    ______ ____
ROOT
ATOM      1  C   UNL     1       7.735   8.210  17.327  0.00  0.00    +0.000 C 
ATOM      2  N   UNL     1       8.281   8.750  18.368  0.00  0.00    +0.000 NA
ENDROOT
BRANCH   1   6
ATOM      3  C   UNL     1       5.232   4.750  17.825  0.00  0.00    +0.000 A 
ATOM      4  C   UNL     1       6.325   4.977  18.678  0.00  0.00    +0.000 A 
ATOM      5  C   UNL     1       7.145   6.094  18.507  0.00  0.00    +0.000 A 
ATOM      6  C   UNL     1       6.886   7.006  17.480  0.00  0.00    +0.000 A 
ATOM      7  C   UNL     1       5.814   6.790  16.614  0.00  0.00    +0.000 A 
ATOM      8  C   UNL     1       4.990   5.668  16.791  0.00  0.00    +0.000 A 
BRANCH   3  10
ATOM      9  C   UNL     1       4.485   3.130  19.570  0.00  0.00    +0.000 C 
ATOM     10  C   UNL     1       4.315   3.571  18.114  0.00  0.00    +0.000 C 
ATOM     11  C   UNL     1       2.838   3.822  17.801  0.00  0.00    +0.000 C 
ENDBRANCH   3  10
ENDBRANCH   1   6
BRANCH   2  12
ATOM     12  N   UNL     1       9.050   9.855  18.186  0.00  0.00    +0.000 N 
ATOM     13  C   UNL     1       9.444  10.575  19.304  0.00  0.00    +0.000 C 
ATOM     14  O   UNL     1       9.134  10.312  20.464  0.00  0.00    +0.000 OA
ATOM     15  H   UNL     1       9.355  10.150  17.260  0.00  0.00    +0.000 HD
BRANCH  13  16
ATOM     16  C   UNL     1      10.315  11.745  19.029  0.00  0.00    +0.000 A 
ATOM     17  C   UNL     1      11.409  11.981  19.853  0.00  0.00    +0.000 A 
ATOM     18  N   UNL     1      12.261  13.018  19.654  0.00  0.00    +0.000 NA
ATOM     19  C   UNL     1      11.970  13.806  18.595  0.00  0.00    +0.000 A 
ATOM     20  C   UNL     1      10.874  13.574  17.774  0.00  0.00    +0.000 A 
ATOM     21  N   UNL     1      10.014  12.542  17.963  0.00  0.00    +0.000 NA
ENDBRANCH  13  16
ENDBRANCH   2  12
TORSDOF 4
ENDMDL
MODEL 9
REMARK VINA RESULT:      -6.5      6.775      9.807
REMARK  Name = 
REMARK  6 active torsions:
REMARK  status: ('A' for Active; 'I' for Inactive)
REMARK    1  A    between atoms: C_1  and  C_2
REMARK    2  A    between atoms: C_2  and  C_3
REMARK    3  A    between atoms: C_2  and  C_4
REMARK    4  A    between atoms: C_7  and  C_8
REMARK    5  A    between atoms: N_9  and  N_10
REMARK    6  A    between atoms: C_11  and  C_13
REMARK                            x       y       z     vdW  Elec       q    Type
REMARK                         _______ _______ _______ _____ _____    ______ ____
ROOT
ATOM      1  C   UNL     1       3.577   6.388  18.560  0.00  0.00    +0.000 C 
ATOM      2  N   UNL     1       2.618   7.230  18.351  0.00  0.00    +0.000 NA
ENDROOT
BRANCH   1   6
ATOM      3  C   UNL     1       5.626   4.673  15.192  0.00  0.00    +0.000 A 
ATOM      4  C   UNL     1       5.030   3.854  16.165  0.00  0.00    +0.000 A 
ATOM      5  C   UNL     1       4.376   4.411  17.265  0.00  0.00    +0.000 A 
ATOM      6  C   UNL     1       4.306   5.800  17.412  0.00  0.00    +0.000 A 
ATOM      7  C   UNL     1       4.905   6.629  16.463  0.00  0.00    +0.000 A 
ATOM      8  C   UNL     1       5.558   6.065  15.358  0.00  0.00    +0.000 A 
BRANCH   3  10
ATOM      9  C   UNL     1       5.140   3.638  12.974  0.00  0.00    +0.000 C 
ATOM     10  C   UNL     1       6.243   4.016  13.965  0.00  0.00    +0.000 C 
ATOM     11  C   UNL     1       7.321   4.852  13.271  0.00  0.00    +0.000 C 
ENDBRANCH   3  10
ENDBRANCH   1   6
BRANCH   2  12
ATOM     12  N   UNL     1       1.975   7.748  19.430  0.00  0.00    +0.000 N 
ATOM     13  C   UNL     1       1.428   9.018  19.323  0.00  0.00    +0.000 C 
ATOM     14  O   UNL     1       1.494   9.739  18.331  0.00  0.00    +0.000 OA
ATOM     15  H   UNL     1       1.871   7.223  20.296  0.00  0.00    +0.000 HD
BRANCH  13  16
ATOM     16  C   UNL     1       0.708   9.500  20.528  0.00  0.00    +0.000 A 
ATOM     17  C   UNL     1       0.047  10.722  20.476  0.00  0.00    +0.000 A 
ATOM     18  N   UNL     1      -0.647  11.220  21.530  0.00  0.00    +0.000 NA
ATOM     19  C   UNL     1      -0.653  10.441  22.634  0.00  0.00    +0.000 A 
ATOM     20  C   UNL     1       0.010   9.222  22.689  0.00  0.00    +0.000 A 
ATOM     21  N   UNL     1       0.709   8.713  21.644  0.00  0.00    +0.000 NA
ENDBRANCH  13  16
ENDBRANCH   2  12
TORSDOF 4
ENDMDL
