MODEL 1
REMARK VINA RESULT:      -6.7      0.000      0.000
REMARK  Name = 
REMARK  8 active torsions:
REMARK  status: ('A' for Active; 'I' for Inactive)
REMARK    1  A    between atoms: C_1  and  C_2
REMARK    2  A    between atoms: C_2  and  C_3
REMARK    3  A    between atoms: C_3  and  S_4
REMARK    4  A    between atoms: S_4  and  C_5
REMARK    5  A    between atoms: N_8  and  C_9
REMARK    6  A    between atoms: C_9  and  C_10
REMARK    7  A    between atoms: C_10  and  C_11
REMARK    8  A    between atoms: N_19  and  C_20
REMARK                            x       y       z     vdW  Elec       q    Type
REMARK                         _______ _______ _______ _____ _____    ______ ____
ROOT
ATOM      1  C   UNL     1      -1.026  12.086  21.954  0.00  0.00    +0.000 A 
ATOM      2  N   UNL     1      -1.509  11.838  20.720  0.00  0.00    +0.000 NA
ATOM      3  C   UNL     1      -1.078  10.749  20.043  0.00  0.00    +0.000 A 
ATOM      4  N   UNL     1      -1.571  10.449  18.767  0.00  0.00    +0.000 N 
ATOM      5  C   UNL     1      -0.129   9.912  20.666  0.00  0.00    +0.000 A 
ATOM      6  N   UNL     1       0.450   8.749  20.182  0.00  0.00    +0.000 NA
ATOM      7  C   UNL     1       1.352   8.304  21.029  0.00  0.00    +0.000 A 
ATOM      8  N   UNL     1       2.174   7.247  20.825  0.00  0.00    +0.000 N 
ATOM      9  S   UNL     1       1.507   9.237  22.480  0.00  0.00    +0.000 S 
ATOM     10  C   UNL     1       0.305  10.304  21.918  0.00  0.00    +0.000 A 
ATOM     11  N   UNL     1      -0.105  11.373  22.619  0.00  0.00    +0.000 NA
ATOM     12  H   UNL     1      -0.964   9.760  18.320  0.00  0.00    +0.000 HD
ATOM     13  H   UNL     1       3.010   7.167  21.384  0.00  0.00    +0.000 HD
ENDROOT
BRANCH   8  14
ATOM     14  C   UNL     1       1.942   6.158  19.965  0.00  0.00    +0.000 A 
ATOM     15  C   UNL     1       1.352   4.995  20.483  0.00  0.00    +0.000 A 
ATOM     16  C   UNL     1       1.137   3.874  19.676  0.00  0.00    +0.000 A 
ATOM     17  C   UNL     1       1.505   3.899  18.333  0.00  0.00    +0.000 A 
ATOM     18  C   UNL     1       2.102   5.040  17.804  0.00  0.00    +0.000 A 
ATOM     19  C   UNL     1       2.335   6.152  18.620  0.00  0.00    +0.000 A 
ENDBRANCH   8  14
BRANCH   1  20
ATOM     20  S   UNL     1      -1.661  13.523  22.787  0.00  0.00    +0.000 S 
BRANCH  20  21
ATOM     21  C   UNL     1      -3.439  13.173  22.607  0.00  0.00    +0.000 C 
BRANCH  21  23
ATOM     22  C   UNL     1      -4.393  12.423  24.817  0.00  0.00    +0.000 C 
ATOM     23  C   UNL     1      -4.180  13.598  23.873  0.00  0.00    +0.000 C 
ENDBRANCH  21  23
ENDBRANCH  20  21
ENDBRANCH   1  20
BRANCH   4  24
ATOM     24  C   UNL     1      -1.942  11.593  17.933  0.00  0.00    +0.000 C 
BRANCH  24  25
ATOM     25  C   UNL     1      -3.251  11.281  17.193  0.00  0.00    +0.000 C 
BRANCH  25  26
ATOM     26  C   UNL     1      -4.455  11.287  18.093  0.00  0.00    +0.000 A 
ATOM     27  C   UNL     1      -5.525  10.415  18.093  0.00  0.00    +0.000 A 
ATOM     28  C   UNL     1      -6.513  10.761  19.061  0.00  0.00    +0.000 A 
ATOM     29  C   UNL     1      -6.162  11.885  19.773  0.00  0.00    +0.000 A 
ATOM     30  S   UNL     1      -4.649  12.513  19.277  0.00  0.00    +0.000 S 
ENDBRANCH  25  26
ENDBRANCH  24  25
ENDBRANCH   4  24
TORSDOF 7
ENDMDL
MODEL 2
REMARK VINA RESULT:      -6.6      0.927      1.338
REMARK  Name = 
REMARK  8 active torsions:
REMARK  status: ('A' for Active; 'I' for Inactive)
REMARK    1  A    between atoms: C_1  and  C_2
REMARK    2  A    between atoms: C_2  and  C_3
REMARK    3  A    between atoms: C_3  and  S_4
REMARK    4  A    between atoms: S_4  and  C_5
REMARK    5  A    between atoms: N_8  and  C_9
REMARK    6  A    between atoms: C_9  and  C_10
REMARK    7  A    between atoms: C_10  and  C_11
REMARK    8  A    between atoms: N_19  and  C_20
REMARK                            x       y       z     vdW  Elec       q    Type
REMARK                         _______ _______ _______ _____ _____    ______ ____
ROOT
ATOM      1  C   UNL     1      -1.057  12.207  21.383  0.00  0.00    +0.000 A 
ATOM      2  N   UNL     1      -1.600  11.790  20.222  0.00  0.00    +0.000 NA
ATOM      3  C   UNL     1      -1.177  10.630  19.669  0.00  0.00    +0.000 A 
ATOM      4  N   UNL     1      -1.729  10.156  18.472  0.00  0.00    +0.000 N 
ATOM      5  C   UNL     1      -0.173   9.902  20.339  0.00  0.00    +0.000 A 
ATOM      6  N   UNL     1       0.411   8.697  19.978  0.00  0.00    +0.000 NA
ATOM      7  C   UNL     1       1.369   8.385  20.822  0.00  0.00    +0.000 A 
ATOM      8  N   UNL     1       2.207   7.326  20.710  0.00  0.00    +0.000 N 
ATOM      9  S   UNL     1       1.577   9.502  22.129  0.00  0.00    +0.000 S 
ATOM     10  C   UNL     1       0.318  10.463  21.502  0.00  0.00    +0.000 A 
ATOM     11  N   UNL     1      -0.083  11.605  22.082  0.00  0.00    +0.000 NA
ATOM     12  H   UNL     1      -1.130   9.427  18.084  0.00  0.00    +0.000 HD
ATOM     13  H   UNL     1       3.074   7.338  21.226  0.00  0.00    +0.000 HD
ENDROOT
BRANCH   8  14
ATOM     14  C   UNL     1       1.959   6.130  20.013  0.00  0.00    +0.000 A 
ATOM     15  C   UNL     1       2.326   6.039  18.663  0.00  0.00    +0.000 A 
ATOM     16  C   UNL     1       2.065   4.884  17.919  0.00  0.00    +0.000 A 
ATOM     17  C   UNL     1       1.436   3.796  18.519  0.00  0.00    +0.000 A 
ATOM     18  C   UNL     1       1.054   3.871  19.855  0.00  0.00    +0.000 A 
ATOM     19  C   UNL     1       1.297   5.037  20.589  0.00  0.00    +0.000 A 
ENDBRANCH   8  14
BRANCH   1  20
ATOM     20  S   UNL     1      -1.686  13.728  22.058  0.00  0.00    +0.000 S 
BRANCH  20  21
ATOM     21  C   UNL     1      -2.382  13.067  23.606  0.00  0.00    +0.000 C 
BRANCH  21  23
ATOM     22  C   UNL     1      -4.517  12.296  24.703  0.00  0.00    +0.000 C 
ATOM     23  C   UNL     1      -3.905  13.002  23.502  0.00  0.00    +0.000 C 
ENDBRANCH  21  23
ENDBRANCH  20  21
ENDBRANCH   1  20
BRANCH   4  24
ATOM     24  C   UNL     1      -2.177  11.173  17.519  0.00  0.00    +0.000 C 
BRANCH  24  25
ATOM     25  C   UNL     1      -3.373  10.634  16.722  0.00  0.00    +0.000 C 
BRANCH  25  26
ATOM     26  C   UNL     1      -4.691  11.188  17.184  0.00  0.00    +0.000 A 
ATOM     27  C   UNL     1      -5.335  12.329  16.753  0.00  0.00    +0.000 A 
ATOM     28  C   UNL     1      -6.551  12.572  17.457  0.00  0.00    +0.000 A 
ATOM     29  C   UNL     1      -6.798  11.602  18.403  0.00  0.00    +0.000 A 
ATOM     30  S   UNL     1      -5.571  10.409  18.434  0.00  0.00    +0.000 S 
ENDBRANCH  25  26
ENDBRANCH  24  25
ENDBRANCH   4  24
TORSDOF 7
ENDMDL
MODEL 3
REMARK VINA RESULT:      -6.5      2.361      7.549
REMARK  Name = 
REMARK  8 active torsions:
REMARK  status: ('A' for Active; 'I' for Inactive)
REMARK    1  A    between atoms: C_1  and  C_2
REMARK    2  A    between atoms: C_2  and  C_3
REMARK    3  A    between atoms: C_3  and  S_4
REMARK    4  A    between atoms: S_4  and  C_5
REMARK    5  A    between atoms: N_8  and  C_9
REMARK    6  A    between atoms: C_9  and  C_10
REMARK    7  A    between atoms: C_10  and  C_11
REMARK    8  A    between atoms: N_19  and  C_20
REMARK                            x       y       z     vdW  Elec       q    Type
REMARK                         _______ _______ _______ _____ _____    ______ ____
ROOT
ATOM      1  C   UNL     1      -0.057  11.585  19.558  0.00  0.00    +0.000 A 
ATOM      2  N   UNL     1      -1.136  11.779  18.773  0.00  0.00    +0.000 NA
ATOM      3  C   UNL     1      -2.325  12.084  19.340  0.00  0.00    +0.000 A 
ATOM      4  N   UNL     1      -3.463  12.309  18.556  0.00  0.00    +0.000 N 
ATOM      5  C   UNL     1      -2.383  12.186  20.745  0.00  0.00    +0.000 A 
ATOM      6  N   UNL     1      -3.474  12.492  21.546  0.00  0.00    +0.000 NA
ATOM      7  C   UNL     1      -3.142  12.407  22.816  0.00  0.00    +0.000 A 
ATOM      8  N   UNL     1      -3.989  12.544  23.864  0.00  0.00    +0.000 N 
ATOM      9  S   UNL     1      -1.482  12.008  23.107  0.00  0.00    +0.000 S 
ATOM     10  C   UNL     1      -1.211  11.930  21.428  0.00  0.00    +0.000 A 
ATOM     11  N   UNL     1      -0.014  11.631  20.897  0.00  0.00    +0.000 NA
ATOM     12  H   UNL     1      -4.297  12.274  19.145  0.00  0.00    +0.000 HD
ATOM     13  H   UNL     1      -3.712  12.177  24.762  0.00  0.00    +0.000 HD
ENDROOT
BRANCH   8  14
ATOM     14  C   UNL     1      -5.206  13.250  23.873  0.00  0.00    +0.000 A 
ATOM     15  C   UNL     1      -5.185  14.646  23.750  0.00  0.00    +0.000 A 
ATOM     16  C   UNL     1      -6.366  15.393  23.792  0.00  0.00    +0.000 A 
ATOM     17  C   UNL     1      -7.592  14.752  23.951  0.00  0.00    +0.000 A 
ATOM     18  C   UNL     1      -7.632  13.367  24.086  0.00  0.00    +0.000 A 
ATOM     19  C   UNL     1      -6.446  12.626  24.066  0.00  0.00    +0.000 A 
ENDBRANCH   8  14
BRANCH   1  20
ATOM     20  S   UNL     1       1.475  11.213  18.733  0.00  0.00    +0.000 S 
BRANCH  20  21
ATOM     21  C   UNL     1       1.065   9.537  18.150  0.00  0.00    +0.000 C 
BRANCH  21  23
ATOM     22  C   UNL     1       2.470   7.465  18.443  0.00  0.00    +0.000 C 
ATOM     23  C   UNL     1       2.341   8.807  17.737  0.00  0.00    +0.000 C 
ENDBRANCH  21  23
ENDBRANCH  20  21
ENDBRANCH   1  20
BRANCH   4  24
ATOM     24  C   UNL     1      -3.546  11.552  17.306  0.00  0.00    +0.000 C 
BRANCH  24  25
ATOM     25  C   UNL     1      -4.944  10.928  17.179  0.00  0.00    +0.000 C 
BRANCH  25  26
ATOM     26  C   UNL     1      -6.042  11.833  17.664  0.00  0.00    +0.000 A 
ATOM     27  C   UNL     1      -6.583  12.933  17.032  0.00  0.00    +0.000 A 
ATOM     28  C   UNL     1      -7.579  13.583  17.819  0.00  0.00    +0.000 A 
ATOM     29  C   UNL     1      -7.769  12.952  19.028  0.00  0.00    +0.000 A 
ATOM     30  S   UNL     1      -6.754  11.586  19.205  0.00  0.00    +0.000 S 
ENDBRANCH  25  26
ENDBRANCH  24  25
ENDBRANCH   4  24
TORSDOF 7
ENDMDL
MODEL 4
REMARK VINA RESULT:      -6.4      3.401      7.319
REMARK  Name = 
REMARK  8 active torsions:
REMARK  status: ('A' for Active; 'I' for Inactive)
REMARK    1  A    between atoms: C_1  and  C_2
REMARK    2  A    between atoms: C_2  and  C_3
REMARK    3  A    between atoms: C_3  and  S_4
REMARK    4  A    between atoms: S_4  and  C_5
REMARK    5  A    between atoms: N_8  and  C_9
REMARK    6  A    between atoms: C_9  and  C_10
REMARK    7  A    between atoms: C_10  and  C_11
REMARK    8  A    between atoms: N_19  and  C_20
REMARK                            x       y       z     vdW  Elec       q    Type
REMARK                         _______ _______ _______ _____ _____    ______ ____
ROOT
ATOM      1  C   UNL     1       0.783   8.135  21.090  0.00  0.00    +0.000 A 
ATOM      2  N   UNL     1       1.188   6.892  21.417  0.00  0.00    +0.000 NA
ATOM      3  C   UNL     1       2.055   6.241  20.608  0.00  0.00    +0.000 A 
ATOM      4  N   UNL     1       2.512   4.955  20.924  0.00  0.00    +0.000 N 
ATOM      5  C   UNL     1       2.501   6.901  19.445  0.00  0.00    +0.000 A 
ATOM      6  N   UNL     1       3.385   6.448  18.477  0.00  0.00    +0.000 NA
ATOM      7  C   UNL     1       3.480   7.325  17.502  0.00  0.00    +0.000 A 
ATOM      8  N   UNL     1       4.179   7.156  16.354  0.00  0.00    +0.000 N 
ATOM      9  S   UNL     1       2.551   8.768  17.731  0.00  0.00    +0.000 S 
ATOM     10  C   UNL     1       1.979   8.159  19.215  0.00  0.00    +0.000 A 
ATOM     11  N   UNL     1       1.123   8.836  19.998  0.00  0.00    +0.000 NA
ATOM     12  H   UNL     1       2.943   4.534  20.100  0.00  0.00    +0.000 HD
ATOM     13  H   UNL     1       3.957   7.740  15.561  0.00  0.00    +0.000 HD
ENDROOT
BRANCH   8  14
ATOM     14  C   UNL     1       5.282   6.304  16.160  0.00  0.00    +0.000 A 
ATOM     15  C   UNL     1       5.261   5.398  15.089  0.00  0.00    +0.000 A 
ATOM     16  C   UNL     1       6.316   4.505  14.878  0.00  0.00    +0.000 A 
ATOM     17  C   UNL     1       7.415   4.509  15.734  0.00  0.00    +0.000 A 
ATOM     18  C   UNL     1       7.448   5.394  16.809  0.00  0.00    +0.000 A 
ATOM     19  C   UNL     1       6.380   6.270  17.029  0.00  0.00    +0.000 A 
ENDBRANCH   8  14
BRANCH   1  20
ATOM     20  S   UNL     1      -0.338   8.933  22.218  0.00  0.00    +0.000 S 
BRANCH  20  21
ATOM     21  C   UNL     1       0.119  10.661  21.874  0.00  0.00    +0.000 C 
BRANCH  21  23
ATOM     22  C   UNL     1      -1.511  12.221  23.000  0.00  0.00    +0.000 C 
ATOM     23  C   UNL     1      -1.143  11.506  21.708  0.00  0.00    +0.000 C 
ENDBRANCH  21  23
ENDBRANCH  20  21
ENDBRANCH   1  20
BRANCH   4  24
ATOM     24  C   UNL     1       1.575   4.097  21.651  0.00  0.00    +0.000 C 
BRANCH  24  25
ATOM     25  C   UNL     1       1.775   2.639  21.213  0.00  0.00    +0.000 C 
BRANCH  25  26
ATOM     26  C   UNL     1       2.291   2.508  19.808  0.00  0.00    +0.000 A 
ATOM     27  C   UNL     1       3.560   2.159  19.394  0.00  0.00    +0.000 A 
ATOM     28  C   UNL     1       3.701   2.187  17.975  0.00  0.00    +0.000 A 
ATOM     29  C   UNL     1       2.530   2.554  17.351  0.00  0.00    +0.000 A 
ATOM     30  S   UNL     1       1.273   2.856  18.472  0.00  0.00    +0.000 S 
ENDBRANCH  25  26
ENDBRANCH  24  25
ENDBRANCH   4  24
TORSDOF 7
ENDMDL
MODEL 5
REMARK VINA RESULT:      -6.4      1.827      7.225
REMARK  Name = 
REMARK  8 active torsions:
REMARK  status: ('A' for Active; 'I' for Inactive)
REMARK    1  A    between atoms: C_1  and  C_2
REMARK    2  A    between atoms: C_2  and  C_3
REMARK    3  A    between atoms: C_3  and  S_4
REMARK    4  A    between atoms: S_4  and  C_5
REMARK    5  A    between atoms: N_8  and  C_9
REMARK    6  A    between atoms: C_9  and  C_10
REMARK    7  A    between atoms: C_10  and  C_11
REMARK    8  A    between atoms: N_19  and  C_20
REMARK                            x       y       z     vdW  Elec       q    Type
REMARK                         _______ _______ _______ _____ _____    ______ ____
ROOT
ATOM      1  C   UNL     1       0.614   9.907  18.932  0.00  0.00    +0.000 A 
ATOM      2  N   UNL     1      -0.321  10.588  18.240  0.00  0.00    +0.000 NA
ATOM      3  C   UNL     1      -1.254  11.303  18.909  0.00  0.00    +0.000 A 
ATOM      4  N   UNL     1      -2.230  12.037  18.223  0.00  0.00    +0.000 N 
ATOM      5  C   UNL     1      -1.207  11.302  20.317  0.00  0.00    +0.000 A 
ATOM      6  N   UNL     1      -2.041  11.957  21.212  0.00  0.00    +0.000 NA
ATOM      7  C   UNL     1      -1.721  11.638  22.447  0.00  0.00    +0.000 A 
ATOM      8  N   UNL     1      -2.392  12.021  23.560  0.00  0.00    +0.000 N 
ATOM      9  S   UNL     1      -0.363  10.575  22.594  0.00  0.00    +0.000 S 
ATOM     10  C   UNL     1      -0.217  10.533  20.898  0.00  0.00    +0.000 A 
ATOM     11  N   UNL     1       0.727   9.818  20.266  0.00  0.00    +0.000 NA
ATOM     12  H   UNL     1      -2.979  12.295  18.867  0.00  0.00    +0.000 HD
ATOM     13  H   UNL     1      -2.255  11.499  24.413  0.00  0.00    +0.000 HD
ENDROOT
BRANCH   8  14
ATOM     14  C   UNL     1      -3.210  13.158  23.698  0.00  0.00    +0.000 A 
ATOM     15  C   UNL     1      -2.628  14.370  24.095  0.00  0.00    +0.000 A 
ATOM     16  C   UNL     1      -3.405  15.517  24.282  0.00  0.00    +0.000 A 
ATOM     17  C   UNL     1      -4.781  15.470  24.070  0.00  0.00    +0.000 A 
ATOM     18  C   UNL     1      -5.378  14.272  23.687  0.00  0.00    +0.000 A 
ATOM     19  C   UNL     1      -4.599  13.122  23.522  0.00  0.00    +0.000 A 
ENDBRANCH   8  14
BRANCH   1  20
ATOM     20  S   UNL     1       1.821   9.012  17.979  0.00  0.00    +0.000 S 
BRANCH  20  21
ATOM     21  C   UNL     1       2.180   7.687  19.176  0.00  0.00    +0.000 C 
BRANCH  21  23
ATOM     22  C   UNL     1       3.897   6.697  17.618  0.00  0.00    +0.000 C 
ATOM     23  C   UNL     1       2.641   6.433  18.435  0.00  0.00    +0.000 C 
ENDBRANCH  21  23
ENDBRANCH  20  21
ENDBRANCH   1  20
BRANCH   4  24
ATOM     24  C   UNL     1      -2.669  11.488  16.939  0.00  0.00    +0.000 C 
BRANCH  24  25
ATOM     25  C   UNL     1      -3.856  10.541  17.169  0.00  0.00    +0.000 C 
BRANCH  25  26
ATOM     26  C   UNL     1      -5.141  11.264  17.461  0.00  0.00    +0.000 A 
ATOM     27  C   UNL     1      -5.624  12.416  16.875  0.00  0.00    +0.000 A 
ATOM     28  C   UNL     1      -6.860  12.843  17.444  0.00  0.00    +0.000 A 
ATOM     29  C   UNL     1      -7.282  11.998  18.446  0.00  0.00    +0.000 A 
ATOM     30  S   UNL     1      -6.195  10.700  18.691  0.00  0.00    +0.000 S 
ENDBRANCH  25  26
ENDBRANCH  24  25
ENDBRANCH   4  24
TORSDOF 7
ENDMDL
MODEL 6
REMARK VINA RESULT:      -6.4      3.349      9.501
REMARK  Name = 
REMARK  8 active torsions:
REMARK  status: ('A' for Active; 'I' for Inactive)
REMARK    1  A    between atoms: C_1  and  C_2
REMARK    2  A    between atoms: C_2  and  C_3
REMARK    3  A    between atoms: C_3  and  S_4
REMARK    4  A    between atoms: S_4  and  C_5
REMARK    5  A    between atoms: N_8  and  C_9
REMARK    6  A    between atoms: C_9  and  C_10
REMARK    7  A    between atoms: C_10  and  C_11
REMARK    8  A    between atoms: N_19  and  C_20
REMARK                            x       y       z     vdW  Elec       q    Type
REMARK                         _______ _______ _______ _____ _____    ______ ____
ROOT
ATOM      1  C   UNL     1       3.443   6.111  17.772  0.00  0.00    +0.000 A 
ATOM      2  N   UNL     1       2.961   5.585  18.916  0.00  0.00    +0.000 NA
ATOM      3  C   UNL     1       2.250   6.367  19.760  0.00  0.00    +0.000 A 
ATOM      4  N   UNL     1       1.718   5.851  20.948  0.00  0.00    +0.000 N 
ATOM      5  C   UNL     1       2.045   7.715  19.402  0.00  0.00    +0.000 A 
ATOM      6  N   UNL     1       1.352   8.699  20.091  0.00  0.00    +0.000 NA
ATOM      7  C   UNL     1       1.459   9.852  19.468  0.00  0.00    +0.000 A 
ATOM      8  N   UNL     1       0.986  11.039  19.918  0.00  0.00    +0.000 N 
ATOM      9  S   UNL     1       2.355   9.796  17.988  0.00  0.00    +0.000 S 
ATOM     10  C   UNL     1       2.625   8.131  18.219  0.00  0.00    +0.000 A 
ATOM     11  N   UNL     1       3.329   7.381  17.356  0.00  0.00    +0.000 NA
ATOM     12  H   UNL     1       1.443   6.620  21.562  0.00  0.00    +0.000 HD
ATOM     13  H   UNL     1       1.365  11.890  19.530  0.00  0.00    +0.000 HD
ENDROOT
BRANCH   8  14
ATOM     14  C   UNL     1      -0.075  11.233  20.821  0.00  0.00    +0.000 A 
ATOM     15  C   UNL     1      -1.126  12.089  20.463  0.00  0.00    +0.000 A 
ATOM     16  C   UNL     1      -2.183  12.343  21.342  0.00  0.00    +0.000 A 
ATOM     17  C   UNL     1      -2.208  11.737  22.596  0.00  0.00    +0.000 A 
ATOM     18  C   UNL     1      -1.168  10.892  22.974  0.00  0.00    +0.000 A 
ATOM     19  C   UNL     1      -0.101  10.659  22.099  0.00  0.00    +0.000 A 
ENDBRANCH   8  14
BRANCH   1  20
ATOM     20  S   UNL     1       4.345   5.011  16.704  0.00  0.00    +0.000 S 
BRANCH  20  21
ATOM     21  C   UNL     1       5.876   5.984  16.547  0.00  0.00    +0.000 C 
BRANCH  21  23
ATOM     22  C   UNL     1       6.226   4.017  15.010  0.00  0.00    +0.000 C 
ATOM     23  C   UNL     1       6.810   5.320  15.537  0.00  0.00    +0.000 C 
ENDBRANCH  21  23
ENDBRANCH  20  21
ENDBRANCH   1  20
BRANCH   4  24
ATOM     24  C   UNL     1       2.485   4.781  21.588  0.00  0.00    +0.000 C 
BRANCH  24  25
ATOM     25  C   UNL     1       1.797   3.434  21.325  0.00  0.00    +0.000 C 
BRANCH  25  26
ATOM     26  C   UNL     1       2.249   2.778  20.050  0.00  0.00    +0.000 A 
ATOM     27  C   UNL     1       1.495   2.465  18.938  0.00  0.00    +0.000 A 
ATOM     28  C   UNL     1       2.254   1.799  17.931  0.00  0.00    +0.000 A 
ATOM     29  C   UNL     1       3.566   1.628  18.308  0.00  0.00    +0.000 A 
ATOM     30  S   UNL     1       3.877   2.272  19.862  0.00  0.00    +0.000 S 
ENDBRANCH  25  26
ENDBRANCH  24  25
ENDBRANCH   4  24
TORSDOF 7
ENDMDL
MODEL 7
REMARK VINA RESULT:      -6.4      3.591      8.889
REMARK  Name = 
REMARK  8 active torsions:
REMARK  status: ('A' for Active; 'I' for Inactive)
REMARK    1  A    between atoms: C_1  and  C_2
REMARK    2  A    between atoms: C_2  and  C_3
REMARK    3  A    between atoms: C_3  and  S_4
REMARK    4  A    between atoms: S_4  and  C_5
REMARK    5  A    between atoms: N_8  and  C_9
REMARK    6  A    between atoms: C_9  and  C_10
REMARK    7  A    between atoms: C_10  and  C_11
REMARK    8  A    between atoms: N_19  and  C_20
REMARK                            x       y       z     vdW  Elec       q    Type
REMARK                         _______ _______ _______ _____ _____    ______ ____
ROOT
ATOM      1  C   UNL     1      -3.344  10.643  15.686  0.00  0.00    +0.000 A 
ATOM      2  N   UNL     1      -2.438  10.559  16.680  0.00  0.00    +0.000 NA
ATOM      3  C   UNL     1      -2.755  11.028  17.909  0.00  0.00    +0.000 A 
ATOM      4  N   UNL     1      -1.846  10.942  18.971  0.00  0.00    +0.000 N 
ATOM      5  C   UNL     1      -4.033  11.591  18.096  0.00  0.00    +0.000 A 
ATOM      6  N   UNL     1      -4.584  12.124  19.252  0.00  0.00    +0.000 NA
ATOM      7  C   UNL     1      -5.773  12.626  18.998  0.00  0.00    +0.000 A 
ATOM      8  N   UNL     1      -6.545  13.310  19.877  0.00  0.00    +0.000 N 
ATOM      9  S   UNL     1      -6.310  12.430  17.364  0.00  0.00    +0.000 S 
ATOM     10  C   UNL     1      -4.849  11.644  16.982  0.00  0.00    +0.000 A 
ATOM     11  N   UNL     1      -4.570  11.183  15.752  0.00  0.00    +0.000 NA
ATOM     12  H   UNL     1      -2.147  11.557  19.729  0.00  0.00    +0.000 HD
ATOM     13  H   UNL     1      -7.284  13.897  19.519  0.00  0.00    +0.000 HD
ENDROOT
BRANCH   8  14
ATOM     14  C   UNL     1      -6.502  13.219  21.280  0.00  0.00    +0.000 A 
ATOM     15  C   UNL     1      -7.357  12.318  21.931  0.00  0.00    +0.000 A 
ATOM     16  C   UNL     1      -7.377  12.220  23.325  0.00  0.00    +0.000 A 
ATOM     17  C   UNL     1      -6.535  13.020  24.093  0.00  0.00    +0.000 A 
ATOM     18  C   UNL     1      -5.686  13.928  23.466  0.00  0.00    +0.000 A 
ATOM     19  C   UNL     1      -5.686  14.039  22.071  0.00  0.00    +0.000 A 
ENDBRANCH   8  14
BRANCH   1  20
ATOM     20  S   UNL     1      -2.860   9.982  14.107  0.00  0.00    +0.000 S 
BRANCH  20  21
ATOM     21  C   UNL     1      -4.520   9.689  13.418  0.00  0.00    +0.000 C 
BRANCH  21  23
ATOM     22  C   UNL     1      -5.863   9.678  11.284  0.00  0.00    +0.000 C 
ATOM     23  C   UNL     1      -4.473   9.789  11.895  0.00  0.00    +0.000 C 
ENDBRANCH  21  23
ENDBRANCH  20  21
ENDBRANCH   1  20
BRANCH   4  24
ATOM     24  C   UNL     1      -0.428  11.031  18.618  0.00  0.00    +0.000 C 
BRANCH  24  25
ATOM     25  C   UNL     1       0.367  11.547  19.826  0.00  0.00    +0.000 C 
BRANCH  25  26
ATOM     26  C   UNL     1      -0.041  10.905  21.121  0.00  0.00    +0.000 A 
ATOM     27  C   UNL     1      -0.780  11.453  22.150  0.00  0.00    +0.000 A 
ATOM     28  C   UNL     1      -0.930  10.561  23.252  0.00  0.00    +0.000 A 
ATOM     29  C   UNL     1      -0.303   9.357  23.026  0.00  0.00    +0.000 A 
ATOM     30  S   UNL     1       0.456   9.306  21.494  0.00  0.00    +0.000 S 
ENDBRANCH  25  26
ENDBRANCH  24  25
ENDBRANCH   4  24
TORSDOF 7
ENDMDL
MODEL 8
REMARK VINA RESULT:      -6.4      1.392      1.483
REMARK  Name = 
REMARK  8 active torsions:
REMARK  status: ('A' for Active; 'I' for Inactive)
REMARK    1  A    between atoms: C_1  and  C_2
REMARK    2  A    between atoms: C_2  and  C_3
REMARK    3  A    between atoms: C_3  and  S_4
REMARK    4  A    between atoms: S_4  and  C_5
REMARK    5  A    between atoms: N_8  and  C_9
REMARK    6  A    between atoms: C_9  and  C_10
REMARK    7  A    between atoms: C_10  and  C_11
REMARK    8  A    between atoms: N_19  and  C_20
REMARK                            x       y       z     vdW  Elec       q    Type
REMARK                         _______ _______ _______ _____ _____    ______ ____
ROOT
ATOM      1  C   UNL     1      -1.633  12.235  21.482  0.00  0.00    +0.000 A 
ATOM      2  N   UNL     1      -1.993  11.885  20.231  0.00  0.00    +0.000 NA
ATOM      3  C   UNL     1      -1.413  10.810  19.649  0.00  0.00    +0.000 A 
ATOM      4  N   UNL     1      -1.774  10.406  18.357  0.00  0.00    +0.000 N 
ATOM      5  C   UNL     1      -0.446  10.097  20.385  0.00  0.00    +0.000 A 
ATOM      6  N   UNL     1       0.272   8.971  20.010  0.00  0.00    +0.000 NA
ATOM      7  C   UNL     1       1.141   8.654  20.945  0.00  0.00    +0.000 A 
ATOM      8  N   UNL     1       2.068   7.669  20.860  0.00  0.00    +0.000 N 
ATOM      9  S   UNL     1       1.096   9.664  22.350  0.00  0.00    +0.000 S 
ATOM     10  C   UNL     1      -0.149  10.586  21.643  0.00  0.00    +0.000 A 
ATOM     11  N   UNL     1      -0.708  11.643  22.253  0.00  0.00    +0.000 NA
ATOM     12  H   UNL     1      -1.075   9.756  17.994  0.00  0.00    +0.000 HD
ATOM     13  H   UNL     1       2.861   7.695  21.483  0.00  0.00    +0.000 HD
ENDROOT
BRANCH   8  14
ATOM     14  C   UNL     1       2.004   6.524  20.045  0.00  0.00    +0.000 A 
ATOM     15  C   UNL     1       1.492   5.334  20.583  0.00  0.00    +0.000 A 
ATOM     16  C   UNL     1       1.443   4.161  19.825  0.00  0.00    +0.000 A 
ATOM     17  C   UNL     1       1.903   4.160  18.510  0.00  0.00    +0.000 A 
ATOM     18  C   UNL     1       2.426   5.329  17.963  0.00  0.00    +0.000 A 
ATOM     19  C   UNL     1       2.492   6.495  18.733  0.00  0.00    +0.000 A 
ENDBRANCH   8  14
BRANCH   1  20
ATOM     20  S   UNL     1      -2.460  13.644  22.187  0.00  0.00    +0.000 S 
BRANCH  20  21
ATOM     21  C   UNL     1      -1.325  13.954  23.576  0.00  0.00    +0.000 C 
BRANCH  21  23
ATOM     22  C   UNL     1      -1.311  15.407  25.636  0.00  0.00    +0.000 C 
ATOM     23  C   UNL     1      -1.564  15.355  24.136  0.00  0.00    +0.000 C 
ENDBRANCH  21  23
ENDBRANCH  20  21
ENDBRANCH   1  20
BRANCH   4  24
ATOM     24  C   UNL     1      -2.180  11.469  17.437  0.00  0.00    +0.000 C 
BRANCH  24  25
ATOM     25  C   UNL     1      -3.352  10.978  16.575  0.00  0.00    +0.000 C 
BRANCH  25  26
ATOM     26  C   UNL     1      -4.695  11.367  17.126  0.00  0.00    +0.000 A 
ATOM     27  C   UNL     1      -5.488  12.437  16.765  0.00  0.00    +0.000 A 
ATOM     28  C   UNL     1      -6.681  12.522  17.543  0.00  0.00    +0.000 A 
ATOM     29  C   UNL     1      -6.760  11.510  18.472  0.00  0.00    +0.000 A 
ATOM     30  S   UNL     1      -5.407  10.465  18.400  0.00  0.00    +0.000 S 
ENDBRANCH  25  26
ENDBRANCH  24  25
ENDBRANCH   4  24
TORSDOF 7
ENDMDL
MODEL 9
REMARK VINA RESULT:      -6.3      3.443      9.081
REMARK  Name = 
REMARK  8 active torsions:
REMARK  status: ('A' for Active; 'I' for Inactive)
REMARK    1  A    between atoms: C_1  and  C_2
REMARK    2  A    between atoms: C_2  and  C_3
REMARK    3  A    between atoms: C_3  and  S_4
REMARK    4  A    between atoms: S_4  and  C_5
REMARK    5  A    between atoms: N_8  and  C_9
REMARK    6  A    between atoms: C_9  and  C_10
REMARK    7  A    between atoms: C_10  and  C_11
REMARK    8  A    between atoms: N_19  and  C_20
REMARK                            x       y       z     vdW  Elec       q    Type
REMARK                         _______ _______ _______ _____ _____    ______ ____
ROOT
ATOM      1  C   UNL     1      -3.497  10.900  16.417  0.00  0.00    +0.000 A 
ATOM      2  N   UNL     1      -2.645  11.216  17.413  0.00  0.00    +0.000 NA
ATOM      3  C   UNL     1      -3.127  11.771  18.549  0.00  0.00    +0.000 A 
ATOM      4  N   UNL     1      -2.275  12.095  19.613  0.00  0.00    +0.000 N 
ATOM      5  C   UNL     1      -4.515  11.998  18.640  0.00  0.00    +0.000 A 
ATOM      6  N   UNL     1      -5.236  12.541  19.693  0.00  0.00    +0.000 NA
ATOM      7  C   UNL     1      -6.502  12.666  19.359  0.00  0.00    +0.000 A 
ATOM      8  N   UNL     1      -7.464  13.250  20.114  0.00  0.00    +0.000 N 
ATOM      9  S   UNL     1      -6.897  12.082  17.778  0.00  0.00    +0.000 S 
ATOM     10  C   UNL     1      -5.266  11.659  17.531  0.00  0.00    +0.000 A 
ATOM     11  N   UNL     1      -4.822  11.102  16.393  0.00  0.00    +0.000 NA
ATOM     12  H   UNL     1      -2.759  12.719  20.260  0.00  0.00    +0.000 HD
ATOM     13  H   UNL     1      -8.313  13.558  19.664  0.00  0.00    +0.000 HD
ENDROOT
BRANCH   8  14
ATOM     14  C   UNL     1      -7.460  13.395  21.513  0.00  0.00    +0.000 A 
ATOM     15  C   UNL     1      -7.524  12.247  22.317  0.00  0.00    +0.000 A 
ATOM     16  C   UNL     1      -7.562  12.342  23.711  0.00  0.00    +0.000 A 
ATOM     17  C   UNL     1      -7.531  13.591  24.326  0.00  0.00    +0.000 A 
ATOM     18  C   UNL     1      -7.478  14.743  23.545  0.00  0.00    +0.000 A 
ATOM     19  C   UNL     1      -7.463  14.643  22.150  0.00  0.00    +0.000 A 
ENDBRANCH   8  14
BRANCH   1  20
ATOM     20  S   UNL     1      -2.788  10.152  14.967  0.00  0.00    +0.000 S 
BRANCH  20  21
ATOM     21  C   UNL     1      -4.295  10.057  13.950  0.00  0.00    +0.000 C 
BRANCH  21  23
ATOM     22  C   UNL     1      -5.156   9.642  11.617  0.00  0.00    +0.000 C 
ATOM     23  C   UNL     1      -3.921   9.771  12.497  0.00  0.00    +0.000 C 
ENDBRANCH  21  23
ENDBRANCH  20  21
ENDBRANCH   1  20
BRANCH   4  24
ATOM     24  C   UNL     1      -0.915  12.499  19.251  0.00  0.00    +0.000 C 
BRANCH  24  25
ATOM     25  C   UNL     1       0.046  11.326  19.495  0.00  0.00    +0.000 C 
BRANCH  25  26
ATOM     26  C   UNL     1      -0.177  10.642  20.814  0.00  0.00    +0.000 A 
ATOM     27  C   UNL     1      -0.176   9.289  21.085  0.00  0.00    +0.000 A 
ATOM     28  C   UNL     1      -0.477   9.003  22.449  0.00  0.00    +0.000 A 
ATOM     29  C   UNL     1      -0.695  10.150  23.177  0.00  0.00    +0.000 A 
ATOM     30  S   UNL     1      -0.532  11.559  22.220  0.00  0.00    +0.000 S 
ENDBRANCH  25  26
ENDBRANCH  24  25
ENDBRANCH   4  24
TORSDOF 7
ENDMDL
