MODEL 1
REMARK VINA RESULT:      -8.5      0.000      0.000
REMARK  Name = 
REMARK  7 active torsions:
REMARK  status: ('A' for Active; 'I' for Inactive)
REMARK    1  A    between atoms: O_1  and  C_2
REMARK    2  A    between atoms: C_3  and  N_4
REMARK    3  A    between atoms: N_5  and  C_6
REMARK    4  A    between atoms: C_6  and  S_7
REMARK    5  A    between atoms: N_8  and  C_9
REMARK    6  A    between atoms: N_22  and  C_23
REMARK    7  A    between atoms: C_23  and  C_24
REMARK                            x       y       z     vdW  Elec       q    Type
REMARK                         _______ _______ _______ _____ _____    ______ ____
ROOT
ATOM      1  C   UNL     1       0.613  10.011  18.789  0.00  0.00    +0.000 A 
ATOM      2  C   UNL     1       1.090   9.096  19.696  0.00  0.00    +0.000 A 
ATOM      3  C   UNL     1       0.591   9.424  20.983  0.00  0.00    +0.000 A 
ATOM      4  C   UNL     1       0.800   8.899  22.277  0.00  0.00    +0.000 A 
ATOM      5  C   UNL     1       0.111   9.440  23.363  0.00  0.00    +0.000 A 
ATOM      6  C   UNL     1      -0.802  10.471  23.172  0.00  0.00    +0.000 A 
ATOM      7  C   UNL     1      -1.016  11.021  21.900  0.00  0.00    +0.000 A 
ATOM      8  C   UNL     1      -0.283  10.505  20.815  0.00  0.00    +0.000 A 
ATOM      9  N   UNL     1      -0.209  10.881  19.478  0.00  0.00    +0.000 N 
ENDROOT
BRANCH   1  10
ATOM     10  O   UNL     1       0.832  10.161  17.481  0.00  0.00    +0.000 OA
ATOM     11  H   UNL     1       1.079   9.269  17.153  0.00  0.00    +0.000 HD
ENDBRANCH   1  10
BRANCH   2  12
ATOM     12  N   UNL     1       1.955   8.011  19.494  0.00  0.00    +0.000 NA
ATOM     13  N   UNL     1       2.329   7.829  18.316  0.00  0.00    +0.000 NA
BRANCH  13  14
ATOM     14  C   UNL     1       3.283   6.823  18.231  0.00  0.00    +0.000 C 
ATOM     15  N   UNL     1       4.379   7.114  17.605  0.00  0.00    +0.000 NA
BRANCH  15  16
ATOM     16  C   UNL     1       5.477   6.246  17.435  0.00  0.00    +0.000 A 
ATOM     17  C   UNL     1       6.311   5.839  18.486  0.00  0.00    +0.000 A 
ATOM     18  C   UNL     1       7.420   5.021  18.269  0.00  0.00    +0.000 A 
ATOM     19  C   UNL     1       7.670   4.498  17.003  0.00  0.00    +0.000 A 
ATOM     20  C   UNL     1       6.793   4.789  15.962  0.00  0.00    +0.000 A 
ATOM     21  C   UNL     1       5.723   5.657  16.179  0.00  0.00    +0.000 A 
ATOM     22  F   UNL     1       4.899   5.913  15.145  0.00  0.00    +0.000 F 
ENDBRANCH  15  16
BRANCH  14  23
ATOM     23  S   UNL     1       2.915   5.283  19.033  0.00  0.00    +0.000 S 
ATOM     24  H   UNL     1       3.552   4.547  18.109  0.00  0.00    +0.000 HD
ENDBRANCH  14  23
ENDBRANCH  13  14
ENDBRANCH   2  12
BRANCH   9  25
ATOM     25  C   UNL     1      -0.782  12.093  18.893  0.00  0.00    +0.000 C 
BRANCH  25  26
ATOM     26  C   UNL     1      -2.226  11.901  18.496  0.00  0.00    +0.000 A 
ATOM     27  C   UNL     1      -3.261  12.296  19.357  0.00  0.00    +0.000 A 
ATOM     28  C   UNL     1      -4.587  11.998  19.050  0.00  0.00    +0.000 A 
ATOM     29  C   UNL     1      -4.885  11.326  17.870  0.00  0.00    +0.000 A 
ATOM     30  F   UNL     1      -6.154  10.995  17.602  0.00  0.00    +0.000 F 
ATOM     31  C   UNL     1      -3.883  10.984  16.971  0.00  0.00    +0.000 A 
ATOM     32  C   UNL     1      -2.554  11.275  17.281  0.00  0.00    +0.000 A 
ENDBRANCH  25  26
ENDBRANCH   9  25
TORSDOF 7
ENDMDL
MODEL 2
REMARK VINA RESULT:      -8.5      2.823      9.432
REMARK  Name = 
REMARK  7 active torsions:
REMARK  status: ('A' for Active; 'I' for Inactive)
REMARK    1  A    between atoms: O_1  and  C_2
REMARK    2  A    between atoms: C_3  and  N_4
REMARK    3  A    between atoms: N_5  and  C_6
REMARK    4  A    between atoms: C_6  and  S_7
REMARK    5  A    between atoms: N_8  and  C_9
REMARK    6  A    between atoms: N_22  and  C_23
REMARK    7  A    between atoms: C_23  and  C_24
REMARK                            x       y       z     vdW  Elec       q    Type
REMARK                         _______ _______ _______ _____ _____    ______ ____
ROOT
ATOM      1  C   UNL     1       4.764   6.161  17.712  0.00  0.00    +0.000 A 
ATOM      2  C   UNL     1       3.426   6.219  18.016  0.00  0.00    +0.000 A 
ATOM      3  C   UNL     1       2.896   4.903  18.005  0.00  0.00    +0.000 A 
ATOM      4  C   UNL     1       1.600   4.369  18.165  0.00  0.00    +0.000 A 
ATOM      5  C   UNL     1       1.412   2.986  18.134  0.00  0.00    +0.000 A 
ATOM      6  C   UNL     1       2.500   2.134  17.979  0.00  0.00    +0.000 A 
ATOM      7  C   UNL     1       3.796   2.640  17.802  0.00  0.00    +0.000 A 
ATOM      8  C   UNL     1       3.973   4.036  17.784  0.00  0.00    +0.000 A 
ATOM      9  N   UNL     1       5.091   4.829  17.552  0.00  0.00    +0.000 N 
ENDROOT
BRANCH   1  10
ATOM     10  O   UNL     1       5.680   7.120  17.551  0.00  0.00    +0.000 OA
ATOM     11  H   UNL     1       6.101   6.937  16.684  0.00  0.00    +0.000 HD
ENDBRANCH   1  10
BRANCH   2  12
ATOM     12  N   UNL     1       2.619   7.338  18.272  0.00  0.00    +0.000 NA
ATOM     13  N   UNL     1       2.267   7.490  19.461  0.00  0.00    +0.000 NA
BRANCH  13  14
ATOM     14  C   UNL     1       1.587   8.688  19.644  0.00  0.00    +0.000 C 
ATOM     15  N   UNL     1       1.505   9.472  18.615  0.00  0.00    +0.000 NA
BRANCH  15  16
ATOM     16  C   UNL     1       0.837  10.712  18.586  0.00  0.00    +0.000 A 
ATOM     17  C   UNL     1       1.484  11.944  18.753  0.00  0.00    +0.000 A 
ATOM     18  C   UNL     1       0.779  13.148  18.771  0.00  0.00    +0.000 A 
ATOM     19  C   UNL     1      -0.589  13.164  18.517  0.00  0.00    +0.000 A 
ATOM     20  C   UNL     1      -1.242  11.968  18.233  0.00  0.00    +0.000 A 
ATOM     21  C   UNL     1      -0.537  10.765  18.278  0.00  0.00    +0.000 A 
ATOM     22  F   UNL     1      -1.207   9.632  17.996  0.00  0.00    +0.000 F 
ENDBRANCH  15  16
BRANCH  14  23
ATOM     23  S   UNL     1       0.866   8.979  21.238  0.00  0.00    +0.000 S 
ATOM     24  H   UNL     1       0.808   7.676  21.550  0.00  0.00    +0.000 HD
ENDBRANCH  14  23
ENDBRANCH  13  14
ENDBRANCH   2  12
BRANCH   9  25
ATOM     25  C   UNL     1       6.390   4.365  17.066  0.00  0.00    +0.000 C 
BRANCH  25  26
ATOM     26  C   UNL     1       6.490   4.434  15.562  0.00  0.00    +0.000 A 
ATOM     27  C   UNL     1       5.620   3.685  14.754  0.00  0.00    +0.000 A 
ATOM     28  C   UNL     1       5.799   3.645  13.372  0.00  0.00    +0.000 A 
ATOM     29  C   UNL     1       6.832   4.372  12.792  0.00  0.00    +0.000 A 
ATOM     30  F   UNL     1       7.033   4.290  11.470  0.00  0.00    +0.000 F 
ATOM     31  C   UNL     1       7.664   5.172  13.564  0.00  0.00    +0.000 A 
ATOM     32  C   UNL     1       7.491   5.206  14.949  0.00  0.00    +0.000 A 
ENDBRANCH  25  26
ENDBRANCH   9  25
TORSDOF 7
ENDMDL
MODEL 3
REMARK VINA RESULT:      -8.4      0.868      1.411
REMARK  Name = 
REMARK  7 active torsions:
REMARK  status: ('A' for Active; 'I' for Inactive)
REMARK    1  A    between atoms: O_1  and  C_2
REMARK    2  A    between atoms: C_3  and  N_4
REMARK    3  A    between atoms: N_5  and  C_6
REMARK    4  A    between atoms: C_6  and  S_7
REMARK    5  A    between atoms: N_8  and  C_9
REMARK    6  A    between atoms: N_22  and  C_23
REMARK    7  A    between atoms: C_23  and  C_24
REMARK                            x       y       z     vdW  Elec       q    Type
REMARK                         _______ _______ _______ _____ _____    ______ ____
ROOT
ATOM      1  C   UNL     1       0.479  10.099  18.823  0.00  0.00    +0.000 A 
ATOM      2  C   UNL     1       0.997   9.186  19.708  0.00  0.00    +0.000 A 
ATOM      3  C   UNL     1       0.528   9.495  21.011  0.00  0.00    +0.000 A 
ATOM      4  C   UNL     1       0.783   8.964  22.294  0.00  0.00    +0.000 A 
ATOM      5  C   UNL     1       0.115   9.484  23.404  0.00  0.00    +0.000 A 
ATOM      6  C   UNL     1      -0.822  10.499  23.246  0.00  0.00    +0.000 A 
ATOM      7  C   UNL     1      -1.081  11.055  21.985  0.00  0.00    +0.000 A 
ATOM      8  C   UNL     1      -0.369  10.561  20.876  0.00  0.00    +0.000 A 
ATOM      9  N   UNL     1      -0.339  10.949  19.541  0.00  0.00    +0.000 N 
ENDROOT
BRANCH   1  10
ATOM     10  O   UNL     1       0.659  10.263  17.510  0.00  0.00    +0.000 OA
ATOM     11  H   UNL     1      -0.242  10.352  17.131  0.00  0.00    +0.000 HD
ENDBRANCH   1  10
BRANCH   2  12
ATOM     12  N   UNL     1       1.876   8.119  19.473  0.00  0.00    +0.000 NA
ATOM     13  N   UNL     1       2.233   7.962  18.286  0.00  0.00    +0.000 NA
BRANCH  13  14
ATOM     14  C   UNL     1       3.201   6.973  18.168  0.00  0.00    +0.000 C 
ATOM     15  N   UNL     1       3.949   7.016  17.111  0.00  0.00    +0.000 NA
BRANCH  15  16
ATOM     16  C   UNL     1       5.003   6.126  16.820  0.00  0.00    +0.000 A 
ATOM     17  C   UNL     1       4.813   4.874  16.220  0.00  0.00    +0.000 A 
ATOM     18  C   UNL     1       5.876   3.998  15.997  0.00  0.00    +0.000 A 
ATOM     19  C   UNL     1       7.182   4.393  16.275  0.00  0.00    +0.000 A 
ATOM     20  C   UNL     1       7.414   5.674  16.764  0.00  0.00    +0.000 A 
ATOM     21  C   UNL     1       6.338   6.518  17.040  0.00  0.00    +0.000 A 
ATOM     22  F   UNL     1       6.607   7.750  17.512  0.00  0.00    +0.000 F 
ENDBRANCH  15  16
BRANCH  14  23
ATOM     23  S   UNL     1       3.338   5.806  19.498  0.00  0.00    +0.000 S 
ATOM     24  H   UNL     1       2.011   5.709  19.669  0.00  0.00    +0.000 HD
ENDBRANCH  14  23
ENDBRANCH  13  14
ENDBRANCH   2  12
BRANCH   9  25
ATOM     25  C   UNL     1      -0.950  12.154  18.981  0.00  0.00    +0.000 C 
BRANCH  25  26
ATOM     26  C   UNL     1      -2.385  11.924  18.574  0.00  0.00    +0.000 A 
ATOM     27  C   UNL     1      -2.694  11.424  17.300  0.00  0.00    +0.000 A 
ATOM     28  C   UNL     1      -4.020  11.340  16.877  0.00  0.00    +0.000 A 
ATOM     29  C   UNL     1      -5.041  11.731  17.736  0.00  0.00    +0.000 A 
ATOM     30  F   UNL     1      -6.310  11.698  17.309  0.00  0.00    +0.000 F 
ATOM     31  C   UNL     1      -4.763  12.167  19.025  0.00  0.00    +0.000 A 
ATOM     32  C   UNL     1      -3.435  12.260  19.446  0.00  0.00    +0.000 A 
ENDBRANCH  25  26
ENDBRANCH   9  25
TORSDOF 7
ENDMDL
MODEL 4
REMARK VINA RESULT:      -8.3      3.040      9.458
REMARK  Name = 
REMARK  7 active torsions:
REMARK  status: ('A' for Active; 'I' for Inactive)
REMARK    1  A    between atoms: O_1  and  C_2
REMARK    2  A    between atoms: C_3  and  N_4
REMARK    3  A    between atoms: N_5  and  C_6
REMARK    4  A    between atoms: C_6  and  S_7
REMARK    5  A    between atoms: N_8  and  C_9
REMARK    6  A    between atoms: N_22  and  C_23
REMARK    7  A    between atoms: C_23  and  C_24
REMARK                            x       y       z     vdW  Elec       q    Type
REMARK                         _______ _______ _______ _____ _____    ______ ____
ROOT
ATOM      1  C   UNL     1       4.643   6.098  17.741  0.00  0.00    +0.000 A 
ATOM      2  C   UNL     1       3.306   6.069  18.054  0.00  0.00    +0.000 A 
ATOM      3  C   UNL     1       2.868   4.720  18.070  0.00  0.00    +0.000 A 
ATOM      4  C   UNL     1       1.612   4.101  18.249  0.00  0.00    +0.000 A 
ATOM      5  C   UNL     1       1.520   2.708  18.244  0.00  0.00    +0.000 A 
ATOM      6  C   UNL     1       2.663   1.930  18.095  0.00  0.00    +0.000 A 
ATOM      7  C   UNL     1       3.919   2.520  17.900  0.00  0.00    +0.000 A 
ATOM      8  C   UNL     1       4.000   3.925  17.855  0.00  0.00    +0.000 A 
ATOM      9  N   UNL     1       5.060   4.788  17.601  0.00  0.00    +0.000 N 
ENDROOT
BRANCH   1  10
ATOM     10  O   UNL     1       5.490   7.114  17.556  0.00  0.00    +0.000 OA
ATOM     11  H   UNL     1       5.043   7.899  17.939  0.00  0.00    +0.000 HD
ENDBRANCH   1  10
BRANCH   2  12
ATOM     12  N   UNL     1       2.426   7.134  18.297  0.00  0.00    +0.000 NA
ATOM     13  N   UNL     1       2.310   7.479  19.492  0.00  0.00    +0.000 NA
BRANCH  13  14
ATOM     14  C   UNL     1       1.528   8.619  19.622  0.00  0.00    +0.000 C 
ATOM     15  N   UNL     1       1.292   9.289  18.538  0.00  0.00    +0.000 NA
BRANCH  15  16
ATOM     16  C   UNL     1       0.501  10.452  18.453  0.00  0.00    +0.000 A 
ATOM     17  C   UNL     1      -0.887  10.431  18.260  0.00  0.00    +0.000 A 
ATOM     18  C   UNL     1      -1.629  11.605  18.128  0.00  0.00    +0.000 A 
ATOM     19  C   UNL     1      -1.016  12.844  18.289  0.00  0.00    +0.000 A 
ATOM     20  C   UNL     1       0.341  12.897  18.596  0.00  0.00    +0.000 A 
ATOM     21  C   UNL     1       1.083  11.717  18.665  0.00  0.00    +0.000 A 
ATOM     22  F   UNL     1       2.392  11.813  18.965  0.00  0.00    +0.000 F 
ENDBRANCH  15  16
BRANCH  14  23
ATOM     23  S   UNL     1       0.898   8.994  21.238  0.00  0.00    +0.000 S 
ATOM     24  H   UNL     1       2.042   9.560  21.651  0.00  0.00    +0.000 HD
ENDBRANCH  14  23
ENDBRANCH  13  14
ENDBRANCH   2  12
BRANCH   9  25
ATOM     25  C   UNL     1       6.384   4.405  17.114  0.00  0.00    +0.000 C 
BRANCH  25  26
ATOM     26  C   UNL     1       6.469   4.454  15.608  0.00  0.00    +0.000 A 
ATOM     27  C   UNL     1       5.578   3.711  14.818  0.00  0.00    +0.000 A 
ATOM     28  C   UNL     1       5.742   3.651  13.435  0.00  0.00    +0.000 A 
ATOM     29  C   UNL     1       6.781   4.353  12.835  0.00  0.00    +0.000 A 
ATOM     30  F   UNL     1       6.967   4.252  11.513  0.00  0.00    +0.000 F 
ATOM     31  C   UNL     1       7.635   5.148  13.589  0.00  0.00    +0.000 A 
ATOM     32  C   UNL     1       7.477   5.202  14.975  0.00  0.00    +0.000 A 
ENDBRANCH  25  26
ENDBRANCH   9  25
TORSDOF 7
ENDMDL
MODEL 5
REMARK VINA RESULT:      -8.3      3.660      4.806
REMARK  Name = 
REMARK  7 active torsions:
REMARK  status: ('A' for Active; 'I' for Inactive)
REMARK    1  A    between atoms: O_1  and  C_2
REMARK    2  A    between atoms: C_3  and  N_4
REMARK    3  A    between atoms: N_5  and  C_6
REMARK    4  A    between atoms: C_6  and  S_7
REMARK    5  A    between atoms: N_8  and  C_9
REMARK    6  A    between atoms: N_22  and  C_23
REMARK    7  A    between atoms: C_23  and  C_24
REMARK                            x       y       z     vdW  Elec       q    Type
REMARK                         _______ _______ _______ _____ _____    ______ ____
ROOT
ATOM      1  C   UNL     1       1.401  10.508  18.696  0.00  0.00    +0.000 A 
ATOM      2  C   UNL     1       1.324   9.358  19.442  0.00  0.00    +0.000 A 
ATOM      3  C   UNL     1       0.681   9.652  20.672  0.00  0.00    +0.000 A 
ATOM      4  C   UNL     1       0.400   8.900  21.833  0.00  0.00    +0.000 A 
ATOM      5  C   UNL     1      -0.300   9.490  22.887  0.00  0.00    +0.000 A 
ATOM      6  C   UNL     1      -0.748  10.803  22.783  0.00  0.00    +0.000 A 
ATOM      7  C   UNL     1      -0.469  11.575  21.648  0.00  0.00    +0.000 A 
ATOM      8  C   UNL     1       0.281  10.992  20.608  0.00  0.00    +0.000 A 
ATOM      9  N   UNL     1       0.781  11.508  19.418  0.00  0.00    +0.000 N 
ENDROOT
BRANCH   1  10
ATOM     10  O   UNL     1       1.953  10.759  17.506  0.00  0.00    +0.000 OA
ATOM     11  H   UNL     1       1.824  11.720  17.355  0.00  0.00    +0.000 HD
ENDBRANCH   1  10
BRANCH   2  12
ATOM     12  N   UNL     1       1.801   8.072  19.147  0.00  0.00    +0.000 NA
ATOM     13  N   UNL     1       2.680   8.011  18.261  0.00  0.00    +0.000 NA
BRANCH  13  14
ATOM     14  C   UNL     1       3.186   6.724  18.130  0.00  0.00    +0.000 C 
ATOM     15  N   UNL     1       2.550   5.784  18.755  0.00  0.00    +0.000 NA
BRANCH  15  16
ATOM     16  C   UNL     1       2.883   4.414  18.726  0.00  0.00    +0.000 A 
ATOM     17  C   UNL     1       3.817   3.827  19.591  0.00  0.00    +0.000 A 
ATOM     18  C   UNL     1       4.160   2.479  19.496  0.00  0.00    +0.000 A 
ATOM     19  C   UNL     1       3.498   1.648  18.595  0.00  0.00    +0.000 A 
ATOM     20  C   UNL     1       2.484   2.176  17.803  0.00  0.00    +0.000 A 
ATOM     21  C   UNL     1       2.193   3.539  17.864  0.00  0.00    +0.000 A 
ATOM     22  F   UNL     1       1.205   4.009  17.080  0.00  0.00    +0.000 F 
ENDBRANCH  15  16
BRANCH  14  23
ATOM     23  S   UNL     1       4.601   6.509  17.082  0.00  0.00    +0.000 S 
ATOM     24  H   UNL     1       4.129   7.322  16.125  0.00  0.00    +0.000 HD
ENDBRANCH  14  23
ENDBRANCH  13  14
ENDBRANCH   2  12
BRANCH   9  25
ATOM     25  C   UNL     1       0.795  12.918  19.031  0.00  0.00    +0.000 C 
BRANCH  25  26
ATOM     26  C   UNL     1       2.134  13.564  19.291  0.00  0.00    +0.000 A 
ATOM     27  C   UNL     1       2.610  13.717  20.602  0.00  0.00    +0.000 A 
ATOM     28  C   UNL     1       3.781  14.432  20.849  0.00  0.00    +0.000 A 
ATOM     29  C   UNL     1       4.493  14.973  19.785  0.00  0.00    +0.000 A 
ATOM     30  F   UNL     1       5.589  15.703  20.028  0.00  0.00    +0.000 F 
ATOM     31  C   UNL     1       4.076  14.778  18.474  0.00  0.00    +0.000 A 
ATOM     32  C   UNL     1       2.899  14.071  18.226  0.00  0.00    +0.000 A 
ENDBRANCH  25  26
ENDBRANCH   9  25
TORSDOF 7
ENDMDL
MODEL 6
REMARK VINA RESULT:      -8.3      2.978      9.552
REMARK  Name = 
REMARK  7 active torsions:
REMARK  status: ('A' for Active; 'I' for Inactive)
REMARK    1  A    between atoms: O_1  and  C_2
REMARK    2  A    between atoms: C_3  and  N_4
REMARK    3  A    between atoms: N_5  and  C_6
REMARK    4  A    between atoms: C_6  and  S_7
REMARK    5  A    between atoms: N_8  and  C_9
REMARK    6  A    between atoms: N_22  and  C_23
REMARK    7  A    between atoms: C_23  and  C_24
REMARK                            x       y       z     vdW  Elec       q    Type
REMARK                         _______ _______ _______ _____ _____    ______ ____
ROOT
ATOM      1  C   UNL     1       4.562   6.271  17.713  0.00  0.00    +0.000 A 
ATOM      2  C   UNL     1       3.218   6.294  17.997  0.00  0.00    +0.000 A 
ATOM      3  C   UNL     1       2.737   4.960  18.044  0.00  0.00    +0.000 A 
ATOM      4  C   UNL     1       1.458   4.387  18.214  0.00  0.00    +0.000 A 
ATOM      5  C   UNL     1       1.322   2.998  18.250  0.00  0.00    +0.000 A 
ATOM      6  C   UNL     1       2.442   2.180  18.150  0.00  0.00    +0.000 A 
ATOM      7  C   UNL     1       3.721   2.724  17.965  0.00  0.00    +0.000 A 
ATOM      8  C   UNL     1       3.848   4.124  17.880  0.00  0.00    +0.000 A 
ATOM      9  N   UNL     1       4.940   4.945  17.623  0.00  0.00    +0.000 N 
ENDROOT
BRANCH   1  10
ATOM     10  O   UNL     1       5.445   7.253  17.517  0.00  0.00    +0.000 OA
ATOM     11  H   UNL     1       4.919   8.082  17.519  0.00  0.00    +0.000 HD
ENDBRANCH   1  10
BRANCH   2  12
ATOM     12  N   UNL     1       2.368   7.393  18.187  0.00  0.00    +0.000 NA
ATOM     13  N   UNL     1       2.814   8.496  17.804  0.00  0.00    +0.000 NA
BRANCH  13  14
ATOM     14  C   UNL     1       1.859   9.498  17.908  0.00  0.00    +0.000 C 
ATOM     15  N   UNL     1       0.632   9.116  18.076  0.00  0.00    +0.000 NA
BRANCH  15  16
ATOM     16  C   UNL     1      -0.476   9.974  18.232  0.00  0.00    +0.000 A 
ATOM     17  C   UNL     1      -1.494  10.105  17.278  0.00  0.00    +0.000 A 
ATOM     18  C   UNL     1      -2.547  11.005  17.445  0.00  0.00    +0.000 A 
ATOM     19  C   UNL     1      -2.669  11.730  18.627  0.00  0.00    +0.000 A 
ATOM     20  C   UNL     1      -1.738  11.537  19.643  0.00  0.00    +0.000 A 
ATOM     21  C   UNL     1      -0.656  10.679  19.439  0.00  0.00    +0.000 A 
ATOM     22  F   UNL     1       0.221  10.521  20.447  0.00  0.00    +0.000 F 
ENDBRANCH  15  16
BRANCH  14  23
ATOM     23  S   UNL     1       2.432  11.177  17.857  0.00  0.00    +0.000 S 
ATOM     24  H   UNL     1       2.720  11.213  19.167  0.00  0.00    +0.000 HD
ENDBRANCH  14  23
ENDBRANCH  13  14
ENDBRANCH   2  12
BRANCH   9  25
ATOM     25  C   UNL     1       6.261   4.506  17.177  0.00  0.00    +0.000 C 
BRANCH  25  26
ATOM     26  C   UNL     1       6.382   4.512  15.673  0.00  0.00    +0.000 A 
ATOM     27  C   UNL     1       5.485   3.778  14.882  0.00  0.00    +0.000 A 
ATOM     28  C   UNL     1       5.679   3.676  13.505  0.00  0.00    +0.000 A 
ATOM     29  C   UNL     1       6.754   4.327  12.912  0.00  0.00    +0.000 A 
ATOM     30  F   UNL     1       6.967   4.185  11.598  0.00  0.00    +0.000 F 
ATOM     31  C   UNL     1       7.616   5.113  13.666  0.00  0.00    +0.000 A 
ATOM     32  C   UNL     1       7.429   5.209  15.045  0.00  0.00    +0.000 A 
ENDBRANCH  25  26
ENDBRANCH   9  25
TORSDOF 7
ENDMDL
MODEL 7
REMARK VINA RESULT:      -8.3      0.910      1.253
REMARK  Name = 
REMARK  7 active torsions:
REMARK  status: ('A' for Active; 'I' for Inactive)
REMARK    1  A    between atoms: O_1  and  C_2
REMARK    2  A    between atoms: C_3  and  N_4
REMARK    3  A    between atoms: N_5  and  C_6
REMARK    4  A    between atoms: C_6  and  S_7
REMARK    5  A    between atoms: N_8  and  C_9
REMARK    6  A    between atoms: N_22  and  C_23
REMARK    7  A    between atoms: C_23  and  C_24
REMARK                            x       y       z     vdW  Elec       q    Type
REMARK                         _______ _______ _______ _____ _____    ______ ____
ROOT
ATOM      1  C   UNL     1       0.839  10.036  18.675  0.00  0.00    +0.000 A 
ATOM      2  C   UNL     1       1.325   9.084  19.538  0.00  0.00    +0.000 A 
ATOM      3  C   UNL     1       0.827   9.349  20.839  0.00  0.00    +0.000 A 
ATOM      4  C   UNL     1       1.044   8.767  22.107  0.00  0.00    +0.000 A 
ATOM      5  C   UNL     1       0.354   9.253  23.219  0.00  0.00    +0.000 A 
ATOM      6  C   UNL     1      -0.568  10.285  23.077  0.00  0.00    +0.000 A 
ATOM      7  C   UNL     1      -0.789  10.890  21.832  0.00  0.00    +0.000 A 
ATOM      8  C   UNL     1      -0.055  10.430  20.722  0.00  0.00    +0.000 A 
ATOM      9  N   UNL     1       0.013  10.868  19.404  0.00  0.00    +0.000 N 
ENDROOT
BRANCH   1  10
ATOM     10  O   UNL     1       1.054  10.247  17.374  0.00  0.00    +0.000 OA
ATOM     11  H   UNL     1       1.947   9.882  17.193  0.00  0.00    +0.000 HD
ENDBRANCH   1  10
BRANCH   2  12
ATOM     12  N   UNL     1       2.198   8.016  19.284  0.00  0.00    +0.000 NA
ATOM     13  N   UNL     1       1.964   7.360  18.246  0.00  0.00    +0.000 NA
BRANCH  13  14
ATOM     14  C   UNL     1       2.951   6.413  18.006  0.00  0.00    +0.000 C 
ATOM     15  N   UNL     1       4.101   6.860  17.607  0.00  0.00    +0.000 NA
BRANCH  15  16
ATOM     16  C   UNL     1       5.236   6.069  17.339  0.00  0.00    +0.000 A 
ATOM     17  C   UNL     1       5.734   5.843  16.048  0.00  0.00    +0.000 A 
ATOM     18  C   UNL     1       6.828   5.009  15.819  0.00  0.00    +0.000 A 
ATOM     19  C   UNL     1       7.526   4.456  16.889  0.00  0.00    +0.000 A 
ATOM     20  C   UNL     1       7.126   4.755  18.188  0.00  0.00    +0.000 A 
ATOM     21  C   UNL     1       5.994   5.540  18.402  0.00  0.00    +0.000 A 
ATOM     22  F   UNL     1       5.642   5.805  19.675  0.00  0.00    +0.000 F 
ENDBRANCH  15  16
BRANCH  14  23
ATOM     23  S   UNL     1       2.545   4.716  18.324  0.00  0.00    +0.000 S 
ATOM     24  H   UNL     1       1.513   4.708  17.467  0.00  0.00    +0.000 HD
ENDBRANCH  14  23
ENDBRANCH  13  14
ENDBRANCH   2  12
BRANCH   9  25
ATOM     25  C   UNL     1      -0.571  12.100  18.876  0.00  0.00    +0.000 C 
BRANCH  25  26
ATOM     26  C   UNL     1      -2.009  11.912  18.458  0.00  0.00    +0.000 A 
ATOM     27  C   UNL     1      -3.055  12.244  19.332  0.00  0.00    +0.000 A 
ATOM     28  C   UNL     1      -4.375  11.946  18.998  0.00  0.00    +0.000 A 
ATOM     29  C   UNL     1      -4.655  11.338  17.780  0.00  0.00    +0.000 A 
ATOM     30  F   UNL     1      -5.918  11.005  17.484  0.00  0.00    +0.000 F 
ATOM     31  C   UNL     1      -3.642  11.060  16.871  0.00  0.00    +0.000 A 
ATOM     32  C   UNL     1      -2.319  11.350  17.208  0.00  0.00    +0.000 A 
ENDBRANCH  25  26
ENDBRANCH   9  25
TORSDOF 7
ENDMDL
MODEL 8
REMARK VINA RESULT:      -8.2      3.316      9.674
REMARK  Name = 
REMARK  7 active torsions:
REMARK  status: ('A' for Active; 'I' for Inactive)
REMARK    1  A    between atoms: O_1  and  C_2
REMARK    2  A    between atoms: C_3  and  N_4
REMARK    3  A    between atoms: N_5  and  C_6
REMARK    4  A    between atoms: C_6  and  S_7
REMARK    5  A    between atoms: N_8  and  C_9
REMARK    6  A    between atoms: N_22  and  C_23
REMARK    7  A    between atoms: C_23  and  C_24
REMARK                            x       y       z     vdW  Elec       q    Type
REMARK                         _______ _______ _______ _____ _____    ______ ____
ROOT
ATOM      1  C   UNL     1       4.720   6.077  17.767  0.00  0.00    +0.000 A 
ATOM      2  C   UNL     1       3.381   6.108  18.075  0.00  0.00    +0.000 A 
ATOM      3  C   UNL     1       2.877   4.782  18.059  0.00  0.00    +0.000 A 
ATOM      4  C   UNL     1       1.591   4.223  18.221  0.00  0.00    +0.000 A 
ATOM      5  C   UNL     1       1.429   2.837  18.183  0.00  0.00    +0.000 A 
ATOM      6  C   UNL     1       2.533   2.006  18.019  0.00  0.00    +0.000 A 
ATOM      7  C   UNL     1       3.818   2.537  17.841  0.00  0.00    +0.000 A 
ATOM      8  C   UNL     1       3.969   3.937  17.830  0.00  0.00    +0.000 A 
ATOM      9  N   UNL     1       5.071   4.752  17.598  0.00  0.00    +0.000 N 
ENDROOT
BRANCH   1  10
ATOM     10  O   UNL     1       5.617   7.053  17.609  0.00  0.00    +0.000 OA
ATOM     11  H   UNL     1       5.738   7.143  16.639  0.00  0.00    +0.000 HD
ENDBRANCH   1  10
BRANCH   2  12
ATOM     12  N   UNL     1       2.555   7.210  18.341  0.00  0.00    +0.000 NA
ATOM     13  N   UNL     1       2.315   7.429  19.547  0.00  0.00    +0.000 NA
BRANCH  13  14
ATOM     14  C   UNL     1       1.604   8.609  19.722  0.00  0.00    +0.000 C 
ATOM     15  N   UNL     1       1.341   8.953  20.943  0.00  0.00    +0.000 NA
BRANCH  15  16
ATOM     16  C   UNL     1       0.659  10.124  21.332  0.00  0.00    +0.000 A 
ATOM     17  C   UNL     1       0.937  11.392  20.803  0.00  0.00    +0.000 A 
ATOM     18  C   UNL     1       0.277  12.536  21.253  0.00  0.00    +0.000 A 
ATOM     19  C   UNL     1      -0.759  12.431  22.177  0.00  0.00    +0.000 A 
ATOM     20  C   UNL     1      -1.137  11.172  22.635  0.00  0.00    +0.000 A 
ATOM     21  C   UNL     1      -0.429  10.043  22.224  0.00  0.00    +0.000 A 
ATOM     22  F   UNL     1      -0.827   8.845  22.691  0.00  0.00    +0.000 F 
ENDBRANCH  15  16
BRANCH  14  23
ATOM     23  S   UNL     1       1.190   9.533  18.265  0.00  0.00    +0.000 S 
ATOM     24  H   UNL     1       0.733  10.589  18.955  0.00  0.00    +0.000 HD
ENDBRANCH  14  23
ENDBRANCH  13  14
ENDBRANCH   2  12
BRANCH   9  25
ATOM     25  C   UNL     1       6.377   4.315  17.106  0.00  0.00    +0.000 C 
BRANCH  25  26
ATOM     26  C   UNL     1       6.472   4.400  15.602  0.00  0.00    +0.000 A 
ATOM     27  C   UNL     1       5.603   3.658  14.788  0.00  0.00    +0.000 A 
ATOM     28  C   UNL     1       5.779   3.634  13.405  0.00  0.00    +0.000 A 
ATOM     29  C   UNL     1       6.808   4.371  12.831  0.00  0.00    +0.000 A 
ATOM     30  F   UNL     1       7.006   4.305  11.508  0.00  0.00    +0.000 F 
ATOM     31  C   UNL     1       7.639   5.165  13.610  0.00  0.00    +0.000 A 
ATOM     32  C   UNL     1       7.470   5.183  14.995  0.00  0.00    +0.000 A 
ENDBRANCH  25  26
ENDBRANCH   9  25
TORSDOF 7
ENDMDL
MODEL 9
REMARK VINA RESULT:      -8.1      3.747      4.874
REMARK  Name = 
REMARK  7 active torsions:
REMARK  status: ('A' for Active; 'I' for Inactive)
REMARK    1  A    between atoms: O_1  and  C_2
REMARK    2  A    between atoms: C_3  and  N_4
REMARK    3  A    between atoms: N_5  and  C_6
REMARK    4  A    between atoms: C_6  and  S_7
REMARK    5  A    between atoms: N_8  and  C_9
REMARK    6  A    between atoms: N_22  and  C_23
REMARK    7  A    between atoms: C_23  and  C_24
REMARK                            x       y       z     vdW  Elec       q    Type
REMARK                         _______ _______ _______ _____ _____    ______ ____
ROOT
ATOM      1  C   UNL     1       1.392  10.505  18.696  0.00  0.00    +0.000 A 
ATOM      2  C   UNL     1       1.323   9.369  19.465  0.00  0.00    +0.000 A 
ATOM      3  C   UNL     1       0.675   9.682  20.688  0.00  0.00    +0.000 A 
ATOM      4  C   UNL     1       0.398   8.952  21.864  0.00  0.00    +0.000 A 
ATOM      5  C   UNL     1      -0.309   9.558  22.904  0.00  0.00    +0.000 A 
ATOM      6  C   UNL     1      -0.768  10.864  22.773  0.00  0.00    +0.000 A 
ATOM      7  C   UNL     1      -0.492  11.616  21.622  0.00  0.00    +0.000 A 
ATOM      8  C   UNL     1       0.264  11.018  20.596  0.00  0.00    +0.000 A 
ATOM      9  N   UNL     1       0.762  11.514  19.397  0.00  0.00    +0.000 N 
ENDROOT
BRANCH   1  10
ATOM     10  O   UNL     1       1.944  10.736  17.502  0.00  0.00    +0.000 OA
ATOM     11  H   UNL     1       1.818   9.907  16.991  0.00  0.00    +0.000 HD
ENDBRANCH   1  10
BRANCH   2  12
ATOM     12  N   UNL     1       1.811   8.081  19.197  0.00  0.00    +0.000 NA
ATOM     13  N   UNL     1       2.472   7.962  18.143  0.00  0.00    +0.000 NA
BRANCH  13  14
ATOM     14  C   UNL     1       3.025   6.693  18.028  0.00  0.00    +0.000 C 
ATOM     15  N   UNL     1       2.352   5.716  18.551  0.00  0.00    +0.000 NA
BRANCH  15  16
ATOM     16  C   UNL     1       2.725   4.357  18.515  0.00  0.00    +0.000 A 
ATOM     17  C   UNL     1       2.199   3.435  17.600  0.00  0.00    +0.000 A 
ATOM     18  C   UNL     1       2.554   2.086  17.631  0.00  0.00    +0.000 A 
ATOM     19  C   UNL     1       3.529   1.637  18.518  0.00  0.00    +0.000 A 
ATOM     20  C   UNL     1       4.154   2.550  19.361  0.00  0.00    +0.000 A 
ATOM     21  C   UNL     1       3.747   3.885  19.362  0.00  0.00    +0.000 A 
ATOM     22  F   UNL     1       4.377   4.735  20.194  0.00  0.00    +0.000 F 
ENDBRANCH  15  16
BRANCH  14  23
ATOM     23  S   UNL     1       4.550   6.548  17.133  0.00  0.00    +0.000 S 
ATOM     24  H   UNL     1       3.944   6.423  15.942  0.00  0.00    +0.000 HD
ENDBRANCH  14  23
ENDBRANCH  13  14
ENDBRANCH   2  12
BRANCH   9  25
ATOM     25  C   UNL     1       0.765  12.916  18.981  0.00  0.00    +0.000 C 
BRANCH  25  26
ATOM     26  C   UNL     1       2.099  13.578  19.230  0.00  0.00    +0.000 A 
ATOM     27  C   UNL     1       2.588  13.728  20.537  0.00  0.00    +0.000 A 
ATOM     28  C   UNL     1       3.752  14.457  20.776  0.00  0.00    +0.000 A 
ATOM     29  C   UNL     1       4.444  15.015  19.708  0.00  0.00    +0.000 A 
ATOM     30  F   UNL     1       5.532  15.758  19.944  0.00  0.00    +0.000 F 
ATOM     31  C   UNL     1       4.015  14.824  18.401  0.00  0.00    +0.000 A 
ATOM     32  C   UNL     1       2.845  14.102  18.161  0.00  0.00    +0.000 A 
ENDBRANCH  25  26
ENDBRANCH   9  25
TORSDOF 7
ENDMDL
