MODEL 1
REMARK VINA RESULT:      -8.2      0.000      0.000
REMARK  Name = 
REMARK  5 active torsions:
REMARK  status: ('A' for Active; 'I' for Inactive)
REMARK    1  A    between atoms: C_11  and  C_12
REMARK    2  A    between atoms: C_13  and  C_14
REMARK    3  A    between atoms: CA_18  and  C_19
REMARK    4  A    between atoms: C_19  and  O_20
REMARK    5  A    between atoms: N_22  and  C_23
REMARK                            x       y       z     vdW  Elec       q    Type
REMARK                         _______ _______ _______ _____ _____    ______ ____
ROOT
ATOM      1  O   UNL     1       3.679   2.317  17.244  0.00  0.00    +0.000 OA
ATOM      2  C   UNL     1       3.893   3.527  17.358  0.00  0.00    +0.000 A 
ATOM      3  C   UNL     1       4.746   4.185  16.356  0.00  0.00    +0.000 A 
ATOM      4  C   UNL     1       5.471   3.442  15.417  0.00  0.00    +0.000 A 
ATOM      5  C   UNL     1       6.293   4.113  14.521  0.00  0.00    +0.000 A 
ATOM      6  F   UNL     1       7.005   3.416  13.626  0.00  0.00    +0.000 F 
ATOM      7  C   UNL     1       6.396   5.500  14.542  0.00  0.00    +0.000 A 
ATOM      8  C   UNL     1       5.657   6.229  15.477  0.00  0.00    +0.000 A 
ATOM      9  C   UNL     1       4.825   5.575  16.392  0.00  0.00    +0.000 A 
ATOM     10  N   UNL     1       4.125   6.343  17.325  0.00  0.00    +0.000 NA
ATOM     11  C   UNL     1       3.450   5.743  18.262  0.00  0.00    +0.000 A 
ATOM     12  N   UNL     1       3.346   4.355  18.350  0.00  0.00    +0.000 N 
ENDROOT
BRANCH  12  13
ATOM     13  C   UNL     1       2.659   3.706  19.421  0.00  0.00    +0.000 A 
ATOM     14  C   UNL     1       1.264   3.836  19.534  0.00  0.00    +0.000 A 
ATOM     15  C   UNL     1       0.589   3.294  20.629  0.00  0.00    +0.000 A 
ATOM     16  C   UNL     1       1.293   2.600  21.610  0.00  0.00    +0.000 A 
ATOM     17  C   UNL     1       2.672   2.427  21.490  0.00  0.00    +0.000 A 
ATOM     18  C   UNL     1       3.357   2.973  20.402  0.00  0.00    +0.000 A 
ATOM     19 CL   UNL     1       5.082   2.824  20.398  0.00  0.00    +0.000 Cl
ENDBRANCH  12  13
BRANCH  11  20
ATOM     20  C   UNL     1       2.810   6.589  19.326  0.00  0.00    +0.000 C 
ATOM     21  C   UNL     1       2.140   7.695  18.964  0.00  0.00    +0.000 C 
BRANCH  21  22
ATOM     22  C   UNL     1       1.504   8.662  19.875  0.00  0.00    +0.000 A 
ATOM     23  C   UNL     1       1.335   8.310  21.213  0.00  0.00    +0.000 A 
ATOM     24  C   UNL     1       0.726   9.210  22.083  0.00  0.00    +0.000 A 
ATOM     25  C   UNL     1       0.287  10.432  21.593  0.00  0.00    +0.000 A 
ATOM     26  CA  UNL     1       0.472  10.714  20.242  0.00  0.00    +0.000 A 
ATOM     27  N   UNL     1       1.085   9.852  19.376  0.00  0.00    +0.000 NA
BRANCH  26  28
ATOM     28  C   UNL     1      -0.064  12.017  19.687  0.00  0.00    +0.000 C 
BRANCH  28  29
ATOM     29  O   UNL     1       0.264  12.181  18.311  0.00  0.00    +0.000 OA
ATOM     30  H   UNL     1       0.545  13.112  18.233  0.00  0.00    +0.000 HD
ENDBRANCH  28  29
ENDBRANCH  26  28
ENDBRANCH  21  22
ENDBRANCH  11  20
TORSDOF 5
ENDMDL
MODEL 2
REMARK VINA RESULT:      -8.1      1.664      2.146
REMARK  Name = 
REMARK  5 active torsions:
REMARK  status: ('A' for Active; 'I' for Inactive)
REMARK    1  A    between atoms: C_11  and  C_12
REMARK    2  A    between atoms: C_13  and  C_14
REMARK    3  A    between atoms: CA_18  and  C_19
REMARK    4  A    between atoms: C_19  and  O_20
REMARK    5  A    between atoms: N_22  and  C_23
REMARK                            x       y       z     vdW  Elec       q    Type
REMARK                         _______ _______ _______ _____ _____    ______ ____
ROOT
ATOM      1  O   UNL     1       3.853   2.642  17.497  0.00  0.00    +0.000 OA
ATOM      2  C   UNL     1       3.974   3.869  17.515  0.00  0.00    +0.000 A 
ATOM      3  C   UNL     1       4.851   4.501  16.517  0.00  0.00    +0.000 A 
ATOM      4  C   UNL     1       5.693   3.737  15.699  0.00  0.00    +0.000 A 
ATOM      5  C   UNL     1       6.530   4.389  14.804  0.00  0.00    +0.000 A 
ATOM      6  F   UNL     1       7.353   3.672  14.025  0.00  0.00    +0.000 F 
ATOM      7  C   UNL     1       6.536   5.776  14.706  0.00  0.00    +0.000 A 
ATOM      8  C   UNL     1       5.682   6.525  15.518  0.00  0.00    +0.000 A 
ATOM      9  C   UNL     1       4.832   5.891  16.431  0.00  0.00    +0.000 A 
ATOM     10  N   UNL     1       4.014   6.681  17.241  0.00  0.00    +0.000 NA
ATOM     11  C   UNL     1       3.315   6.115  18.181  0.00  0.00    +0.000 A 
ATOM     12  N   UNL     1       3.301   4.736  18.388  0.00  0.00    +0.000 N 
ENDROOT
BRANCH  12  13
ATOM     13  C   UNL     1       2.582   4.131  19.465  0.00  0.00    +0.000 A 
ATOM     14  C   UNL     1       3.197   3.993  20.722  0.00  0.00    +0.000 A 
ATOM     15  C   UNL     1       2.549   3.315  21.755  0.00  0.00    +0.000 A 
ATOM     16  C   UNL     1       1.275   2.787  21.554  0.00  0.00    +0.000 A 
ATOM     17  C   UNL     1       0.637   2.952  20.325  0.00  0.00    +0.000 A 
ATOM     18  C   UNL     1       1.281   3.622  19.283  0.00  0.00    +0.000 A 
ATOM     19 CL   UNL     1       0.471   3.668  17.753  0.00  0.00    +0.000 Cl
ENDBRANCH  12  13
BRANCH  11  20
ATOM     20  C   UNL     1       2.542   6.999  19.119  0.00  0.00    +0.000 C 
ATOM     21  C   UNL     1       2.016   8.143  18.652  0.00  0.00    +0.000 C 
BRANCH  21  22
ATOM     22  C   UNL     1       1.283   9.148  19.441  0.00  0.00    +0.000 A 
ATOM     23  C   UNL     1       1.128  10.429  18.915  0.00  0.00    +0.000 A 
ATOM     24  C   UNL     1       0.446  11.392  19.653  0.00  0.00    +0.000 A 
ATOM     25  C   UNL     1      -0.049  11.057  20.906  0.00  0.00    +0.000 A 
ATOM     26  CA  UNL     1       0.155   9.764  21.380  0.00  0.00    +0.000 A 
ATOM     27  N   UNL     1       0.804   8.798  20.661  0.00  0.00    +0.000 NA
BRANCH  26  28
ATOM     28  C   UNL     1      -0.326   9.411  22.772  0.00  0.00    +0.000 C 
BRANCH  28  29
ATOM     29  O   UNL     1       0.679   9.646  23.754  0.00  0.00    +0.000 OA
ATOM     30  H   UNL     1       1.411   9.051  23.506  0.00  0.00    +0.000 HD
ENDBRANCH  28  29
ENDBRANCH  26  28
ENDBRANCH  21  22
ENDBRANCH  11  20
TORSDOF 5
ENDMDL
MODEL 3
REMARK VINA RESULT:      -8.1      4.350      8.473
REMARK  Name = 
REMARK  5 active torsions:
REMARK  status: ('A' for Active; 'I' for Inactive)
REMARK    1  A    between atoms: C_11  and  C_12
REMARK    2  A    between atoms: C_13  and  C_14
REMARK    3  A    between atoms: CA_18  and  C_19
REMARK    4  A    between atoms: C_19  and  O_20
REMARK    5  A    between atoms: N_22  and  C_23
REMARK                            x       y       z     vdW  Elec       q    Type
REMARK                         _______ _______ _______ _____ _____    ______ ____
ROOT
ATOM      1  O   UNL     1       4.077   5.952  20.137  0.00  0.00    +0.000 OA
ATOM      2  C   UNL     1       4.102   4.961  19.403  0.00  0.00    +0.000 A 
ATOM      3  C   UNL     1       3.120   3.890  19.639  0.00  0.00    +0.000 A 
ATOM      4  C   UNL     1       2.314   3.881  20.784  0.00  0.00    +0.000 A 
ATOM      5  C   UNL     1       1.434   2.824  20.976  0.00  0.00    +0.000 A 
ATOM      6  F   UNL     1       0.666   2.794  22.073  0.00  0.00    +0.000 F 
ATOM      7  C   UNL     1       1.342   1.790  20.051  0.00  0.00    +0.000 A 
ATOM      8  C   UNL     1       2.144   1.819  18.907  0.00  0.00    +0.000 A 
ATOM      9  C   UNL     1       3.040   2.871  18.694  0.00  0.00    +0.000 A 
ATOM     10  N   UNL     1       3.841   2.844  17.550  0.00  0.00    +0.000 NA
ATOM     11  C   UNL     1       4.767   3.746  17.402  0.00  0.00    +0.000 A 
ATOM     12  N   UNL     1       4.968   4.782  18.315  0.00  0.00    +0.000 N 
ENDROOT
BRANCH  12  13
ATOM     13  C   UNL     1       6.031   5.727  18.178  0.00  0.00    +0.000 A 
ATOM     14  C   UNL     1       7.206   5.569  18.934  0.00  0.00    +0.000 A 
ATOM     15  C   UNL     1       8.211   6.535  18.890  0.00  0.00    +0.000 A 
ATOM     16  C   UNL     1       8.067   7.657  18.076  0.00  0.00    +0.000 A 
ATOM     17  C   UNL     1       6.924   7.806  17.288  0.00  0.00    +0.000 A 
ATOM     18  C   UNL     1       5.910   6.848  17.334  0.00  0.00    +0.000 A 
ATOM     19 CL   UNL     1       4.472   7.176  16.425  0.00  0.00    +0.000 Cl
ENDBRANCH  12  13
BRANCH  11  20
ATOM     20  C   UNL     1       5.696   3.622  16.228  0.00  0.00    +0.000 C 
ATOM     21  C   UNL     1       5.312   4.112  15.038  0.00  0.00    +0.000 C 
BRANCH  21  22
ATOM     22  C   UNL     1       6.069   4.026  13.778  0.00  0.00    +0.000 A 
ATOM     23  C   UNL     1       6.952   5.055  13.455  0.00  0.00    +0.000 A 
ATOM     24  C   UNL     1       7.666   4.993  12.263  0.00  0.00    +0.000 A 
ATOM     25  C   UNL     1       7.471   3.913  11.413  0.00  0.00    +0.000 A 
ATOM     26  CA  UNL     1       6.562   2.927  11.788  0.00  0.00    +0.000 A 
ATOM     27  N   UNL     1       5.865   2.960  12.964  0.00  0.00    +0.000 NA
BRANCH  26  28
ATOM     28  C   UNL     1       6.295   1.779  10.836  0.00  0.00    +0.000 C 
BRANCH  28  29
ATOM     29  O   UNL     1       6.316   0.522  11.504  0.00  0.00    +0.000 OA
ATOM     30  H   UNL     1       6.469  -0.132  10.795  0.00  0.00    +0.000 HD
ENDBRANCH  28  29
ENDBRANCH  26  28
ENDBRANCH  21  22
ENDBRANCH  11  20
TORSDOF 5
ENDMDL
MODEL 4
REMARK VINA RESULT:      -8.0      1.259      1.675
REMARK  Name = 
REMARK  5 active torsions:
REMARK  status: ('A' for Active; 'I' for Inactive)
REMARK    1  A    between atoms: C_11  and  C_12
REMARK    2  A    between atoms: C_13  and  C_14
REMARK    3  A    between atoms: CA_18  and  C_19
REMARK    4  A    between atoms: C_19  and  O_20
REMARK    5  A    between atoms: N_22  and  C_23
REMARK                            x       y       z     vdW  Elec       q    Type
REMARK                         _______ _______ _______ _____ _____    ______ ____
ROOT
ATOM      1  O   UNL     1       3.719   2.414  17.131  0.00  0.00    +0.000 OA
ATOM      2  C   UNL     1       3.960   3.622  17.205  0.00  0.00    +0.000 A 
ATOM      3  C   UNL     1       4.852   4.220  16.199  0.00  0.00    +0.000 A 
ATOM      4  C   UNL     1       5.579   3.425  15.306  0.00  0.00    +0.000 A 
ATOM      5  C   UNL     1       6.438   4.042  14.405  0.00  0.00    +0.000 A 
ATOM      6  F   UNL     1       7.152   3.293  13.553  0.00  0.00    +0.000 F 
ATOM      7  C   UNL     1       6.575   5.425  14.377  0.00  0.00    +0.000 A 
ATOM      8  C   UNL     1       5.834   6.207  15.266  0.00  0.00    +0.000 A 
ATOM      9  C   UNL     1       4.965   5.608  16.185  0.00  0.00    +0.000 A 
ATOM     10  N   UNL     1       4.264   6.428  17.072  0.00  0.00    +0.000 NA
ATOM     11  C   UNL     1       3.553   5.881  18.015  0.00  0.00    +0.000 A 
ATOM     12  N   UNL     1       3.413   4.499  18.152  0.00  0.00    +0.000 N 
ENDROOT
BRANCH  12  13
ATOM     13  C   UNL     1       2.685   3.908  19.230  0.00  0.00    +0.000 A 
ATOM     14  C   UNL     1       1.298   4.115  19.331  0.00  0.00    +0.000 A 
ATOM     15  C   UNL     1       0.589   3.631  20.431  0.00  0.00    +0.000 A 
ATOM     16  C   UNL     1       1.249   2.918  21.430  0.00  0.00    +0.000 A 
ATOM     17  C   UNL     1       2.618   2.670  21.322  0.00  0.00    +0.000 A 
ATOM     18  C   UNL     1       3.337   3.158  20.229  0.00  0.00    +0.000 A 
ATOM     19 CL   UNL     1       5.052   2.917  20.240  0.00  0.00    +0.000 Cl
ENDBRANCH  12  13
BRANCH  11  20
ATOM     20  C   UNL     1       2.911   6.781  19.031  0.00  0.00    +0.000 C 
ATOM     21  C   UNL     1       2.161   7.812  18.608  0.00  0.00    +0.000 C 
BRANCH  21  22
ATOM     22  C   UNL     1       1.509   8.820  19.461  0.00  0.00    +0.000 A 
ATOM     23  C   UNL     1       1.150  10.043  18.897  0.00  0.00    +0.000 A 
ATOM     24  C   UNL     1       0.542  11.009  19.693  0.00  0.00    +0.000 A 
ATOM     25  C   UNL     1       0.324  10.738  21.036  0.00  0.00    +0.000 A 
ATOM     26  CA  UNL     1       0.722   9.503  21.540  0.00  0.00    +0.000 A 
ATOM     27  N   UNL     1       1.301   8.532  20.770  0.00  0.00    +0.000 NA
BRANCH  26  28
ATOM     28  C   UNL     1       0.546   9.225  23.019  0.00  0.00    +0.000 C 
BRANCH  28  29
ATOM     29  O   UNL     1      -0.823   9.277  23.408  0.00  0.00    +0.000 OA
ATOM     30  H   UNL     1      -1.319   9.269  22.568  0.00  0.00    +0.000 HD
ENDBRANCH  28  29
ENDBRANCH  26  28
ENDBRANCH  21  22
ENDBRANCH  11  20
TORSDOF 5
ENDMDL
MODEL 5
REMARK VINA RESULT:      -8.0      1.045      1.344
REMARK  Name = 
REMARK  5 active torsions:
REMARK  status: ('A' for Active; 'I' for Inactive)
REMARK    1  A    between atoms: C_11  and  C_12
REMARK    2  A    between atoms: C_13  and  C_14
REMARK    3  A    between atoms: CA_18  and  C_19
REMARK    4  A    between atoms: C_19  and  O_20
REMARK    5  A    between atoms: N_22  and  C_23
REMARK                            x       y       z     vdW  Elec       q    Type
REMARK                         _______ _______ _______ _____ _____    ______ ____
ROOT
ATOM      1  O   UNL     1       3.784   2.508  17.410  0.00  0.00    +0.000 OA
ATOM      2  C   UNL     1       3.960   3.725  17.506  0.00  0.00    +0.000 A 
ATOM      3  C   UNL     1       4.829   4.386  16.519  0.00  0.00    +0.000 A 
ATOM      4  C   UNL     1       5.606   3.645  15.621  0.00  0.00    +0.000 A 
ATOM      5  C   UNL     1       6.439   4.321  14.739  0.00  0.00    +0.000 A 
ATOM      6  F   UNL     1       7.200   3.626  13.883  0.00  0.00    +0.000 F 
ATOM      7  C   UNL     1       6.504   5.710  14.735  0.00  0.00    +0.000 A 
ATOM      8  C   UNL     1       5.714   6.437  15.628  0.00  0.00    +0.000 A 
ATOM      9  C   UNL     1       4.869   5.778  16.528  0.00  0.00    +0.000 A 
ATOM     10  N   UNL     1       4.118   6.545  17.421  0.00  0.00    +0.000 NA
ATOM     11  C   UNL     1       3.427   5.946  18.348  0.00  0.00    +0.000 A 
ATOM     12  N   UNL     1       3.358   4.557  18.461  0.00  0.00    +0.000 N 
ENDROOT
BRANCH  12  13
ATOM     13  C   UNL     1       2.652   3.910  19.522  0.00  0.00    +0.000 A 
ATOM     14  C   UNL     1       3.306   3.656  20.740  0.00  0.00    +0.000 A 
ATOM     15  C   UNL     1       2.666   2.936  21.749  0.00  0.00    +0.000 A 
ATOM     16  C   UNL     1       1.361   2.481  21.564  0.00  0.00    +0.000 A 
ATOM     17  C   UNL     1       0.686   2.762  20.376  0.00  0.00    +0.000 A 
ATOM     18  C   UNL     1       1.323   3.475  19.358  0.00  0.00    +0.000 A 
ATOM     19 CL   UNL     1       0.459   3.666  17.868  0.00  0.00    +0.000 Cl
ENDBRANCH  12  13
BRANCH  11  20
ATOM     20  C   UNL     1       2.729   6.794  19.372  0.00  0.00    +0.000 C 
ATOM     21  C   UNL     1       2.071   7.893  18.969  0.00  0.00    +0.000 C 
BRANCH  21  22
ATOM     22  C   UNL     1       1.384   8.862  19.839  0.00  0.00    +0.000 A 
ATOM     23  C   UNL     1       1.226   8.555  21.190  0.00  0.00    +0.000 A 
ATOM     24  C   UNL     1       0.570   9.457  22.022  0.00  0.00    +0.000 A 
ATOM     25  C   UNL     1       0.072  10.635  21.483  0.00  0.00    +0.000 A 
ATOM     26  CA  UNL     1       0.250  10.873  20.123  0.00  0.00    +0.000 A 
ATOM     27  N   UNL     1       0.909  10.010  19.292  0.00  0.00    +0.000 NA
BRANCH  26  28
ATOM     28  C   UNL     1      -0.347  12.126  19.516  0.00  0.00    +0.000 C 
BRANCH  28  29
ATOM     29  O   UNL     1       0.075  12.314  18.169  0.00  0.00    +0.000 OA
ATOM     30  H   UNL     1      -0.317  13.168  17.904  0.00  0.00    +0.000 HD
ENDBRANCH  28  29
ENDBRANCH  26  28
ENDBRANCH  21  22
ENDBRANCH  11  20
TORSDOF 5
ENDMDL
MODEL 6
REMARK VINA RESULT:      -7.9      4.359      8.131
REMARK  Name = 
REMARK  5 active torsions:
REMARK  status: ('A' for Active; 'I' for Inactive)
REMARK    1  A    between atoms: C_11  and  C_12
REMARK    2  A    between atoms: C_13  and  C_14
REMARK    3  A    between atoms: CA_18  and  C_19
REMARK    4  A    between atoms: C_19  and  O_20
REMARK    5  A    between atoms: N_22  and  C_23
REMARK                            x       y       z     vdW  Elec       q    Type
REMARK                         _______ _______ _______ _____ _____    ______ ____
ROOT
ATOM      1  O   UNL     1       4.074   5.905  20.260  0.00  0.00    +0.000 OA
ATOM      2  C   UNL     1       4.066   4.939  19.493  0.00  0.00    +0.000 A 
ATOM      3  C   UNL     1       3.071   3.878  19.712  0.00  0.00    +0.000 A 
ATOM      4  C   UNL     1       2.288   3.843  20.872  0.00  0.00    +0.000 A 
ATOM      5  C   UNL     1       1.394   2.795  21.046  0.00  0.00    +0.000 A 
ATOM      6  F   UNL     1       0.648   2.739  22.158  0.00  0.00    +0.000 F 
ATOM      7  C   UNL     1       1.265   1.795  20.089  0.00  0.00    +0.000 A 
ATOM      8  C   UNL     1       2.044   1.849  18.930  0.00  0.00    +0.000 A 
ATOM      9  C   UNL     1       2.954   2.893  18.734  0.00  0.00    +0.000 A 
ATOM     10  N   UNL     1       3.731   2.893  17.574  0.00  0.00    +0.000 NA
ATOM     11  C   UNL     1       4.670   3.783  17.438  0.00  0.00    +0.000 A 
ATOM     12  N   UNL     1       4.907   4.783  18.381  0.00  0.00    +0.000 N 
ENDROOT
BRANCH  12  13
ATOM     13  C   UNL     1       5.983   5.714  18.254  0.00  0.00    +0.000 A 
ATOM     14  C   UNL     1       7.178   5.499  18.964  0.00  0.00    +0.000 A 
ATOM     15  C   UNL     1       8.200   6.449  18.932  0.00  0.00    +0.000 A 
ATOM     16  C   UNL     1       8.052   7.611  18.177  0.00  0.00    +0.000 A 
ATOM     17  C   UNL     1       6.889   7.817  17.435  0.00  0.00    +0.000 A 
ATOM     18  C   UNL     1       5.858   6.876  17.468  0.00  0.00    +0.000 A 
ATOM     19 CL   UNL     1       4.398   7.274  16.623  0.00  0.00    +0.000 Cl
ENDBRANCH  12  13
BRANCH  11  20
ATOM     20  C   UNL     1       5.572   3.684  16.241  0.00  0.00    +0.000 C 
ATOM     21  C   UNL     1       5.199   4.272  15.092  0.00  0.00    +0.000 C 
BRANCH  21  22
ATOM     22  C   UNL     1       5.931   4.226  13.816  0.00  0.00    +0.000 A 
ATOM     23  C   UNL     1       5.620   3.221  12.901  0.00  0.00    +0.000 A 
ATOM     24  C   UNL     1       6.311   3.159  11.695  0.00  0.00    +0.000 A 
ATOM     25  C   UNL     1       7.306   4.091  11.437  0.00  0.00    +0.000 A 
ATOM     26  CA  UNL     1       7.579   5.059  12.400  0.00  0.00    +0.000 A 
ATOM     27  N   UNL     1       6.898   5.149  13.583  0.00  0.00    +0.000 NA
BRANCH  26  28
ATOM     28  C   UNL     1       8.707   6.039  12.154  0.00  0.00    +0.000 C 
BRANCH  28  29
ATOM     29  O   UNL     1       9.413   6.345  13.352  0.00  0.00    +0.000 OA
ATOM     30  H   UNL     1      10.022   7.066  13.103  0.00  0.00    +0.000 HD
ENDBRANCH  28  29
ENDBRANCH  26  28
ENDBRANCH  21  22
ENDBRANCH  11  20
TORSDOF 5
ENDMDL
MODEL 7
REMARK VINA RESULT:      -7.8      3.998      7.333
REMARK  Name = 
REMARK  5 active torsions:
REMARK  status: ('A' for Active; 'I' for Inactive)
REMARK    1  A    between atoms: C_11  and  C_12
REMARK    2  A    between atoms: C_13  and  C_14
REMARK    3  A    between atoms: CA_18  and  C_19
REMARK    4  A    between atoms: C_19  and  O_20
REMARK    5  A    between atoms: N_22  and  C_23
REMARK                            x       y       z     vdW  Elec       q    Type
REMARK                         _______ _______ _______ _____ _____    ______ ____
ROOT
ATOM      1  O   UNL     1       2.036   9.678  17.553  0.00  0.00    +0.000 OA
ATOM      2  C   UNL     1       1.667   9.329  18.677  0.00  0.00    +0.000 A 
ATOM      3  C   UNL     1       1.881   7.931  19.081  0.00  0.00    +0.000 A 
ATOM      4  C   UNL     1       2.296   6.962  18.160  0.00  0.00    +0.000 A 
ATOM      5  C   UNL     1       2.442   5.649  18.587  0.00  0.00    +0.000 A 
ATOM      6  F   UNL     1       2.824   4.707  17.713  0.00  0.00    +0.000 F 
ATOM      7  C   UNL     1       2.190   5.291  19.907  0.00  0.00    +0.000 A 
ATOM      8  C   UNL     1       1.788   6.270  20.818  0.00  0.00    +0.000 A 
ATOM      9  C   UNL     1       1.631   7.599  20.411  0.00  0.00    +0.000 A 
ATOM     10  N   UNL     1       1.202   8.539  21.350  0.00  0.00    +0.000 NA
ATOM     11  C   UNL     1       0.928   9.749  20.958  0.00  0.00    +0.000 A 
ATOM     12  N   UNL     1       1.094  10.173  19.639  0.00  0.00    +0.000 N 
ENDROOT
BRANCH  12  13
ATOM     13  C   UNL     1       0.726  11.484  19.205  0.00  0.00    +0.000 A 
ATOM     14  C   UNL     1       1.580  12.570  19.465  0.00  0.00    +0.000 A 
ATOM     15  C   UNL     1       1.192  13.869  19.140  0.00  0.00    +0.000 A 
ATOM     16  C   UNL     1      -0.042  14.100  18.533  0.00  0.00    +0.000 A 
ATOM     17  C   UNL     1      -0.882  13.027  18.231  0.00  0.00    +0.000 A 
ATOM     18  C   UNL     1      -0.504  11.724  18.561  0.00  0.00    +0.000 A 
ATOM     19 CL   UNL     1      -1.662  10.469  18.271  0.00  0.00    +0.000 Cl
ENDBRANCH  12  13
BRANCH  11  20
ATOM     20  C   UNL     1       0.350  10.705  21.962  0.00  0.00    +0.000 C 
ATOM     21  C   UNL     1      -0.926  11.103  21.824  0.00  0.00    +0.000 C 
BRANCH  21  22
ATOM     22  C   UNL     1      -1.630  12.073  22.679  0.00  0.00    +0.000 A 
ATOM     23  C   UNL     1      -1.030  13.306  22.929  0.00  0.00    +0.000 A 
ATOM     24  C   UNL     1      -1.679  14.228  23.744  0.00  0.00    +0.000 A 
ATOM     25  C   UNL     1      -2.904  13.892  24.303  0.00  0.00    +0.000 A 
ATOM     26  CA  UNL     1      -3.441  12.638  24.026  0.00  0.00    +0.000 A 
ATOM     27  N   UNL     1      -2.828  11.725  23.212  0.00  0.00    +0.000 NA
BRANCH  26  28
ATOM     28  C   UNL     1      -4.745  12.239  24.685  0.00  0.00    +0.000 C 
BRANCH  28  29
ATOM     29  O   UNL     1      -5.736  13.253  24.553  0.00  0.00    +0.000 OA
ATOM     30  H   UNL     1      -5.243  14.045  24.265  0.00  0.00    +0.000 HD
ENDBRANCH  28  29
ENDBRANCH  26  28
ENDBRANCH  21  22
ENDBRANCH  11  20
TORSDOF 5
ENDMDL
MODEL 8
REMARK VINA RESULT:      -7.6      3.370      7.514
REMARK  Name = 
REMARK  5 active torsions:
REMARK  status: ('A' for Active; 'I' for Inactive)
REMARK    1  A    between atoms: C_11  and  C_12
REMARK    2  A    between atoms: C_13  and  C_14
REMARK    3  A    between atoms: CA_18  and  C_19
REMARK    4  A    between atoms: C_19  and  O_20
REMARK    5  A    between atoms: N_22  and  C_23
REMARK                            x       y       z     vdW  Elec       q    Type
REMARK                         _______ _______ _______ _____ _____    ______ ____
ROOT
ATOM      1  O   UNL     1       1.955   5.757  20.700  0.00  0.00    +0.000 OA
ATOM      2  C   UNL     1       2.406   6.222  19.650  0.00  0.00    +0.000 A 
ATOM      3  C   UNL     1       2.100   7.621  19.315  0.00  0.00    +0.000 A 
ATOM      4  C   UNL     1       1.157   8.355  20.045  0.00  0.00    +0.000 A 
ATOM      5  C   UNL     1       0.877   9.659  19.658  0.00  0.00    +0.000 A 
ATOM      6  F   UNL     1      -0.034  10.370  20.338  0.00  0.00    +0.000 F 
ATOM      7  C   UNL     1       1.521  10.239  18.571  0.00  0.00    +0.000 A 
ATOM      8  C   UNL     1       2.469   9.499  17.860  0.00  0.00    +0.000 A 
ATOM      9  C   UNL     1       2.765   8.183  18.228  0.00  0.00    +0.000 A 
ATOM     10  N   UNL     1       3.699   7.472  17.471  0.00  0.00    +0.000 NA
ATOM     11  C   UNL     1       3.890   6.210  17.721  0.00  0.00    +0.000 A 
ATOM     12  N   UNL     1       3.238   5.535  18.754  0.00  0.00    +0.000 N 
ENDROOT
BRANCH  12  13
ATOM     13  C   UNL     1       3.404   4.134  18.977  0.00  0.00    +0.000 A 
ATOM     14  C   UNL     1       4.512   3.671  19.709  0.00  0.00    +0.000 A 
ATOM     15  C   UNL     1       4.744   2.303  19.849  0.00  0.00    +0.000 A 
ATOM     16  C   UNL     1       3.866   1.382  19.282  0.00  0.00    +0.000 A 
ATOM     17  C   UNL     1       2.741   1.827  18.588  0.00  0.00    +0.000 A 
ATOM     18  C   UNL     1       2.505   3.195  18.435  0.00  0.00    +0.000 A 
ATOM     19 CL   UNL     1       1.158   3.659  17.449  0.00  0.00    +0.000 Cl
ENDBRANCH  12  13
BRANCH  11  20
ATOM     20  C   UNL     1       4.806   5.439  16.814  0.00  0.00    +0.000 C 
ATOM     21  C   UNL     1       4.909   5.805  15.526  0.00  0.00    +0.000 C 
BRANCH  21  22
ATOM     22  C   UNL     1       5.710   5.130  14.492  0.00  0.00    +0.000 A 
ATOM     23  C   UNL     1       7.057   5.467  14.363  0.00  0.00    +0.000 A 
ATOM     24  C   UNL     1       7.825   4.844  13.383  0.00  0.00    +0.000 A 
ATOM     25  C   UNL     1       7.227   3.914  12.545  0.00  0.00    +0.000 A 
ATOM     26  CA  UNL     1       5.873   3.636  12.716  0.00  0.00    +0.000 A 
ATOM     27  N   UNL     1       5.106   4.221  13.686  0.00  0.00    +0.000 NA
BRANCH  26  28
ATOM     28  C   UNL     1       5.198   2.671  11.764  0.00  0.00    +0.000 C 
BRANCH  28  29
ATOM     29  O   UNL     1       5.949   1.471  11.607  0.00  0.00    +0.000 OA
ATOM     30  H   UNL     1       5.486   0.981  10.901  0.00  0.00    +0.000 HD
ENDBRANCH  28  29
ENDBRANCH  26  28
ENDBRANCH  21  22
ENDBRANCH  11  20
TORSDOF 5
ENDMDL
MODEL 9
REMARK VINA RESULT:      -7.4      7.208      9.771
REMARK  Name = 
REMARK  5 active torsions:
REMARK  status: ('A' for Active; 'I' for Inactive)
REMARK    1  A    between atoms: C_11  and  C_12
REMARK    2  A    between atoms: C_13  and  C_14
REMARK    3  A    between atoms: CA_18  and  C_19
REMARK    4  A    between atoms: C_19  and  O_20
REMARK    5  A    between atoms: N_22  and  C_23
REMARK                            x       y       z     vdW  Elec       q    Type
REMARK                         _______ _______ _______ _____ _____    ______ ____
ROOT
ATOM      1  O   UNL     1       2.128  12.595  20.944  0.00  0.00    +0.000 OA
ATOM      2  C   UNL     1       1.112  13.166  20.539  0.00  0.00    +0.000 A 
ATOM      3  C   UNL     1       1.244  14.524  19.989  0.00  0.00    +0.000 A 
ATOM      4  C   UNL     1       2.439  15.244  20.107  0.00  0.00    +0.000 A 
ATOM      5  C   UNL     1       2.495  16.538  19.607  0.00  0.00    +0.000 A 
ATOM      6  F   UNL     1       3.627  17.245  19.724  0.00  0.00    +0.000 F 
ATOM      7  C   UNL     1       1.391  17.118  18.991  0.00  0.00    +0.000 A 
ATOM      8  C   UNL     1       0.209  16.383  18.870  0.00  0.00    +0.000 A 
ATOM      9  C   UNL     1       0.128  15.079  19.369  0.00  0.00    +0.000 A 
ATOM     10  N   UNL     1      -1.082  14.392  19.249  0.00  0.00    +0.000 NA
ATOM     11  C   UNL     1      -1.213  13.231  19.821  0.00  0.00    +0.000 A 
ATOM     12  N   UNL     1      -0.174  12.606  20.511  0.00  0.00    +0.000 N 
ENDROOT
BRANCH  12  13
ATOM     13  C   UNL     1      -0.347  11.362  21.193  0.00  0.00    +0.000 A 
ATOM     14  C   UNL     1      -0.717  11.356  22.549  0.00  0.00    +0.000 A 
ATOM     15  C   UNL     1      -0.792  10.156  23.256  0.00  0.00    +0.000 A 
ATOM     16  C   UNL     1      -0.520   8.948  22.615  0.00  0.00    +0.000 A 
ATOM     17  C   UNL     1      -0.193   8.936  21.259  0.00  0.00    +0.000 A 
ATOM     18  C   UNL     1      -0.107  10.134  20.546  0.00  0.00    +0.000 A 
ATOM     19 CL   UNL     1       0.433  10.038  18.903  0.00  0.00    +0.000 Cl
ENDBRANCH  12  13
BRANCH  11  20
ATOM     20  C   UNL     1      -2.561  12.570  19.784  0.00  0.00    +0.000 C 
ATOM     21  C   UNL     1      -3.563  13.091  20.512  0.00  0.00    +0.000 C 
BRANCH  21  22
ATOM     22  C   UNL     1      -4.923  12.542  20.635  0.00  0.00    +0.000 A 
ATOM     23  C   UNL     1      -5.541  12.021  19.499  0.00  0.00    +0.000 A 
ATOM     24  C   UNL     1      -6.831  11.509  19.598  0.00  0.00    +0.000 A 
ATOM     25  C   UNL     1      -7.480  11.543  20.824  0.00  0.00    +0.000 A 
ATOM     26  CA  UNL     1      -6.812  12.092  21.916  0.00  0.00    +0.000 A 
ATOM     27  N   UNL     1      -5.537  12.583  21.844  0.00  0.00    +0.000 NA
BRANCH  26  28
ATOM     28  C   UNL     1      -7.538  12.193  23.242  0.00  0.00    +0.000 C 
BRANCH  28  29
ATOM     29  O   UNL     1      -7.893  10.911  23.750  0.00  0.00    +0.000 OA
ATOM     30  H   UNL     1      -8.770  11.042  24.159  0.00  0.00    +0.000 HD
ENDBRANCH  28  29
ENDBRANCH  26  28
ENDBRANCH  21  22
ENDBRANCH  11  20
TORSDOF 5
ENDMDL
