MODEL 1
REMARK VINA RESULT:      -7.7      0.000      0.000
REMARK  Name = 
REMARK  10 active torsions:
REMARK  status: ('A' for Active; 'I' for Inactive)
REMARK    1  A    between atoms: C_1  and  C_2
REMARK    2  A    between atoms: C_2  and  N_3
REMARK    3  A    between atoms: C_4  and  S_5
REMARK    4  A    between atoms: S_5  and  C_6
REMARK    5  A    between atoms: C_6  and  C_7
REMARK    6  A    between atoms: C_12  and  C_13
REMARK    7  A    between atoms: C_18  and  C_19
REMARK    8  A    between atoms: C_19  and  C_20
REMARK    9  A    between atoms: C_19  and  N_21
REMARK   10  A    between atoms: C_22  and  C_24
REMARK                            x       y       z     vdW  Elec       q    Type
REMARK                         _______ _______ _______ _____ _____    ______ ____
ROOT
ATOM      1  N   UNL     1       1.592   8.310  19.958  0.00  0.00    +0.000 N 
ATOM      2  C   UNL     1       2.228   7.254  19.357  0.00  0.00    +0.000 A 
ATOM      3  N   UNL     1       2.474   7.538  18.100  0.00  0.00    +0.000 NA
ATOM      4  N   UNL     1       1.980   8.795  17.856  0.00  0.00    +0.000 NA
ATOM      5  C   UNL     1       1.462   9.273  18.976  0.00  0.00    +0.000 A 
ENDROOT
BRANCH   1   7
ATOM      6  C   UNL     1      -0.342   8.320  21.487  0.00  0.00    +0.000 C 
ATOM      7  C   UNL     1       1.169   8.413  21.338  0.00  0.00    +0.000 C 
ENDBRANCH   1   7
BRANCH   5   8
ATOM      8  C   UNL     1       0.880  10.647  19.173  0.00  0.00    +0.000 C 
ATOM      9  C   UNL     1       1.796  11.715  18.570  0.00  0.00    +0.000 C 
BRANCH   8  10
ATOM     10  N   UNL     1      -0.441  10.695  18.558  0.00  0.00    +0.000 N 
ATOM     11  C   UNL     1      -1.520  11.234  19.237  0.00  0.00    +0.000 C 
ATOM     12  O   UNL     1      -1.471  11.591  20.406  0.00  0.00    +0.000 OA
ATOM     13  H   UNL     1      -0.469  10.695  17.546  0.00  0.00    +0.000 HD
BRANCH  11  14
ATOM     14  C   UNL     1      -2.783  11.393  18.454  0.00  0.00    +0.000 A 
ATOM     15  C   UNL     1      -3.916  11.987  19.026  0.00  0.00    +0.000 A 
ATOM     16  C   UNL     1      -5.087  12.130  18.276  0.00  0.00    +0.000 A 
ATOM     17  C   UNL     1      -5.130  11.689  16.954  0.00  0.00    +0.000 A 
ATOM     18  C   UNL     1      -3.999  11.115  16.372  0.00  0.00    +0.000 A 
ATOM     19  C   UNL     1      -2.824  10.974  17.117  0.00  0.00    +0.000 A 
ENDBRANCH  11  14
ENDBRANCH   8  10
ENDBRANCH   5   8
BRANCH   2  20
ATOM     20  S   UNL     1       2.655   5.787  20.166  0.00  0.00    +0.000 S 
BRANCH  20  21
ATOM     21  C   UNL     1       1.897   4.529  19.095  0.00  0.00    +0.000 C 
BRANCH  21  22
ATOM     22  C   UNL     1       2.750   4.288  17.859  0.00  0.00    +0.000 C 
ATOM     23  O   UNL     1       2.293   3.668  16.904  0.00  0.00    +0.000 OA
ATOM     24  N   UNL     1       4.024   4.800  17.985  0.00  0.00    +0.000 N 
ATOM     25  C   UNL     1       4.959   4.650  17.002  0.00  0.00    +0.000 A 
ATOM     26  N   UNL     1       4.802   4.272  15.760  0.00  0.00    +0.000 NA
ATOM     27  C   UNL     1       6.035   4.192  15.137  0.00  0.00    +0.000 A 
ATOM     28  C   UNL     1       6.089   3.761  13.718  0.00  0.00    +0.000 C 
ATOM     29  C   UNL     1       7.110   4.517  15.944  0.00  0.00    +0.000 A 
ATOM     30  S   UNL     1       6.554   4.993  17.496  0.00  0.00    +0.000 S 
ATOM     31  H   UNL     1       4.365   5.105  18.893  0.00  0.00    +0.000 HD
ENDBRANCH  21  22
ENDBRANCH  20  21
ENDBRANCH   2  20
TORSDOF 7
ENDMDL
MODEL 2
REMARK VINA RESULT:      -7.7      0.447      1.055
REMARK  Name = 
REMARK  10 active torsions:
REMARK  status: ('A' for Active; 'I' for Inactive)
REMARK    1  A    between atoms: C_1  and  C_2
REMARK    2  A    between atoms: C_2  and  N_3
REMARK    3  A    between atoms: C_4  and  S_5
REMARK    4  A    between atoms: S_5  and  C_6
REMARK    5  A    between atoms: C_6  and  C_7
REMARK    6  A    between atoms: C_12  and  C_13
REMARK    7  A    between atoms: C_18  and  C_19
REMARK    8  A    between atoms: C_19  and  C_20
REMARK    9  A    between atoms: C_19  and  N_21
REMARK   10  A    between atoms: C_22  and  C_24
REMARK                            x       y       z     vdW  Elec       q    Type
REMARK                         _______ _______ _______ _____ _____    ______ ____
ROOT
ATOM      1  N   UNL     1       1.539   8.246  19.831  0.00  0.00    +0.000 N 
ATOM      2  C   UNL     1       2.266   7.161  19.417  0.00  0.00    +0.000 A 
ATOM      3  N   UNL     1       2.840   7.422  18.266  0.00  0.00    +0.000 NA
ATOM      4  N   UNL     1       2.475   8.694  17.900  0.00  0.00    +0.000 NA
ATOM      5  C   UNL     1       1.704   9.203  18.848  0.00  0.00    +0.000 A 
ENDROOT
BRANCH   1   7
ATOM      6  C   UNL     1       1.564   9.079  22.152  0.00  0.00    +0.000 C 
ATOM      7  C   UNL     1       0.776   8.380  21.055  0.00  0.00    +0.000 C 
ENDBRANCH   1   7
BRANCH   5   8
ATOM      8  C   UNL     1       1.144  10.600  18.886  0.00  0.00    +0.000 C 
ATOM      9  C   UNL     1       2.099  11.584  18.205  0.00  0.00    +0.000 C 
BRANCH   8  10
ATOM     10  N   UNL     1      -0.158  10.607  18.231  0.00  0.00    +0.000 N 
ATOM     11  C   UNL     1      -1.275  11.103  18.880  0.00  0.00    +0.000 C 
ATOM     12  O   UNL     1      -1.274  11.452  20.052  0.00  0.00    +0.000 OA
ATOM     13  H   UNL     1      -0.154  10.615  17.218  0.00  0.00    +0.000 HD
BRANCH  11  14
ATOM     14  C   UNL     1      -2.518  11.225  18.059  0.00  0.00    +0.000 A 
ATOM     15  C   UNL     1      -2.526  10.867  16.704  0.00  0.00    +0.000 A 
ATOM     16  C   UNL     1      -3.700  10.985  15.955  0.00  0.00    +0.000 A 
ATOM     17  C   UNL     1      -4.869  11.454  16.553  0.00  0.00    +0.000 A 
ATOM     18  C   UNL     1      -4.873  11.794  17.906  0.00  0.00    +0.000 A 
ATOM     19  C   UNL     1      -3.702  11.673  18.662  0.00  0.00    +0.000 A 
ENDBRANCH  11  14
ENDBRANCH   8  10
ENDBRANCH   5   8
BRANCH   2  20
ATOM     20  S   UNL     1       2.412   5.688  20.309  0.00  0.00    +0.000 S 
BRANCH  20  21
ATOM     21  C   UNL     1       1.710   4.473  19.155  0.00  0.00    +0.000 C 
BRANCH  21  22
ATOM     22  C   UNL     1       2.631   4.268  17.962  0.00  0.00    +0.000 C 
ATOM     23  O   UNL     1       2.213   3.728  16.943  0.00  0.00    +0.000 OA
ATOM     24  N   UNL     1       3.915   4.713  18.200  0.00  0.00    +0.000 N 
ATOM     25  C   UNL     1       4.904   4.580  17.269  0.00  0.00    +0.000 A 
ATOM     26  N   UNL     1       4.813   4.284  15.999  0.00  0.00    +0.000 NA
ATOM     27  C   UNL     1       6.080   4.186  15.450  0.00  0.00    +0.000 A 
ATOM     28  C   UNL     1       6.209   3.838  14.012  0.00  0.00    +0.000 C 
ATOM     29  C   UNL     1       7.113   4.412  16.342  0.00  0.00    +0.000 A 
ATOM     30  S   UNL     1       6.477   4.818  17.883  0.00  0.00    +0.000 S 
ATOM     31  H   UNL     1       4.209   4.947  19.144  0.00  0.00    +0.000 HD
ENDBRANCH  21  22
ENDBRANCH  20  21
ENDBRANCH   2  20
TORSDOF 7
ENDMDL
MODEL 3
REMARK VINA RESULT:      -7.2      2.301      9.779
REMARK  Name = 
REMARK  10 active torsions:
REMARK  status: ('A' for Active; 'I' for Inactive)
REMARK    1  A    between atoms: C_1  and  C_2
REMARK    2  A    between atoms: C_2  and  N_3
REMARK    3  A    between atoms: C_4  and  S_5
REMARK    4  A    between atoms: S_5  and  C_6
REMARK    5  A    between atoms: C_6  and  C_7
REMARK    6  A    between atoms: C_12  and  C_13
REMARK    7  A    between atoms: C_18  and  C_19
REMARK    8  A    between atoms: C_19  and  C_20
REMARK    9  A    between atoms: C_19  and  N_21
REMARK   10  A    between atoms: C_22  and  C_24
REMARK                            x       y       z     vdW  Elec       q    Type
REMARK                         _______ _______ _______ _____ _____    ______ ____
ROOT
ATOM      1  N   UNL     1       2.627   6.042  18.685  0.00  0.00    +0.000 N 
ATOM      2  C   UNL     1       2.550   7.410  18.729  0.00  0.00    +0.000 A 
ATOM      3  N   UNL     1       3.395   7.933  17.873  0.00  0.00    +0.000 NA
ATOM      4  N   UNL     1       4.058   6.898  17.262  0.00  0.00    +0.000 NA
ATOM      5  C   UNL     1       3.587   5.755  17.734  0.00  0.00    +0.000 A 
ENDROOT
BRANCH   1   7
ATOM      6  C   UNL     1       2.389   4.904  20.859  0.00  0.00    +0.000 C 
ATOM      7  C   UNL     1       1.849   5.091  19.450  0.00  0.00    +0.000 C 
ENDBRANCH   1   7
BRANCH   5   8
ATOM      8  C   UNL     1       3.982   4.374  17.282  0.00  0.00    +0.000 C 
ATOM      9  C   UNL     1       2.774   3.434  17.294  0.00  0.00    +0.000 C 
BRANCH   8  10
ATOM     10  N   UNL     1       4.557   4.459  15.945  0.00  0.00    +0.000 N 
ATOM     11  C   UNL     1       5.928   4.472  15.762  0.00  0.00    +0.000 C 
ATOM     12  O   UNL     1       6.731   4.529  16.684  0.00  0.00    +0.000 OA
ATOM     13  H   UNL     1       3.980   4.124  15.183  0.00  0.00    +0.000 HD
BRANCH  11  14
ATOM     14  C   UNL     1       6.410   4.383  14.349  0.00  0.00    +0.000 A 
ATOM     15  C   UNL     1       7.460   5.190  13.894  0.00  0.00    +0.000 A 
ATOM     16  C   UNL     1       7.898   5.090  12.570  0.00  0.00    +0.000 A 
ATOM     17  C   UNL     1       7.296   4.183  11.700  0.00  0.00    +0.000 A 
ATOM     18  C   UNL     1       6.262   3.362  12.153  0.00  0.00    +0.000 A 
ATOM     19  C   UNL     1       5.824   3.455  13.478  0.00  0.00    +0.000 A 
ENDBRANCH  11  14
ENDBRANCH   8  10
ENDBRANCH   5   8
BRANCH   2  20
ATOM     20  S   UNL     1       1.470   8.292  19.752  0.00  0.00    +0.000 S 
BRANCH  20  21
ATOM     21  C   UNL     1       1.148   9.785  18.767  0.00  0.00    +0.000 C 
BRANCH  21  22
ATOM     22  C   UNL     1      -0.312  10.196  18.873  0.00  0.00    +0.000 C 
ATOM     23  O   UNL     1      -0.881  10.182  19.960  0.00  0.00    +0.000 OA
ATOM     24  N   UNL     1      -0.862  10.522  17.651  0.00  0.00    +0.000 N 
ATOM     25  C   UNL     1      -2.174  10.875  17.526  0.00  0.00    +0.000 A 
ATOM     26  N   UNL     1      -3.035  11.207  18.452  0.00  0.00    +0.000 NA
ATOM     27  C   UNL     1      -4.277  11.422  17.879  0.00  0.00    +0.000 A 
ATOM     28  C   UNL     1      -5.413  11.793  18.760  0.00  0.00    +0.000 C 
ATOM     29  C   UNL     1      -4.319  11.239  16.509  0.00  0.00    +0.000 A 
ATOM     30  S   UNL     1      -2.753  10.854  15.922  0.00  0.00    +0.000 S 
ATOM     31  H   UNL     1      -0.369  10.296  16.792  0.00  0.00    +0.000 HD
ENDBRANCH  21  22
ENDBRANCH  20  21
ENDBRANCH   2  20
TORSDOF 7
ENDMDL
MODEL 4
REMARK VINA RESULT:      -7.1      2.333      9.264
REMARK  Name = 
REMARK  10 active torsions:
REMARK  status: ('A' for Active; 'I' for Inactive)
REMARK    1  A    between atoms: C_1  and  C_2
REMARK    2  A    between atoms: C_2  and  N_3
REMARK    3  A    between atoms: C_4  and  S_5
REMARK    4  A    between atoms: S_5  and  C_6
REMARK    5  A    between atoms: C_6  and  C_7
REMARK    6  A    between atoms: C_12  and  C_13
REMARK    7  A    between atoms: C_18  and  C_19
REMARK    8  A    between atoms: C_19  and  C_20
REMARK    9  A    between atoms: C_19  and  N_21
REMARK   10  A    between atoms: C_22  and  C_24
REMARK                            x       y       z     vdW  Elec       q    Type
REMARK                         _______ _______ _______ _____ _____    ______ ____
ROOT
ATOM      1  N   UNL     1       2.381   5.772  19.204  0.00  0.00    +0.000 N 
ATOM      2  C   UNL     1       2.332   7.136  19.326  0.00  0.00    +0.000 A 
ATOM      3  N   UNL     1       3.111   7.692  18.428  0.00  0.00    +0.000 NA
ATOM      4  N   UNL     1       3.700   6.682  17.709  0.00  0.00    +0.000 NA
ATOM      5  C   UNL     1       3.250   5.522  18.160  0.00  0.00    +0.000 A 
ENDROOT
BRANCH   1   7
ATOM      6  C   UNL     1       2.440   4.321  21.197  0.00  0.00    +0.000 C 
ATOM      7  C   UNL     1       1.654   4.792  19.983  0.00  0.00    +0.000 C 
ENDBRANCH   1   7
BRANCH   5   8
ATOM      8  C   UNL     1       3.579   4.162  17.604  0.00  0.00    +0.000 C 
ATOM      9  C   UNL     1       2.317   3.303  17.493  0.00  0.00    +0.000 C 
BRANCH   8  10
ATOM     10  N   UNL     1       4.211   4.323  16.300  0.00  0.00    +0.000 N 
ATOM     11  C   UNL     1       5.589   4.341  16.177  0.00  0.00    +0.000 C 
ATOM     12  O   UNL     1       6.351   4.342  17.134  0.00  0.00    +0.000 OA
ATOM     13  H   UNL     1       3.666   4.035  15.496  0.00  0.00    +0.000 HD
BRANCH  11  14
ATOM     14  C   UNL     1       6.130   4.334  14.784  0.00  0.00    +0.000 A 
ATOM     15  C   UNL     1       7.259   5.092  14.444  0.00  0.00    +0.000 A 
ATOM     16  C   UNL     1       7.752   5.068  13.137  0.00  0.00    +0.000 A 
ATOM     17  C   UNL     1       7.127   4.286  12.166  0.00  0.00    +0.000 A 
ATOM     18  C   UNL     1       6.015   3.513  12.502  0.00  0.00    +0.000 A 
ATOM     19  C   UNL     1       5.520   3.530  13.811  0.00  0.00    +0.000 A 
ENDBRANCH  11  14
ENDBRANCH   8  10
ENDBRANCH   5   8
BRANCH   2  20
ATOM     20  S   UNL     1       1.361   7.977  20.483  0.00  0.00    +0.000 S 
BRANCH  20  21
ATOM     21  C   UNL     1       1.331   9.662  19.801  0.00  0.00    +0.000 C 
BRANCH  21  22
ATOM     22  C   UNL     1       0.380   9.747  18.617  0.00  0.00    +0.000 C 
ATOM     23  O   UNL     1       0.743   9.380  17.505  0.00  0.00    +0.000 OA
ATOM     24  N   UNL     1      -0.841  10.293  18.955  0.00  0.00    +0.000 N 
ATOM     25  C   UNL     1      -1.818  10.496  18.024  0.00  0.00    +0.000 A 
ATOM     26  N   UNL     1      -1.913  10.030  16.806  0.00  0.00    +0.000 NA
ATOM     27  C   UNL     1      -3.039  10.552  16.193  0.00  0.00    +0.000 A 
ATOM     28  C   UNL     1      -3.329  10.165  14.789  0.00  0.00    +0.000 C 
ATOM     29  C   UNL     1      -3.776  11.416  16.982  0.00  0.00    +0.000 A 
ATOM     30  S   UNL     1      -3.075  11.525  18.544  0.00  0.00    +0.000 S 
ATOM     31  H   UNL     1      -0.963  10.758  19.850  0.00  0.00    +0.000 HD
ENDBRANCH  21  22
ENDBRANCH  20  21
ENDBRANCH   2  20
TORSDOF 7
ENDMDL
MODEL 5
REMARK VINA RESULT:      -7.0      0.969      1.345
REMARK  Name = 
REMARK  10 active torsions:
REMARK  status: ('A' for Active; 'I' for Inactive)
REMARK    1  A    between atoms: C_1  and  C_2
REMARK    2  A    between atoms: C_2  and  N_3
REMARK    3  A    between atoms: C_4  and  S_5
REMARK    4  A    between atoms: S_5  and  C_6
REMARK    5  A    between atoms: C_6  and  C_7
REMARK    6  A    between atoms: C_12  and  C_13
REMARK    7  A    between atoms: C_18  and  C_19
REMARK    8  A    between atoms: C_19  and  C_20
REMARK    9  A    between atoms: C_19  and  N_21
REMARK   10  A    between atoms: C_22  and  C_24
REMARK                            x       y       z     vdW  Elec       q    Type
REMARK                         _______ _______ _______ _____ _____    ______ ____
ROOT
ATOM      1  N   UNL     1       1.737   8.033  19.744  0.00  0.00    +0.000 N 
ATOM      2  C   UNL     1       2.312   6.894  19.242  0.00  0.00    +0.000 A 
ATOM      3  N   UNL     1       2.647   7.079  17.987  0.00  0.00    +0.000 NA
ATOM      4  N   UNL     1       2.272   8.354  17.643  0.00  0.00    +0.000 NA
ATOM      5  C   UNL     1       1.739   8.941  18.702  0.00  0.00    +0.000 A 
ENDROOT
BRANCH   1   7
ATOM      6  C   UNL     1      -0.262   8.143  21.183  0.00  0.00    +0.000 C 
ATOM      7  C   UNL     1       1.252   8.254  21.089  0.00  0.00    +0.000 C 
ENDBRANCH   1   7
BRANCH   5   8
ATOM      8  C   UNL     1       1.263  10.367  18.787  0.00  0.00    +0.000 C 
ATOM      9  C   UNL     1       2.240  11.306  18.073  0.00  0.00    +0.000 C 
BRANCH   8  10
ATOM     10  N   UNL     1      -0.066  10.459  18.196  0.00  0.00    +0.000 N 
ATOM     11  C   UNL     1      -1.116  11.025  18.898  0.00  0.00    +0.000 C 
ATOM     12  O   UNL     1      -1.035  11.372  20.068  0.00  0.00    +0.000 OA
ATOM     13  H   UNL     1      -0.112  10.468  17.184  0.00  0.00    +0.000 HD
BRANCH  11  14
ATOM     14  C   UNL     1      -2.387  11.229  18.138  0.00  0.00    +0.000 A 
ATOM     15  C   UNL     1      -2.479  10.893  16.781  0.00  0.00    +0.000 A 
ATOM     16  C   UNL     1      -3.677  11.088  16.090  0.00  0.00    +0.000 A 
ATOM     17  C   UNL     1      -4.789  11.612  16.749  0.00  0.00    +0.000 A 
ATOM     18  C   UNL     1      -4.711  11.930  18.105  0.00  0.00    +0.000 A 
ATOM     19  C   UNL     1      -3.514  11.732  18.803  0.00  0.00    +0.000 A 
ENDBRANCH  11  14
ENDBRANCH   8  10
ENDBRANCH   5   8
BRANCH   2  20
ATOM     20  S   UNL     1       2.573   5.450  20.156  0.00  0.00    +0.000 S 
BRANCH  20  21
ATOM     21  C   UNL     1       4.293   5.041  19.738  0.00  0.00    +0.000 C 
BRANCH  21  22
ATOM     22  C   UNL     1       4.409   4.621  18.281  0.00  0.00    +0.000 C 
ATOM     23  O   UNL     1       3.635   3.793  17.813  0.00  0.00    +0.000 OA
ATOM     24  N   UNL     1       5.458   5.238  17.633  0.00  0.00    +0.000 N 
ATOM     25  C   UNL     1       5.758   4.964  16.330  0.00  0.00    +0.000 A 
ATOM     26  N   UNL     1       5.047   4.336  15.430  0.00  0.00    +0.000 NA
ATOM     27  C   UNL     1       5.773   4.223  14.257  0.00  0.00    +0.000 A 
ATOM     28  C   UNL     1       5.155   3.523  13.102  0.00  0.00    +0.000 C 
ATOM     29  C   UNL     1       7.038   4.778  14.307  0.00  0.00    +0.000 A 
ATOM     30  S   UNL     1       7.296   5.511  15.837  0.00  0.00    +0.000 S 
ATOM     31  H   UNL     1       6.163   5.741  18.164  0.00  0.00    +0.000 HD
ENDBRANCH  21  22
ENDBRANCH  20  21
ENDBRANCH   2  20
TORSDOF 7
ENDMDL
MODEL 6
REMARK VINA RESULT:      -7.0      3.252      9.974
REMARK  Name = 
REMARK  10 active torsions:
REMARK  status: ('A' for Active; 'I' for Inactive)
REMARK    1  A    between atoms: C_1  and  C_2
REMARK    2  A    between atoms: C_2  and  N_3
REMARK    3  A    between atoms: C_4  and  S_5
REMARK    4  A    between atoms: S_5  and  C_6
REMARK    5  A    between atoms: C_6  and  C_7
REMARK    6  A    between atoms: C_12  and  C_13
REMARK    7  A    between atoms: C_18  and  C_19
REMARK    8  A    between atoms: C_19  and  C_20
REMARK    9  A    between atoms: C_19  and  N_21
REMARK   10  A    between atoms: C_22  and  C_24
REMARK                            x       y       z     vdW  Elec       q    Type
REMARK                         _______ _______ _______ _____ _____    ______ ____
ROOT
ATOM      1  N   UNL     1       2.853   5.782  19.250  0.00  0.00    +0.000 N 
ATOM      2  C   UNL     1       2.478   7.099  19.190  0.00  0.00    +0.000 A 
ATOM      3  N   UNL     1       2.838   7.613  18.037  0.00  0.00    +0.000 NA
ATOM      4  N   UNL     1       3.477   6.627  17.326  0.00  0.00    +0.000 NA
ATOM      5  C   UNL     1       3.474   5.516  18.045  0.00  0.00    +0.000 A 
ENDROOT
BRANCH   1   7
ATOM      6  C   UNL     1       1.157   4.473  20.471  0.00  0.00    +0.000 C 
ATOM      7  C   UNL     1       2.624   4.851  20.335  0.00  0.00    +0.000 C 
ENDBRANCH   1   7
BRANCH   5   8
ATOM      8  C   UNL     1       4.003   4.175  17.613  0.00  0.00    +0.000 C 
ATOM      9  C   UNL     1       2.903   3.112  17.679  0.00  0.00    +0.000 C 
BRANCH   8  10
ATOM     10  N   UNL     1       4.532   4.287  16.259  0.00  0.00    +0.000 N 
ATOM     11  C   UNL     1       5.883   4.486  16.040  0.00  0.00    +0.000 C 
ATOM     12  O   UNL     1       6.688   4.694  16.938  0.00  0.00    +0.000 OA
ATOM     13  H   UNL     1       3.992   3.844  15.525  0.00  0.00    +0.000 HD
BRANCH  11  14
ATOM     14  C   UNL     1       6.343   4.411  14.619  0.00  0.00    +0.000 A 
ATOM     15  C   UNL     1       7.448   5.151  14.179  0.00  0.00    +0.000 A 
ATOM     16  C   UNL     1       7.865   5.064  12.848  0.00  0.00    +0.000 A 
ATOM     17  C   UNL     1       7.186   4.236  11.954  0.00  0.00    +0.000 A 
ATOM     18  C   UNL     1       6.096   3.482  12.391  0.00  0.00    +0.000 A 
ATOM     19  C   UNL     1       5.679   3.562  13.724  0.00  0.00    +0.000 A 
ENDBRANCH  11  14
ENDBRANCH   8  10
ENDBRANCH   5   8
BRANCH   2  20
ATOM     20  S   UNL     1       1.634   7.931  20.448  0.00  0.00    +0.000 S 
BRANCH  20  21
ATOM     21  C   UNL     1       1.014   9.403  19.582  0.00  0.00    +0.000 C 
BRANCH  21  22
ATOM     22  C   UNL     1       0.418  10.397  20.567  0.00  0.00    +0.000 C 
ATOM     23  O   UNL     1      -0.419  10.031  21.385  0.00  0.00    +0.000 OA
ATOM     24  N   UNL     1       0.899  11.677  20.386  0.00  0.00    +0.000 N 
ATOM     25  C   UNL     1       0.455  12.724  21.141  0.00  0.00    +0.000 A 
ATOM     26  N   UNL     1      -0.238  12.711  22.250  0.00  0.00    +0.000 NA
ATOM     27  C   UNL     1      -0.527  14.009  22.634  0.00  0.00    +0.000 A 
ATOM     28  C   UNL     1      -1.328  14.225  23.867  0.00  0.00    +0.000 C 
ATOM     29  C   UNL     1      -0.037  14.984  21.786  0.00  0.00    +0.000 A 
ATOM     30  S   UNL     1       0.860  14.257  20.516  0.00  0.00    +0.000 S 
ATOM     31  H   UNL     1       1.424  11.912  19.549  0.00  0.00    +0.000 HD
ENDBRANCH  21  22
ENDBRANCH  20  21
ENDBRANCH   2  20
TORSDOF 7
ENDMDL
MODEL 7
REMARK VINA RESULT:      -6.9      3.326      9.714
REMARK  Name = 
REMARK  10 active torsions:
REMARK  status: ('A' for Active; 'I' for Inactive)
REMARK    1  A    between atoms: C_1  and  C_2
REMARK    2  A    between atoms: C_2  and  N_3
REMARK    3  A    between atoms: C_4  and  S_5
REMARK    4  A    between atoms: S_5  and  C_6
REMARK    5  A    between atoms: C_6  and  C_7
REMARK    6  A    between atoms: C_12  and  C_13
REMARK    7  A    between atoms: C_18  and  C_19
REMARK    8  A    between atoms: C_19  and  C_20
REMARK    9  A    between atoms: C_19  and  N_21
REMARK   10  A    between atoms: C_22  and  C_24
REMARK                            x       y       z     vdW  Elec       q    Type
REMARK                         _______ _______ _______ _____ _____    ______ ____
ROOT
ATOM      1  N   UNL     1       2.738   5.825  19.430  0.00  0.00    +0.000 N 
ATOM      2  C   UNL     1       2.376   7.148  19.423  0.00  0.00    +0.000 A 
ATOM      3  N   UNL     1       2.677   7.686  18.265  0.00  0.00    +0.000 NA
ATOM      4  N   UNL     1       3.264   6.712  17.496  0.00  0.00    +0.000 NA
ATOM      5  C   UNL     1       3.288   5.583  18.186  0.00  0.00    +0.000 A 
ENDROOT
BRANCH   1   7
ATOM      6  C   UNL     1       1.133   4.344  20.575  0.00  0.00    +0.000 C 
ATOM      7  C   UNL     1       2.558   4.870  20.503  0.00  0.00    +0.000 C 
ENDBRANCH   1   7
BRANCH   5   8
ATOM      8  C   UNL     1       3.777   4.247  17.693  0.00  0.00    +0.000 C 
ATOM      9  C   UNL     1       2.628   3.236  17.642  0.00  0.00    +0.000 C 
BRANCH   8  10
ATOM     10  N   UNL     1       4.373   4.417  16.374  0.00  0.00    +0.000 N 
ATOM     11  C   UNL     1       5.744   4.354  16.203  0.00  0.00    +0.000 C 
ATOM     12  O   UNL     1       6.537   4.270  17.131  0.00  0.00    +0.000 OA
ATOM     13  H   UNL     1       3.785   4.196  15.580  0.00  0.00    +0.000 HD
BRANCH  11  14
ATOM     14  C   UNL     1       6.237   4.366  14.791  0.00  0.00    +0.000 A 
ATOM     15  C   UNL     1       7.347   5.138  14.421  0.00  0.00    +0.000 A 
ATOM     16  C   UNL     1       7.794   5.132  13.098  0.00  0.00    +0.000 A 
ATOM     17  C   UNL     1       7.143   4.355  12.141  0.00  0.00    +0.000 A 
ATOM     18  C   UNL     1       6.050   3.569  12.507  0.00  0.00    +0.000 A 
ATOM     19  C   UNL     1       5.601   3.567  13.832  0.00  0.00    +0.000 A 
ENDBRANCH  11  14
ENDBRANCH   8  10
ENDBRANCH   5   8
BRANCH   2  20
ATOM     20  S   UNL     1       1.613   7.956  20.747  0.00  0.00    +0.000 S 
BRANCH  20  21
ATOM     21  C   UNL     1       0.699   9.283  19.906  0.00  0.00    +0.000 C 
BRANCH  21  22
ATOM     22  C   UNL     1       0.986  10.629  20.552  0.00  0.00    +0.000 C 
ATOM     23  O   UNL     1       1.197  10.703  21.758  0.00  0.00    +0.000 OA
ATOM     24  N   UNL     1       0.938  11.672  19.651  0.00  0.00    +0.000 N 
ATOM     25  C   UNL     1       1.124  12.967  20.041  0.00  0.00    +0.000 A 
ATOM     26  N   UNL     1       1.600  13.433  21.166  0.00  0.00    +0.000 NA
ATOM     27  C   UNL     1       1.545  14.816  21.157  0.00  0.00    +0.000 A 
ATOM     28  C   UNL     1       2.022  15.555  22.354  0.00  0.00    +0.000 C 
ATOM     29  C   UNL     1       1.017  15.365  20.003  0.00  0.00    +0.000 A 
ATOM     30  S   UNL     1       0.642  14.121  18.883  0.00  0.00    +0.000 S 
ATOM     31  H   UNL     1       0.547  11.529  18.723  0.00  0.00    +0.000 HD
ENDBRANCH  21  22
ENDBRANCH  20  21
ENDBRANCH   2  20
TORSDOF 7
ENDMDL
MODEL 8
REMARK VINA RESULT:      -6.7      3.414      5.905
REMARK  Name = 
REMARK  10 active torsions:
REMARK  status: ('A' for Active; 'I' for Inactive)
REMARK    1  A    between atoms: C_1  and  C_2
REMARK    2  A    between atoms: C_2  and  N_3
REMARK    3  A    between atoms: C_4  and  S_5
REMARK    4  A    between atoms: S_5  and  C_6
REMARK    5  A    between atoms: C_6  and  C_7
REMARK    6  A    between atoms: C_12  and  C_13
REMARK    7  A    between atoms: C_18  and  C_19
REMARK    8  A    between atoms: C_19  and  C_20
REMARK    9  A    between atoms: C_19  and  N_21
REMARK   10  A    between atoms: C_22  and  C_24
REMARK                            x       y       z     vdW  Elec       q    Type
REMARK                         _______ _______ _______ _____ _____    ______ ____
ROOT
ATOM      1  N   UNL     1      -0.516  11.273  21.074  0.00  0.00    +0.000 N 
ATOM      2  C   UNL     1      -0.460  10.299  22.037  0.00  0.00    +0.000 A 
ATOM      3  N   UNL     1      -0.553  10.843  23.227  0.00  0.00    +0.000 NA
ATOM      4  N   UNL     1      -0.656  12.201  23.055  0.00  0.00    +0.000 NA
ATOM      5  C   UNL     1      -0.652  12.466  21.758  0.00  0.00    +0.000 A 
ENDROOT
BRANCH   1   7
ATOM      6  C   UNL     1       0.950  11.094  19.099  0.00  0.00    +0.000 C 
ATOM      7  C   UNL     1      -0.472  11.095  19.638  0.00  0.00    +0.000 C 
ENDBRANCH   1   7
BRANCH   5   8
ATOM      8  C   UNL     1      -0.820  13.821  21.125  0.00  0.00    +0.000 C 
ATOM      9  C   UNL     1      -1.446  14.807  22.115  0.00  0.00    +0.000 C 
BRANCH   8  10
ATOM     10  N   UNL     1       0.481  14.299  20.673  0.00  0.00    +0.000 N 
ATOM     11  C   UNL     1       0.677  14.688  19.360  0.00  0.00    +0.000 C 
ATOM     12  O   UNL     1      -0.167  14.554  18.484  0.00  0.00    +0.000 OA
ATOM     13  H   UNL     1       1.087  14.695  21.381  0.00  0.00    +0.000 HD
BRANCH  11  14
ATOM     14  C   UNL     1       1.993  15.325  19.047  0.00  0.00    +0.000 A 
ATOM     15  C   UNL     1       2.806  14.830  18.019  0.00  0.00    +0.000 A 
ATOM     16  C   UNL     1       4.031  15.441  17.739  0.00  0.00    +0.000 A 
ATOM     17  C   UNL     1       4.446  16.549  18.476  0.00  0.00    +0.000 A 
ATOM     18  C   UNL     1       3.632  17.059  19.488  0.00  0.00    +0.000 A 
ATOM     19  C   UNL     1       2.402  16.454  19.769  0.00  0.00    +0.000 A 
ENDBRANCH  11  14
ENDBRANCH   8  10
ENDBRANCH   5   8
BRANCH   2  20
ATOM     20  S   UNL     1      -0.314   8.609  21.705  0.00  0.00    +0.000 S 
BRANCH  20  21
ATOM     21  C   UNL     1       1.485   8.409  21.536  0.00  0.00    +0.000 C 
BRANCH  21  22
ATOM     22  C   UNL     1       1.814   7.370  20.475  0.00  0.00    +0.000 C 
ATOM     23  O   UNL     1       2.103   7.720  19.336  0.00  0.00    +0.000 OA
ATOM     24  N   UNL     1       1.707   6.078  20.946  0.00  0.00    +0.000 N 
ATOM     25  C   UNL     1       1.920   4.999  20.137  0.00  0.00    +0.000 A 
ATOM     26  N   UNL     1       2.467   4.948  18.951  0.00  0.00    +0.000 NA
ATOM     27  C   UNL     1       2.413   3.652  18.468  0.00  0.00    +0.000 A 
ATOM     28  C   UNL     1       2.967   3.371  17.119  0.00  0.00    +0.000 C 
ATOM     29  C   UNL     1       1.811   2.744  19.320  0.00  0.00    +0.000 A 
ATOM     30  S   UNL     1       1.363   3.523  20.782  0.00  0.00    +0.000 S 
ATOM     31  H   UNL     1       1.257   5.894  21.839  0.00  0.00    +0.000 HD
ENDBRANCH  21  22
ENDBRANCH  20  21
ENDBRANCH   2  20
TORSDOF 7
ENDMDL
MODEL 9
REMARK VINA RESULT:      -6.7      2.946     10.157
REMARK  Name = 
REMARK  10 active torsions:
REMARK  status: ('A' for Active; 'I' for Inactive)
REMARK    1  A    between atoms: C_1  and  C_2
REMARK    2  A    between atoms: C_2  and  N_3
REMARK    3  A    between atoms: C_4  and  S_5
REMARK    4  A    between atoms: S_5  and  C_6
REMARK    5  A    between atoms: C_6  and  C_7
REMARK    6  A    between atoms: C_12  and  C_13
REMARK    7  A    between atoms: C_18  and  C_19
REMARK    8  A    between atoms: C_19  and  C_20
REMARK    9  A    between atoms: C_19  and  N_21
REMARK   10  A    between atoms: C_22  and  C_24
REMARK                            x       y       z     vdW  Elec       q    Type
REMARK                         _______ _______ _______ _____ _____    ______ ____
ROOT
ATOM      1  N   UNL     1       1.508   8.901  19.776  0.00  0.00    +0.000 N 
ATOM      2  C   UNL     1       1.013   9.979  19.088  0.00  0.00    +0.000 A 
ATOM      3  N   UNL     1       1.300   9.864  17.813  0.00  0.00    +0.000 NA
ATOM      4  N   UNL     1       2.012   8.702  17.652  0.00  0.00    +0.000 NA
ATOM      5  C   UNL     1       2.126   8.107  18.829  0.00  0.00    +0.000 A 
ENDROOT
BRANCH   1   7
ATOM      6  C   UNL     1      -0.035   8.274  21.594  0.00  0.00    +0.000 C 
ATOM      7  C   UNL     1       1.388   8.630  21.193  0.00  0.00    +0.000 C 
ENDBRANCH   1   7
BRANCH   5   8
ATOM      8  C   UNL     1       2.767   6.771  19.093  0.00  0.00    +0.000 C 
ATOM      9  C   UNL     1       1.702   5.694  19.317  0.00  0.00    +0.000 C 
BRANCH   8  10
ATOM     10  N   UNL     1       3.623   6.424  17.966  0.00  0.00    +0.000 N 
ATOM     11  C   UNL     1       4.738   5.624  18.141  0.00  0.00    +0.000 C 
ATOM     12  O   UNL     1       5.139   5.259  19.238  0.00  0.00    +0.000 OA
ATOM     13  H   UNL     1       3.193   6.444  17.049  0.00  0.00    +0.000 HD
BRANCH  11  14
ATOM     14  C   UNL     1       5.443   5.187  16.898  0.00  0.00    +0.000 A 
ATOM     15  C   UNL     1       4.807   4.363  15.960  0.00  0.00    +0.000 A 
ATOM     16  C   UNL     1       5.482   3.968  14.801  0.00  0.00    +0.000 A 
ATOM     17  C   UNL     1       6.789   4.397  14.572  0.00  0.00    +0.000 A 
ATOM     18  C   UNL     1       7.421   5.234  15.492  0.00  0.00    +0.000 A 
ATOM     19  C   UNL     1       6.748   5.636  16.651  0.00  0.00    +0.000 A 
ENDBRANCH  11  14
ENDBRANCH   8  10
ENDBRANCH   5   8
BRANCH   2  20
ATOM     20  S   UNL     1       0.122  11.271  19.813  0.00  0.00    +0.000 S 
BRANCH  20  21
ATOM     21  C   UNL     1      -1.149  11.607  18.558  0.00  0.00    +0.000 C 
BRANCH  21  22
ATOM     22  C   UNL     1      -2.469  11.979  19.214  0.00  0.00    +0.000 C 
ATOM     23  O   UNL     1      -2.504  12.292  20.400  0.00  0.00    +0.000 OA
ATOM     24  N   UNL     1      -3.539  11.881  18.349  0.00  0.00    +0.000 N 
ATOM     25  C   UNL     1      -4.817  12.131  18.756  0.00  0.00    +0.000 A 
ATOM     26  N   UNL     1      -5.241  12.710  19.850  0.00  0.00    +0.000 NA
ATOM     27  C   UNL     1      -6.624  12.688  19.883  0.00  0.00    +0.000 A 
ATOM     28  C   UNL     1      -7.317  13.281  21.055  0.00  0.00    +0.000 C 
ATOM     29  C   UNL     1      -7.217  12.079  18.793  0.00  0.00    +0.000 A 
ATOM     30  S   UNL     1      -6.015  11.581  17.675  0.00  0.00    +0.000 S 
ATOM     31  H   UNL     1      -3.431  11.411  17.454  0.00  0.00    +0.000 HD
ENDBRANCH  21  22
ENDBRANCH  20  21
ENDBRANCH   2  20
TORSDOF 7
ENDMDL
