MODEL 1
REMARK VINA RESULT:      -6.8      0.000      0.000
REMARK  Name = 
REMARK  5 active torsions:
REMARK  status: ('A' for Active; 'I' for Inactive)
REMARK    1  A    between atoms: C_1  and  C_2
REMARK    2  A    between atoms: C_2  and  O_3
REMARK    3  A    between atoms: O_3  and  C_4
REMARK    4  A    between atoms: C_4  and  C_6
REMARK    5  A    between atoms: C_6  and  N_7
REMARK                            x       y       z     vdW  Elec       q    Type
REMARK                         _______ _______ _______ _____ _____    ______ ____
ROOT
ATOM      1  N   UNL     1       5.556   5.173  16.510  0.00  0.00    +0.000 N 
ATOM      2  C   UNL     1       6.468   5.637  17.472  0.00  0.00    +0.000 C 
ATOM      3  N   UNL     1       7.403   6.495  17.384  0.00  0.00    +0.000 NA
ATOM      4  C   UNL     1       8.015   6.603  18.705  0.00  0.00    +0.000 C 
ATOM      5  C   UNL     1       7.247   5.582  19.623  0.00  0.00    +0.000 C 
ATOM      6  N   UNL     1       6.289   5.075  18.695  0.00  0.00    +0.000 N 
ATOM      7  C   UNL     1       5.212   4.174  18.567  0.00  0.00    +0.000 A 
ATOM      8  C   UNL     1       4.619   3.329  19.502  0.00  0.00    +0.000 A 
ATOM      9  C   UNL     1       3.538   2.534  19.067  0.00  0.00    +0.000 A 
ATOM     10  C   UNL     1       3.080   2.602  17.730  0.00  0.00    +0.000 A 
ATOM     11  C   UNL     1       3.695   3.464  16.803  0.00  0.00    +0.000 A 
ATOM     12  C   UNL     1       4.763   4.242  17.245  0.00  0.00    +0.000 A 
ENDROOT
BRANCH   1  13
ATOM     13  C   UNL     1       5.479   5.560  15.122  0.00  0.00    +0.000 C 
BRANCH  13  14
ATOM     14  C   UNL     1       6.517   4.841  14.326  0.00  0.00    +0.000 C 
ATOM     15  O   UNL     1       7.636   5.324  14.214  0.00  0.00    +0.000 OA
BRANCH  14  16
ATOM     16  O   UNL     1       6.216   3.640  13.770  0.00  0.00    +0.000 OA
BRANCH  16  18
ATOM     17  C   UNL     1       4.775   3.375  11.876  0.00  0.00    +0.000 C 
ATOM     18  C   UNL     1       6.204   3.386  12.414  0.00  0.00    +0.000 C 
ENDBRANCH  16  18
ENDBRANCH  14  16
ENDBRANCH  13  14
ENDBRANCH   1  13
TORSDOF 4
ENDMDL
MODEL 2
REMARK VINA RESULT:      -6.6      2.646      4.084
REMARK  Name = 
REMARK  5 active torsions:
REMARK  status: ('A' for Active; 'I' for Inactive)
REMARK    1  A    between atoms: C_1  and  C_2
REMARK    2  A    between atoms: C_2  and  O_3
REMARK    3  A    between atoms: O_3  and  C_4
REMARK    4  A    between atoms: C_4  and  C_6
REMARK    5  A    between atoms: C_6  and  N_7
REMARK                            x       y       z     vdW  Elec       q    Type
REMARK                         _______ _______ _______ _____ _____    ______ ____
ROOT
ATOM      1  N   UNL     1       4.605   4.877  17.995  0.00  0.00    +0.000 N 
ATOM      2  C   UNL     1       3.939   6.113  18.015  0.00  0.00    +0.000 C 
ATOM      3  N   UNL     1       4.057   7.132  17.263  0.00  0.00    +0.000 NA
ATOM      4  C   UNL     1       3.093   8.125  17.730  0.00  0.00    +0.000 C 
ATOM      5  C   UNL     1       2.372   7.480  18.969  0.00  0.00    +0.000 C 
ATOM      6  N   UNL     1       3.006   6.202  18.998  0.00  0.00    +0.000 N 
ATOM      7  C   UNL     1       3.040   4.976  19.694  0.00  0.00    +0.000 A 
ATOM      8  C   UNL     1       2.305   4.535  20.791  0.00  0.00    +0.000 A 
ATOM      9  C   UNL     1       2.567   3.233  21.269  0.00  0.00    +0.000 A 
ATOM     10  C   UNL     1       3.539   2.415  20.646  0.00  0.00    +0.000 A 
ATOM     11  C   UNL     1       4.269   2.882  19.537  0.00  0.00    +0.000 A 
ATOM     12  C   UNL     1       4.002   4.170  19.078  0.00  0.00    +0.000 A 
ENDROOT
BRANCH   1  13
ATOM     13  C   UNL     1       5.649   4.463  17.088  0.00  0.00    +0.000 C 
BRANCH  13  14
ATOM     14  C   UNL     1       6.990   4.752  17.676  0.00  0.00    +0.000 C 
ATOM     15  O   UNL     1       7.986   4.223  17.199  0.00  0.00    +0.000 OA
BRANCH  14  16
ATOM     16  O   UNL     1       7.090   5.630  18.705  0.00  0.00    +0.000 OA
BRANCH  16  18
ATOM     17  C   UNL     1       7.689   7.645  17.558  0.00  0.00    +0.000 C 
ATOM     18  C   UNL     1       7.952   6.708  18.734  0.00  0.00    +0.000 C 
ENDBRANCH  16  18
ENDBRANCH  14  16
ENDBRANCH  13  14
ENDBRANCH   1  13
TORSDOF 4
ENDMDL
MODEL 3
REMARK VINA RESULT:      -6.6      2.273      4.847
REMARK  Name = 
REMARK  5 active torsions:
REMARK  status: ('A' for Active; 'I' for Inactive)
REMARK    1  A    between atoms: C_1  and  C_2
REMARK    2  A    between atoms: C_2  and  O_3
REMARK    3  A    between atoms: O_3  and  C_4
REMARK    4  A    between atoms: C_4  and  C_6
REMARK    5  A    between atoms: C_6  and  N_7
REMARK                            x       y       z     vdW  Elec       q    Type
REMARK                         _______ _______ _______ _____ _____    ______ ____
ROOT
ATOM      1  N   UNL     1       6.653   5.406  17.520  0.00  0.00    +0.000 N 
ATOM      2  C   UNL     1       6.651   5.062  16.159  0.00  0.00    +0.000 C 
ATOM      3  N   UNL     1       7.534   5.229  15.259  0.00  0.00    +0.000 NA
ATOM      4  C   UNL     1       7.006   4.652  14.025  0.00  0.00    +0.000 C 
ATOM      5  C   UNL     1       5.571   4.113  14.378  0.00  0.00    +0.000 C 
ATOM      6  N   UNL     1       5.513   4.430  15.768  0.00  0.00    +0.000 N 
ATOM      7  C   UNL     1       4.690   4.346  16.910  0.00  0.00    +0.000 A 
ATOM      8  C   UNL     1       3.416   3.808  17.073  0.00  0.00    +0.000 A 
ATOM      9  C   UNL     1       2.843   3.872  18.360  0.00  0.00    +0.000 A 
ATOM     10  C   UNL     1       3.546   4.460  19.438  0.00  0.00    +0.000 A 
ATOM     11  C   UNL     1       4.833   4.996  19.250  0.00  0.00    +0.000 A 
ATOM     12  C   UNL     1       5.386   4.929  17.973  0.00  0.00    +0.000 A 
ENDROOT
BRANCH   1  13
ATOM     13  C   UNL     1       7.698   6.087  18.247  0.00  0.00    +0.000 C 
BRANCH  13  14
ATOM     14  C   UNL     1       7.709   7.539  17.898  0.00  0.00    +0.000 C 
ATOM     15  O   UNL     1       6.879   7.978  17.113  0.00  0.00    +0.000 OA
BRANCH  14  16
ATOM     16  O   UNL     1       8.615   8.358  18.489  0.00  0.00    +0.000 OA
BRANCH  16  18
ATOM     17  C   UNL     1       9.369  10.390  19.507  0.00  0.00    +0.000 C 
ATOM     18  C   UNL     1       8.646   9.729  18.337  0.00  0.00    +0.000 C 
ENDBRANCH  16  18
ENDBRANCH  14  16
ENDBRANCH  13  14
ENDBRANCH   1  13
TORSDOF 4
ENDMDL
MODEL 4
REMARK VINA RESULT:      -6.4      3.386      4.988
REMARK  Name = 
REMARK  5 active torsions:
REMARK  status: ('A' for Active; 'I' for Inactive)
REMARK    1  A    between atoms: C_1  and  C_2
REMARK    2  A    between atoms: C_2  and  O_3
REMARK    3  A    between atoms: O_3  and  C_4
REMARK    4  A    between atoms: C_4  and  C_6
REMARK    5  A    between atoms: C_6  and  N_7
REMARK                            x       y       z     vdW  Elec       q    Type
REMARK                         _______ _______ _______ _____ _____    ______ ____
ROOT
ATOM      1  N   UNL     1       5.322   4.970  18.566  0.00  0.00    +0.000 N 
ATOM      2  C   UNL     1       4.678   3.983  19.329  0.00  0.00    +0.000 C 
ATOM      3  N   UNL     1       5.120   2.900  19.830  0.00  0.00    +0.000 NA
ATOM      4  C   UNL     1       4.013   2.275  20.549  0.00  0.00    +0.000 C 
ATOM      5  C   UNL     1       2.774   3.223  20.347  0.00  0.00    +0.000 C 
ATOM      6  N   UNL     1       3.372   4.264  19.575  0.00  0.00    +0.000 N 
ATOM      7  C   UNL     1       3.102   5.494  18.942  0.00  0.00    +0.000 A 
ATOM      8  C   UNL     1       1.926   6.236  18.865  0.00  0.00    +0.000 A 
ATOM      9  C   UNL     1       1.969   7.451  18.149  0.00  0.00    +0.000 A 
ATOM     10  C   UNL     1       3.168   7.892  17.540  0.00  0.00    +0.000 A 
ATOM     11  C   UNL     1       4.345   7.125  17.633  0.00  0.00    +0.000 A 
ATOM     12  C   UNL     1       4.287   5.926  18.340  0.00  0.00    +0.000 A 
ENDROOT
BRANCH   1  13
ATOM     13  C   UNL     1       6.697   4.975  18.128  0.00  0.00    +0.000 C 
BRANCH  13  14
ATOM     14  C   UNL     1       7.554   5.687  19.123  0.00  0.00    +0.000 C 
ATOM     15  O   UNL     1       7.735   5.193  20.228  0.00  0.00    +0.000 OA
BRANCH  14  16
ATOM     16  O   UNL     1       8.153   6.852  18.771  0.00  0.00    +0.000 OA
BRANCH  16  18
ATOM     17  C   UNL     1       8.084   9.088  17.917  0.00  0.00    +0.000 C 
ATOM     18  C   UNL     1       7.810   7.607  17.668  0.00  0.00    +0.000 C 
ENDBRANCH  16  18
ENDBRANCH  14  16
ENDBRANCH  13  14
ENDBRANCH   1  13
TORSDOF 4
ENDMDL
MODEL 5
REMARK VINA RESULT:      -6.4      3.145      5.165
REMARK  Name = 
REMARK  5 active torsions:
REMARK  status: ('A' for Active; 'I' for Inactive)
REMARK    1  A    between atoms: C_1  and  C_2
REMARK    2  A    between atoms: C_2  and  O_3
REMARK    3  A    between atoms: O_3  and  C_4
REMARK    4  A    between atoms: C_4  and  C_6
REMARK    5  A    between atoms: C_6  and  N_7
REMARK                            x       y       z     vdW  Elec       q    Type
REMARK                         _______ _______ _______ _____ _____    ______ ____
ROOT
ATOM      1  N   UNL     1       4.252   4.461  18.370  0.00  0.00    +0.000 N 
ATOM      2  C   UNL     1       4.891   4.763  17.157  0.00  0.00    +0.000 C 
ATOM      3  N   UNL     1       5.663   4.063  16.428  0.00  0.00    +0.000 NA
ATOM      4  C   UNL     1       6.012   4.874  15.265  0.00  0.00    +0.000 C 
ATOM      5  C   UNL     1       5.287   6.255  15.467  0.00  0.00    +0.000 C 
ATOM      6  N   UNL     1       4.604   6.009  16.696  0.00  0.00    +0.000 N 
ATOM      7  C   UNL     1       3.738   6.595  17.641  0.00  0.00    +0.000 A 
ATOM      8  C   UNL     1       3.149   7.857  17.673  0.00  0.00    +0.000 A 
ATOM      9  C   UNL     1       2.314   8.157  18.769  0.00  0.00    +0.000 A 
ATOM     10  C   UNL     1       2.087   7.205  19.790  0.00  0.00    +0.000 A 
ATOM     11  C   UNL     1       2.692   5.935  19.736  0.00  0.00    +0.000 A 
ATOM     12  C   UNL     1       3.517   5.653  18.650  0.00  0.00    +0.000 A 
ENDROOT
BRANCH   1  13
ATOM     13  C   UNL     1       4.347   3.235  19.125  0.00  0.00    +0.000 C 
BRANCH  13  14
ATOM     14  C   UNL     1       3.416   2.210  18.567  0.00  0.00    +0.000 C 
ATOM     15  O   UNL     1       3.760   1.035  18.533  0.00  0.00    +0.000 OA
BRANCH  14  16
ATOM     16  O   UNL     1       2.185   2.590  18.142  0.00  0.00    +0.000 OA
BRANCH  16  18
ATOM     17  C   UNL     1       0.866   2.998  20.098  0.00  0.00    +0.000 C 
ATOM     18  C   UNL     1       1.003   2.257  18.771  0.00  0.00    +0.000 C 
ENDBRANCH  16  18
ENDBRANCH  14  16
ENDBRANCH  13  14
ENDBRANCH   1  13
TORSDOF 4
ENDMDL
MODEL 6
REMARK VINA RESULT:      -6.4      3.140      5.598
REMARK  Name = 
REMARK  5 active torsions:
REMARK  status: ('A' for Active; 'I' for Inactive)
REMARK    1  A    between atoms: C_1  and  C_2
REMARK    2  A    between atoms: C_2  and  O_3
REMARK    3  A    between atoms: O_3  and  C_4
REMARK    4  A    between atoms: C_4  and  C_6
REMARK    5  A    between atoms: C_6  and  N_7
REMARK                            x       y       z     vdW  Elec       q    Type
REMARK                         _______ _______ _______ _____ _____    ______ ____
ROOT
ATOM      1  N   UNL     1       4.028   4.164  18.149  0.00  0.00    +0.000 N 
ATOM      2  C   UNL     1       3.472   5.421  18.434  0.00  0.00    +0.000 C 
ATOM      3  N   UNL     1       2.712   5.798  19.382  0.00  0.00    +0.000 NA
ATOM      4  C   UNL     1       2.464   7.225  19.195  0.00  0.00    +0.000 C 
ATOM      5  C   UNL     1       3.235   7.630  17.885  0.00  0.00    +0.000 C 
ATOM      6  N   UNL     1       3.836   6.382  17.545  0.00  0.00    +0.000 N 
ATOM      7  C   UNL     1       4.671   5.754  16.598  0.00  0.00    +0.000 A 
ATOM      8  C   UNL     1       5.311   6.265  15.472  0.00  0.00    +0.000 A 
ATOM      9  C   UNL     1       6.095   5.375  14.709  0.00  0.00    +0.000 A 
ATOM     10  C   UNL     1       6.223   4.017  15.085  0.00  0.00    +0.000 A 
ATOM     11  C   UNL     1       5.569   3.523  16.230  0.00  0.00    +0.000 A 
ATOM     12  C   UNL     1       4.795   4.412  16.972  0.00  0.00    +0.000 A 
ENDROOT
BRANCH   1  13
ATOM     13  C   UNL     1       3.838   2.938  18.888  0.00  0.00    +0.000 C 
BRANCH  13  14
ATOM     14  C   UNL     1       2.516   2.332  18.552  0.00  0.00    +0.000 C 
ATOM     15  O   UNL     1       2.220   2.137  17.380  0.00  0.00    +0.000 OA
BRANCH  14  16
ATOM     16  O   UNL     1       1.677   1.967  19.554  0.00  0.00    +0.000 OA
BRANCH  16  18
ATOM     17  C   UNL     1       1.653   2.826  21.788  0.00  0.00    +0.000 C 
ATOM     18  C   UNL     1       1.032   2.851  20.395  0.00  0.00    +0.000 C 
ENDBRANCH  16  18
ENDBRANCH  14  16
ENDBRANCH  13  14
ENDBRANCH   1  13
TORSDOF 4
ENDMDL
MODEL 7
REMARK VINA RESULT:      -6.4      2.638      4.599
REMARK  Name = 
REMARK  5 active torsions:
REMARK  status: ('A' for Active; 'I' for Inactive)
REMARK    1  A    between atoms: C_1  and  C_2
REMARK    2  A    between atoms: C_2  and  O_3
REMARK    3  A    between atoms: O_3  and  C_4
REMARK    4  A    between atoms: C_4  and  C_6
REMARK    5  A    between atoms: C_6  and  N_7
REMARK                            x       y       z     vdW  Elec       q    Type
REMARK                         _______ _______ _______ _____ _____    ______ ____
ROOT
ATOM      1  N   UNL     1       4.492   4.439  17.104  0.00  0.00    +0.000 N 
ATOM      2  C   UNL     1       3.793   3.463  17.832  0.00  0.00    +0.000 C 
ATOM      3  N   UNL     1       3.926   2.199  17.868  0.00  0.00    +0.000 NA
ATOM      4  C   UNL     1       2.945   1.689  18.822  0.00  0.00    +0.000 C 
ATOM      5  C   UNL     1       2.157   2.945  19.346  0.00  0.00    +0.000 C 
ATOM      6  N   UNL     1       2.833   3.984  18.640  0.00  0.00    +0.000 N 
ATOM      7  C   UNL     1       2.865   5.381  18.449  0.00  0.00    +0.000 A 
ATOM      8  C   UNL     1       2.092   6.392  19.015  0.00  0.00    +0.000 A 
ATOM      9  C   UNL     1       2.367   7.719  18.621  0.00  0.00    +0.000 A 
ATOM     10  C   UNL     1       3.393   8.000  17.688  0.00  0.00    +0.000 A 
ATOM     11  C   UNL     1       4.162   6.961  17.130  0.00  0.00    +0.000 A 
ATOM     12  C   UNL     1       3.878   5.656  17.526  0.00  0.00    +0.000 A 
ENDROOT
BRANCH   1  13
ATOM     13  C   UNL     1       5.561   4.223  16.159  0.00  0.00    +0.000 C 
BRANCH  13  14
ATOM     14  C   UNL     1       6.885   4.432  16.818  0.00  0.00    +0.000 C 
ATOM     15  O   UNL     1       7.901   4.465  16.136  0.00  0.00    +0.000 OA
BRANCH  14  16
ATOM     16  O   UNL     1       6.937   4.625  18.159  0.00  0.00    +0.000 OA
BRANCH  16  18
ATOM     17  C   UNL     1       7.689   6.896  18.247  0.00  0.00    +0.000 C 
ATOM     18  C   UNL     1       7.818   5.477  18.794  0.00  0.00    +0.000 C 
ENDBRANCH  16  18
ENDBRANCH  14  16
ENDBRANCH  13  14
ENDBRANCH   1  13
TORSDOF 4
ENDMDL
MODEL 8
REMARK VINA RESULT:      -6.4      2.081      2.749
REMARK  Name = 
REMARK  5 active torsions:
REMARK  status: ('A' for Active; 'I' for Inactive)
REMARK    1  A    between atoms: C_1  and  C_2
REMARK    2  A    between atoms: C_2  and  O_3
REMARK    3  A    between atoms: O_3  and  C_4
REMARK    4  A    between atoms: C_4  and  C_6
REMARK    5  A    between atoms: C_6  and  N_7
REMARK                            x       y       z     vdW  Elec       q    Type
REMARK                         _______ _______ _______ _____ _____    ______ ____
ROOT
ATOM      1  N   UNL     1       4.868   4.757  17.763  0.00  0.00    +0.000 N 
ATOM      2  C   UNL     1       4.168   5.974  17.756  0.00  0.00    +0.000 C 
ATOM      3  N   UNL     1       4.573   7.165  17.570  0.00  0.00    +0.000 NA
ATOM      4  C   UNL     1       3.403   8.036  17.647  0.00  0.00    +0.000 C 
ATOM      5  C   UNL     1       2.181   7.093  17.953  0.00  0.00    +0.000 C 
ATOM      6  N   UNL     1       2.834   5.824  17.966  0.00  0.00    +0.000 N 
ATOM      7  C   UNL     1       2.608   4.443  18.138  0.00  0.00    +0.000 A 
ATOM      8  C   UNL     1       1.433   3.740  18.391  0.00  0.00    +0.000 A 
ATOM      9  C   UNL     1       1.528   2.337  18.513  0.00  0.00    +0.000 A 
ATOM     10  C   UNL     1       2.774   1.680  18.376  0.00  0.00    +0.000 A 
ATOM     11  C   UNL     1       3.948   2.413  18.118  0.00  0.00    +0.000 A 
ATOM     12  C   UNL     1       3.841   3.797  18.004  0.00  0.00    +0.000 A 
ENDROOT
BRANCH   1  13
ATOM     13  C   UNL     1       6.287   4.567  17.577  0.00  0.00    +0.000 C 
BRANCH  13  14
ATOM     14  C   UNL     1       6.649   4.745  16.139  0.00  0.00    +0.000 C 
ATOM     15  O   UNL     1       7.370   5.678  15.809  0.00  0.00    +0.000 OA
BRANCH  14  16
ATOM     16  O   UNL     1       6.206   3.847  15.225  0.00  0.00    +0.000 OA
BRANCH  16  18
ATOM     17  C   UNL     1       6.206   3.592  12.844  0.00  0.00    +0.000 C 
ATOM     18  C   UNL     1       5.517   4.175  14.075  0.00  0.00    +0.000 C 
ENDBRANCH  16  18
ENDBRANCH  14  16
ENDBRANCH  13  14
ENDBRANCH   1  13
TORSDOF 4
ENDMDL
MODEL 9
REMARK VINA RESULT:      -6.3      2.411      3.935
REMARK  Name = 
REMARK  5 active torsions:
REMARK  status: ('A' for Active; 'I' for Inactive)
REMARK    1  A    between atoms: C_1  and  C_2
REMARK    2  A    between atoms: C_2  and  O_3
REMARK    3  A    between atoms: O_3  and  C_4
REMARK    4  A    between atoms: C_4  and  C_6
REMARK    5  A    between atoms: C_6  and  N_7
REMARK                            x       y       z     vdW  Elec       q    Type
REMARK                         _______ _______ _______ _____ _____    ______ ____
ROOT
ATOM      1  N   UNL     1       4.166   4.524  17.208  0.00  0.00    +0.000 N 
ATOM      2  C   UNL     1       3.753   5.836  17.488  0.00  0.00    +0.000 C 
ATOM      3  N   UNL     1       4.196   6.953  17.072  0.00  0.00    +0.000 NA
ATOM      4  C   UNL     1       3.368   7.996  17.672  0.00  0.00    +0.000 C 
ATOM      5  C   UNL     1       2.323   7.250  18.581  0.00  0.00    +0.000 C 
ATOM      6  N   UNL     1       2.689   5.894  18.332  0.00  0.00    +0.000 N 
ATOM      7  C   UNL     1       2.364   4.561  18.656  0.00  0.00    +0.000 A 
ATOM      8  C   UNL     1       1.371   4.045  19.486  0.00  0.00    +0.000 A 
ATOM      9  C   UNL     1       1.292   2.642  19.611  0.00  0.00    +0.000 A 
ATOM     10  C   UNL     1       2.189   1.800  18.912  0.00  0.00    +0.000 A 
ATOM     11  C   UNL     1       3.184   2.344  18.078  0.00  0.00    +0.000 A 
ATOM     12  C   UNL     1       3.253   3.731  17.966  0.00  0.00    +0.000 A 
ENDROOT
BRANCH   1  13
ATOM     13  C   UNL     1       5.261   4.116  16.360  0.00  0.00    +0.000 C 
BRANCH  13  14
ATOM     14  C   UNL     1       6.566   4.441  17.009  0.00  0.00    +0.000 C 
ATOM     15  O   UNL     1       7.499   4.840  16.323  0.00  0.00    +0.000 OA
BRANCH  14  16
ATOM     16  O   UNL     1       6.687   4.329  18.355  0.00  0.00    +0.000 OA
BRANCH  16  18
ATOM     17  C   UNL     1       7.981   6.230  19.021  0.00  0.00    +0.000 C 
ATOM     18  C   UNL     1       6.720   5.396  19.230  0.00  0.00    +0.000 C 
ENDBRANCH  16  18
ENDBRANCH  14  16
ENDBRANCH  13  14
ENDBRANCH   1  13
TORSDOF 4
ENDMDL
