MODEL 1
REMARK VINA RESULT:      -7.2      0.000      0.000
REMARK  Name = 
REMARK  10 active torsions:
REMARK  status: ('A' for Active; 'I' for Inactive)
REMARK    1  A    between atoms: C_1  and  C_2
REMARK    2  A    between atoms: C_5  and  N_6
REMARK    3  A    between atoms: N_6  and  S_7
REMARK    4  A    between atoms: S_7  and  C_10
REMARK    5  A    between atoms: C_13  and  C_14
REMARK    6  A    between atoms: C_14  and  C_15
REMARK    7  A    between atoms: C_15  and  C_16
REMARK    8  A    between atoms: N_18  and  C_19
REMARK    9  A    between atoms: C_19  and  C_20
REMARK   10  A    between atoms: C_20  and  O_21
REMARK                            x       y       z     vdW  Elec       q    Type
REMARK                         _______ _______ _______ _____ _____    ______ ____
ROOT
ATOM      1  C   UNL     1       2.362   4.612  18.807  0.00  0.00    +0.000 A 
ATOM      2  C   UNL     1       2.127   4.864  20.162  0.00  0.00    +0.000 A 
ATOM      3  C   UNL     1       1.895   6.175  20.592  0.00  0.00    +0.000 A 
ATOM      4  C   UNL     1       1.913   7.241  19.680  0.00  0.00    +0.000 A 
ATOM      5  C   UNL     1       2.169   6.969  18.327  0.00  0.00    +0.000 A 
ATOM      6  C   UNL     1       2.403   5.661  17.890  0.00  0.00    +0.000 A 
ENDROOT
BRANCH   1   7
ATOM      7  S   UNL     1       2.685   2.948  18.257  0.00  0.00    +0.000 S 
ATOM      8  O   UNL     1       2.322   2.881  16.856  0.00  0.00    +0.000 OA
ATOM      9  O   UNL     1       2.110   2.035  19.220  0.00  0.00    +0.000 OA
BRANCH   7  10
ATOM     10  N   UNL     1       4.353   2.836  18.308  0.00  0.00    +0.000 N 
ATOM     11  H   UNL     1       4.760   1.905  18.350  0.00  0.00    +0.000 HD
BRANCH  10  16
ATOM     12  C   UNL     1       7.629   7.446  17.509  0.00  0.00    +0.000 C 
ATOM     13  C   UNL     1       6.763   6.239  17.708  0.00  0.00    +0.000 A 
ATOM     14  C   UNL     1       6.203   5.563  16.616  0.00  0.00    +0.000 A 
ATOM     15  C   UNL     1       5.411   4.430  16.817  0.00  0.00    +0.000 A 
ATOM     16  C   UNL     1       5.170   3.970  18.110  0.00  0.00    +0.000 A 
ATOM     17  C   UNL     1       5.699   4.648  19.206  0.00  0.00    +0.000 A 
ATOM     18  C   UNL     1       6.502   5.773  19.003  0.00  0.00    +0.000 A 
ENDBRANCH  10  16
ENDBRANCH   7  10
ENDBRANCH   1   7
BRANCH   4  19
ATOM     19  C   UNL     1       1.620   8.657  20.123  0.00  0.00    +0.000 C 
BRANCH  19  20
ATOM     20  C   UNL     1       1.339   9.620  18.969  0.00  0.00    +0.000 C 
BRANCH  20  21
ATOM     21  C   UNL     1      -0.011  10.294  19.128  0.00  0.00    +0.000 C 
ATOM     22  O   UNL     1      -0.765  10.095  20.074  0.00  0.00    +0.000 OA
ATOM     23  N   UNL     1      -0.309  11.167  18.104  0.00  0.00    +0.000 N 
ATOM     24  H   UNL     1       0.351  11.303  17.349  0.00  0.00    +0.000 HD
BRANCH  23  25
ATOM     25  C   UNL     1      -1.573  11.888  18.054  0.00  0.00    +0.000 C 
BRANCH  25  26
ATOM     26  C   UNL     1      -2.635  11.132  17.257  0.00  0.00    +0.000 C 
BRANCH  26  27
ATOM     27  O   UNL     1      -3.776  11.964  17.050  0.00  0.00    +0.000 OA
ATOM     28  H   UNL     1      -4.126  12.165  17.935  0.00  0.00    +0.000 HD
ENDBRANCH  26  27
ENDBRANCH  25  26
ENDBRANCH  23  25
ENDBRANCH  20  21
ENDBRANCH  19  20
ENDBRANCH   4  19
TORSDOF 9
ENDMDL
MODEL 2
REMARK VINA RESULT:      -7.2      1.996      2.732
REMARK  Name = 
REMARK  10 active torsions:
REMARK  status: ('A' for Active; 'I' for Inactive)
REMARK    1  A    between atoms: C_1  and  C_2
REMARK    2  A    between atoms: C_5  and  N_6
REMARK    3  A    between atoms: N_6  and  S_7
REMARK    4  A    between atoms: S_7  and  C_10
REMARK    5  A    between atoms: C_13  and  C_14
REMARK    6  A    between atoms: C_14  and  C_15
REMARK    7  A    between atoms: C_15  and  C_16
REMARK    8  A    between atoms: N_18  and  C_19
REMARK    9  A    between atoms: C_19  and  C_20
REMARK   10  A    between atoms: C_20  and  O_21
REMARK                            x       y       z     vdW  Elec       q    Type
REMARK                         _______ _______ _______ _____ _____    ______ ____
ROOT
ATOM      1  C   UNL     1       2.056   7.325  19.413  0.00  0.00    +0.000 A 
ATOM      2  C   UNL     1       1.502   7.701  20.639  0.00  0.00    +0.000 A 
ATOM      3  C   UNL     1       0.995   8.995  20.803  0.00  0.00    +0.000 A 
ATOM      4  C   UNL     1       1.053   9.923  19.752  0.00  0.00    +0.000 A 
ATOM      5  C   UNL     1       1.629   9.532  18.534  0.00  0.00    +0.000 A 
ATOM      6  C   UNL     1       2.140   8.241  18.364  0.00  0.00    +0.000 A 
ENDROOT
BRANCH   1   7
ATOM      7  S   UNL     1       2.728   5.688  19.207  0.00  0.00    +0.000 S 
ATOM      8  O   UNL     1       2.067   5.093  18.063  0.00  0.00    +0.000 OA
ATOM      9  O   UNL     1       2.719   5.031  20.496  0.00  0.00    +0.000 OA
BRANCH   7  10
ATOM     10  N   UNL     1       4.307   5.969  18.734  0.00  0.00    +0.000 N 
ATOM     11  H   UNL     1       4.938   6.374  19.421  0.00  0.00    +0.000 HD
BRANCH  10  16
ATOM     12  C   UNL     1       6.324   4.053  13.745  0.00  0.00    +0.000 C 
ATOM     13  C   UNL     1       5.799   4.568  15.052  0.00  0.00    +0.000 A 
ATOM     14  C   UNL     1       5.427   5.910  15.203  0.00  0.00    +0.000 A 
ATOM     15  C   UNL     1       4.924   6.370  16.423  0.00  0.00    +0.000 A 
ATOM     16  C   UNL     1       4.798   5.493  17.498  0.00  0.00    +0.000 A 
ATOM     17  C   UNL     1       5.189   4.163  17.369  0.00  0.00    +0.000 A 
ATOM     18  C   UNL     1       5.678   3.700  16.145  0.00  0.00    +0.000 A 
ENDBRANCH  10  16
ENDBRANCH   7  10
ENDBRANCH   1   7
BRANCH   4  19
ATOM     19  C   UNL     1       0.469  11.310  19.899  0.00  0.00    +0.000 C 
BRANCH  19  20
ATOM     20  C   UNL     1      -0.065  11.898  18.593  0.00  0.00    +0.000 C 
BRANCH  20  21
ATOM     21  C   UNL     1      -1.442  11.354  18.263  0.00  0.00    +0.000 C 
ATOM     22  O   UNL     1      -2.422  11.499  18.985  0.00  0.00    +0.000 OA
ATOM     23  N   UNL     1      -1.491  10.684  17.060  0.00  0.00    +0.000 N 
ATOM     24  H   UNL     1      -0.654  10.599  16.496  0.00  0.00    +0.000 HD
BRANCH  23  25
ATOM     25  C   UNL     1      -2.714  10.057  16.579  0.00  0.00    +0.000 C 
BRANCH  25  26
ATOM     26  C   UNL     1      -3.543  11.004  15.713  0.00  0.00    +0.000 C 
BRANCH  26  27
ATOM     27  O   UNL     1      -4.240  11.938  16.538  0.00  0.00    +0.000 OA
ATOM     28  H   UNL     1      -3.555  12.443  17.009  0.00  0.00    +0.000 HD
ENDBRANCH  26  27
ENDBRANCH  25  26
ENDBRANCH  23  25
ENDBRANCH  20  21
ENDBRANCH  19  20
ENDBRANCH   4  19
TORSDOF 9
ENDMDL
MODEL 3
REMARK VINA RESULT:      -7.2      1.058      1.197
REMARK  Name = 
REMARK  10 active torsions:
REMARK  status: ('A' for Active; 'I' for Inactive)
REMARK    1  A    between atoms: C_1  and  C_2
REMARK    2  A    between atoms: C_5  and  N_6
REMARK    3  A    between atoms: N_6  and  S_7
REMARK    4  A    between atoms: S_7  and  C_10
REMARK    5  A    between atoms: C_13  and  C_14
REMARK    6  A    between atoms: C_14  and  C_15
REMARK    7  A    between atoms: C_15  and  C_16
REMARK    8  A    between atoms: N_18  and  C_19
REMARK    9  A    between atoms: C_19  and  C_20
REMARK   10  A    between atoms: C_20  and  O_21
REMARK                            x       y       z     vdW  Elec       q    Type
REMARK                         _______ _______ _______ _____ _____    ______ ____
ROOT
ATOM      1  C   UNL     1       2.338   4.583  18.831  0.00  0.00    +0.000 A 
ATOM      2  C   UNL     1       2.068   4.658  20.200  0.00  0.00    +0.000 A 
ATOM      3  C   UNL     1       1.846   5.904  20.796  0.00  0.00    +0.000 A 
ATOM      4  C   UNL     1       1.910   7.081  20.035  0.00  0.00    +0.000 A 
ATOM      5  C   UNL     1       2.200   6.987  18.665  0.00  0.00    +0.000 A 
ATOM      6  C   UNL     1       2.424   5.745  18.063  0.00  0.00    +0.000 A 
ENDROOT
BRANCH   1   7
ATOM      7  S   UNL     1       2.647   3.002  18.071  0.00  0.00    +0.000 S 
ATOM      8  O   UNL     1       2.298   3.123  16.670  0.00  0.00    +0.000 OA
ATOM      9  O   UNL     1       2.052   1.979  18.902  0.00  0.00    +0.000 OA
BRANCH   7  10
ATOM     10  N   UNL     1       4.313   2.863  18.121  0.00  0.00    +0.000 N 
ATOM     11  H   UNL     1       4.706   1.925  18.118  0.00  0.00    +0.000 HD
BRANCH  10  16
ATOM     12  C   UNL     1       7.659   7.460  17.567  0.00  0.00    +0.000 C 
ATOM     13  C   UNL     1       6.774   6.257  17.702  0.00  0.00    +0.000 A 
ATOM     14  C   UNL     1       6.187   5.661  16.578  0.00  0.00    +0.000 A 
ATOM     15  C   UNL     1       5.379   4.530  16.719  0.00  0.00    +0.000 A 
ATOM     16  C   UNL     1       5.147   3.994  17.984  0.00  0.00    +0.000 A 
ATOM     17  C   UNL     1       5.703   4.592  19.112  0.00  0.00    +0.000 A 
ATOM     18  C   UNL     1       6.523   5.714  18.969  0.00  0.00    +0.000 A 
ENDBRANCH  10  16
ENDBRANCH   7  10
ENDBRANCH   1   7
BRANCH   4  19
ATOM     19  C   UNL     1       1.629   8.431  20.656  0.00  0.00    +0.000 C 
BRANCH  19  20
ATOM     20  C   UNL     1       0.285   8.510  21.382  0.00  0.00    +0.000 C 
BRANCH  20  21
ATOM     21  C   UNL     1      -0.294   9.911  21.323  0.00  0.00    +0.000 C 
ATOM     22  O   UNL     1      -0.778  10.488  22.290  0.00  0.00    +0.000 OA
ATOM     23  N   UNL     1      -0.216  10.483  20.072  0.00  0.00    +0.000 N 
ATOM     24  H   UNL     1       0.201   9.966  19.307  0.00  0.00    +0.000 HD
BRANCH  23  25
ATOM     25  C   UNL     1      -0.748  11.810  19.799  0.00  0.00    +0.000 C 
BRANCH  25  26
ATOM     26  C   UNL     1      -1.995  11.760  18.918  0.00  0.00    +0.000 C 
BRANCH  26  27
ATOM     27  O   UNL     1      -1.731  12.383  17.661  0.00  0.00    +0.000 OA
ATOM     28  H   UNL     1      -0.769  12.524  17.628  0.00  0.00    +0.000 HD
ENDBRANCH  26  27
ENDBRANCH  25  26
ENDBRANCH  23  25
ENDBRANCH  20  21
ENDBRANCH  19  20
ENDBRANCH   4  19
TORSDOF 9
ENDMDL
MODEL 4
REMARK VINA RESULT:      -7.2      3.219      6.838
REMARK  Name = 
REMARK  10 active torsions:
REMARK  status: ('A' for Active; 'I' for Inactive)
REMARK    1  A    between atoms: C_1  and  C_2
REMARK    2  A    between atoms: C_5  and  N_6
REMARK    3  A    between atoms: N_6  and  S_7
REMARK    4  A    between atoms: S_7  and  C_10
REMARK    5  A    between atoms: C_13  and  C_14
REMARK    6  A    between atoms: C_14  and  C_15
REMARK    7  A    between atoms: C_15  and  C_16
REMARK    8  A    between atoms: N_18  and  C_19
REMARK    9  A    between atoms: C_19  and  C_20
REMARK   10  A    between atoms: C_20  and  O_21
REMARK                            x       y       z     vdW  Elec       q    Type
REMARK                         _______ _______ _______ _____ _____    ______ ____
ROOT
ATOM      1  C   UNL     1       2.910   4.020  19.192  0.00  0.00    +0.000 A 
ATOM      2  C   UNL     1       2.361   3.919  17.911  0.00  0.00    +0.000 A 
ATOM      3  C   UNL     1       3.204   3.753  16.807  0.00  0.00    +0.000 A 
ATOM      4  C   UNL     1       4.597   3.706  16.972  0.00  0.00    +0.000 A 
ATOM      5  C   UNL     1       5.129   3.829  18.264  0.00  0.00    +0.000 A 
ATOM      6  C   UNL     1       4.293   3.995  19.372  0.00  0.00    +0.000 A 
ENDROOT
BRANCH   1   7
ATOM      7  S   UNL     1       1.843   4.258  20.599  0.00  0.00    +0.000 S 
ATOM      8  O   UNL     1       2.232   3.287  21.602  0.00  0.00    +0.000 OA
ATOM      9  O   UNL     1       0.479   4.330  20.123  0.00  0.00    +0.000 OA
BRANCH   7  10
ATOM     10  N   UNL     1       2.307   5.750  21.195  0.00  0.00    +0.000 N 
ATOM     11  H   UNL     1       2.969   5.761  21.967  0.00  0.00    +0.000 HD
BRANCH  10  16
ATOM     12  C   UNL     1       0.817  10.573  18.523  0.00  0.00    +0.000 C 
ATOM     13  C   UNL     1       1.209   9.301  19.213  0.00  0.00    +0.000 A 
ATOM     14  C   UNL     1       2.037   8.363  18.584  0.00  0.00    +0.000 A 
ATOM     15  C   UNL     1       2.407   7.190  19.247  0.00  0.00    +0.000 A 
ATOM     16  C   UNL     1       1.946   6.946  20.538  0.00  0.00    +0.000 A 
ATOM     17  C   UNL     1       1.100   7.858  21.165  0.00  0.00    +0.000 A 
ATOM     18  C   UNL     1       0.742   9.037  20.508  0.00  0.00    +0.000 A 
ENDBRANCH  10  16
ENDBRANCH   7  10
ENDBRANCH   1   7
BRANCH   4  19
ATOM     19  C   UNL     1       5.518   3.484  15.793  0.00  0.00    +0.000 C 
BRANCH  19  20
ATOM     20  C   UNL     1       5.723   4.726  14.926  0.00  0.00    +0.000 C 
BRANCH  20  21
ATOM     21  C   UNL     1       5.975   5.958  15.774  0.00  0.00    +0.000 C 
ATOM     22  O   UNL     1       5.187   6.892  15.870  0.00  0.00    +0.000 OA
ATOM     23  N   UNL     1       7.181   5.925  16.441  0.00  0.00    +0.000 N 
ATOM     24  H   UNL     1       7.794   5.126  16.335  0.00  0.00    +0.000 HD
BRANCH  23  25
ATOM     25  C   UNL     1       7.625   7.029  17.280  0.00  0.00    +0.000 C 
BRANCH  25  26
ATOM     26  C   UNL     1       7.845   6.597  18.729  0.00  0.00    +0.000 C 
BRANCH  26  27
ATOM     27  O   UNL     1       8.130   5.199  18.784  0.00  0.00    +0.000 OA
ATOM     28  H   UNL     1       7.785   4.821  17.957  0.00  0.00    +0.000 HD
ENDBRANCH  26  27
ENDBRANCH  25  26
ENDBRANCH  23  25
ENDBRANCH  20  21
ENDBRANCH  19  20
ENDBRANCH   4  19
TORSDOF 9
ENDMDL
MODEL 5
REMARK VINA RESULT:      -7.1      2.024      2.967
REMARK  Name = 
REMARK  10 active torsions:
REMARK  status: ('A' for Active; 'I' for Inactive)
REMARK    1  A    between atoms: C_1  and  C_2
REMARK    2  A    between atoms: C_5  and  N_6
REMARK    3  A    between atoms: N_6  and  S_7
REMARK    4  A    between atoms: S_7  and  C_10
REMARK    5  A    between atoms: C_13  and  C_14
REMARK    6  A    between atoms: C_14  and  C_15
REMARK    7  A    between atoms: C_15  and  C_16
REMARK    8  A    between atoms: N_18  and  C_19
REMARK    9  A    between atoms: C_19  and  C_20
REMARK   10  A    between atoms: C_20  and  O_21
REMARK                            x       y       z     vdW  Elec       q    Type
REMARK                         _______ _______ _______ _____ _____    ______ ____
ROOT
ATOM      1  C   UNL     1       2.333   7.221  19.074  0.00  0.00    +0.000 A 
ATOM      2  C   UNL     1       2.342   8.005  17.917  0.00  0.00    +0.000 A 
ATOM      3  C   UNL     1       1.788   9.290  17.947  0.00  0.00    +0.000 A 
ATOM      4  C   UNL     1       1.206   9.790  19.122  0.00  0.00    +0.000 A 
ATOM      5  C   UNL     1       1.191   8.980  20.268  0.00  0.00    +0.000 A 
ATOM      6  C   UNL     1       1.742   7.695  20.245  0.00  0.00    +0.000 A 
ENDROOT
BRANCH   1   7
ATOM      7  S   UNL     1       3.014   5.575  19.035  0.00  0.00    +0.000 S 
ATOM      8  O   UNL     1       2.336   4.855  17.976  0.00  0.00    +0.000 OA
ATOM      9  O   UNL     1       3.035   5.064  20.388  0.00  0.00    +0.000 OA
BRANCH   7  10
ATOM     10  N   UNL     1       4.582   5.812  18.503  0.00  0.00    +0.000 N 
ATOM     11  H   UNL     1       5.254   6.181  19.171  0.00  0.00    +0.000 HD
BRANCH  10  16
ATOM     12  C   UNL     1       6.325   3.936  13.397  0.00  0.00    +0.000 C 
ATOM     13  C   UNL     1       5.872   4.440  14.734  0.00  0.00    +0.000 A 
ATOM     14  C   UNL     1       5.505   5.780  14.915  0.00  0.00    +0.000 A 
ATOM     15  C   UNL     1       5.069   6.230  16.164  0.00  0.00    +0.000 A 
ATOM     16  C   UNL     1       5.004   5.346  17.239  0.00  0.00    +0.000 A 
ATOM     17  C   UNL     1       5.391   4.018  17.079  0.00  0.00    +0.000 A 
ATOM     18  C   UNL     1       5.813   3.564  15.827  0.00  0.00    +0.000 A 
ENDBRANCH  10  16
ENDBRANCH   7  10
ENDBRANCH   1   7
BRANCH   4  19
ATOM     19  C   UNL     1       0.643  11.192  19.181  0.00  0.00    +0.000 C 
BRANCH  19  20
ATOM     20  C   UNL     1      -0.669  11.299  19.959  0.00  0.00    +0.000 C 
BRANCH  20  21
ATOM     21  C   UNL     1      -1.867  11.285  19.029  0.00  0.00    +0.000 C 
ATOM     22  O   UNL     1      -2.657  12.216  18.923  0.00  0.00    +0.000 OA
ATOM     23  N   UNL     1      -1.980  10.120  18.301  0.00  0.00    +0.000 N 
ATOM     24  H   UNL     1      -1.296   9.383  18.420  0.00  0.00    +0.000 HD
BRANCH  23  25
ATOM     25  C   UNL     1      -3.083   9.896  17.377  0.00  0.00    +0.000 C 
BRANCH  25  26
ATOM     26  C   UNL     1      -2.641  10.006  15.919  0.00  0.00    +0.000 C 
BRANCH  26  27
ATOM     27  O   UNL     1      -2.406  11.373  15.581  0.00  0.00    +0.000 OA
ATOM     28  H   UNL     1      -2.821  11.511  14.712  0.00  0.00    +0.000 HD
ENDBRANCH  26  27
ENDBRANCH  25  26
ENDBRANCH  23  25
ENDBRANCH  20  21
ENDBRANCH  19  20
ENDBRANCH   4  19
TORSDOF 9
ENDMDL
MODEL 6
REMARK VINA RESULT:      -7.1      5.297      7.757
REMARK  Name = 
REMARK  10 active torsions:
REMARK  status: ('A' for Active; 'I' for Inactive)
REMARK    1  A    between atoms: C_1  and  C_2
REMARK    2  A    between atoms: C_5  and  N_6
REMARK    3  A    between atoms: N_6  and  S_7
REMARK    4  A    between atoms: S_7  and  C_10
REMARK    5  A    between atoms: C_13  and  C_14
REMARK    6  A    between atoms: C_14  and  C_15
REMARK    7  A    between atoms: C_15  and  C_16
REMARK    8  A    between atoms: N_18  and  C_19
REMARK    9  A    between atoms: C_19  and  C_20
REMARK   10  A    between atoms: C_20  and  O_21
REMARK                            x       y       z     vdW  Elec       q    Type
REMARK                         _______ _______ _______ _____ _____    ______ ____
ROOT
ATOM      1  C   UNL     1       7.278   6.415  17.596  0.00  0.00    +0.000 A 
ATOM      2  C   UNL     1       8.036   6.365  18.769  0.00  0.00    +0.000 A 
ATOM      3  C   UNL     1       8.627   7.532  19.263  0.00  0.00    +0.000 A 
ATOM      4  C   UNL     1       8.481   8.751  18.582  0.00  0.00    +0.000 A 
ATOM      5  C   UNL     1       7.731   8.778  17.397  0.00  0.00    +0.000 A 
ATOM      6  C   UNL     1       7.139   7.614  16.896  0.00  0.00    +0.000 A 
ENDROOT
BRANCH   1   7
ATOM      7  S   UNL     1       6.545   4.927  16.947  0.00  0.00    +0.000 S 
ATOM      8  O   UNL     1       7.607   4.161  16.326  0.00  0.00    +0.000 OA
ATOM      9  O   UNL     1       5.360   5.295  16.205  0.00  0.00    +0.000 OA
BRANCH   7  10
ATOM     10  N   UNL     1       6.105   4.077  18.319  0.00  0.00    +0.000 N 
ATOM     11  H   UNL     1       6.827   3.896  19.011  0.00  0.00    +0.000 HD
BRANCH  10  16
ATOM     12  C   UNL     1       0.620   2.923  19.420  0.00  0.00    +0.000 C 
ATOM     13  C   UNL     1       2.058   3.239  19.134  0.00  0.00    +0.000 A 
ATOM     14  C   UNL     1       2.700   4.315  19.758  0.00  0.00    +0.000 A 
ATOM     15  C   UNL     1       4.045   4.586  19.493  0.00  0.00    +0.000 A 
ATOM     16  C   UNL     1       4.751   3.786  18.598  0.00  0.00    +0.000 A 
ATOM     17  C   UNL     1       4.118   2.729  17.950  0.00  0.00    +0.000 A 
ATOM     18  C   UNL     1       2.777   2.450  18.226  0.00  0.00    +0.000 A 
ENDBRANCH  10  16
ENDBRANCH   7  10
ENDBRANCH   1   7
BRANCH   4  19
ATOM     19  C   UNL     1       9.077  10.029  19.128  0.00  0.00    +0.000 C 
BRANCH  19  20
ATOM     20  C   UNL     1       9.670  10.942  18.055  0.00  0.00    +0.000 C 
BRANCH  20  21
ATOM     21  C   UNL     1       9.737  12.382  18.527  0.00  0.00    +0.000 C 
ATOM     22  O   UNL     1       9.851  12.708  19.703  0.00  0.00    +0.000 OA
ATOM     23  N   UNL     1       9.667  13.298  17.500  0.00  0.00    +0.000 N 
ATOM     24  H   UNL     1       9.582  12.977  16.544  0.00  0.00    +0.000 HD
BRANCH  23  25
ATOM     25  C   UNL     1       9.680  14.733  17.748  0.00  0.00    +0.000 C 
BRANCH  25  26
ATOM     26  C   UNL     1      10.961  15.392  17.241  0.00  0.00    +0.000 C 
BRANCH  26  27
ATOM     27  O   UNL     1      10.751  15.928  15.935  0.00  0.00    +0.000 OA
ATOM     28  H   UNL     1      10.362  16.810  16.066  0.00  0.00    +0.000 HD
ENDBRANCH  26  27
ENDBRANCH  25  26
ENDBRANCH  23  25
ENDBRANCH  20  21
ENDBRANCH  19  20
ENDBRANCH   4  19
TORSDOF 9
ENDMDL
MODEL 7
REMARK VINA RESULT:      -7.0      2.157      2.937
REMARK  Name = 
REMARK  10 active torsions:
REMARK  status: ('A' for Active; 'I' for Inactive)
REMARK    1  A    between atoms: C_1  and  C_2
REMARK    2  A    between atoms: C_5  and  N_6
REMARK    3  A    between atoms: N_6  and  S_7
REMARK    4  A    between atoms: S_7  and  C_10
REMARK    5  A    between atoms: C_13  and  C_14
REMARK    6  A    between atoms: C_14  and  C_15
REMARK    7  A    between atoms: C_15  and  C_16
REMARK    8  A    between atoms: N_18  and  C_19
REMARK    9  A    between atoms: C_19  and  C_20
REMARK   10  A    between atoms: C_20  and  O_21
REMARK                            x       y       z     vdW  Elec       q    Type
REMARK                         _______ _______ _______ _____ _____    ______ ____
ROOT
ATOM      1  C   UNL     1       2.031   7.369  19.384  0.00  0.00    +0.000 A 
ATOM      2  C   UNL     1       1.559   7.780  20.633  0.00  0.00    +0.000 A 
ATOM      3  C   UNL     1       1.041   9.071  20.788  0.00  0.00    +0.000 A 
ATOM      4  C   UNL     1       1.008   9.962  19.704  0.00  0.00    +0.000 A 
ATOM      5  C   UNL     1       1.503   9.536  18.462  0.00  0.00    +0.000 A 
ATOM      6  C   UNL     1       2.023   8.248  18.301  0.00  0.00    +0.000 A 
ENDROOT
BRANCH   1   7
ATOM      7  S   UNL     1       2.716   5.736  19.187  0.00  0.00    +0.000 S 
ATOM      8  O   UNL     1       2.054   5.127  18.051  0.00  0.00    +0.000 OA
ATOM      9  O   UNL     1       2.720   5.090  20.481  0.00  0.00    +0.000 OA
BRANCH   7  10
ATOM     10  N   UNL     1       4.290   6.027  18.703  0.00  0.00    +0.000 N 
ATOM     11  H   UNL     1       4.918   6.455  19.379  0.00  0.00    +0.000 HD
BRANCH  10  16
ATOM     12  C   UNL     1       6.250   4.016  13.729  0.00  0.00    +0.000 C 
ATOM     13  C   UNL     1       5.730   4.532  15.037  0.00  0.00    +0.000 A 
ATOM     14  C   UNL     1       5.563   3.680  16.136  0.00  0.00    +0.000 A 
ATOM     15  C   UNL     1       5.093   4.180  17.353  0.00  0.00    +0.000 A 
ATOM     16  C   UNL     1       4.783   5.532  17.476  0.00  0.00    +0.000 A 
ATOM     17  C   UNL     1       4.920   6.386  16.384  0.00  0.00    +0.000 A 
ATOM     18  C   UNL     1       5.403   5.888  15.171  0.00  0.00    +0.000 A 
ENDBRANCH  10  16
ENDBRANCH   7  10
ENDBRANCH   1   7
BRANCH   4  19
ATOM     19  C   UNL     1       0.411  11.344  19.845  0.00  0.00    +0.000 C 
BRANCH  19  20
ATOM     20  C   UNL     1      -1.113  11.350  19.968  0.00  0.00    +0.000 C 
BRANCH  20  21
ATOM     21  C   UNL     1      -1.772  11.772  18.669  0.00  0.00    +0.000 C 
ATOM     22  O   UNL     1      -1.247  12.517  17.850  0.00  0.00    +0.000 OA
ATOM     23  N   UNL     1      -3.025  11.226  18.489  0.00  0.00    +0.000 N 
ATOM     24  H   UNL     1      -3.411  10.609  19.192  0.00  0.00    +0.000 HD
BRANCH  23  25
ATOM     25  C   UNL     1      -3.837  11.535  17.320  0.00  0.00    +0.000 C 
BRANCH  25  26
ATOM     26  C   UNL     1      -3.501  10.635  16.133  0.00  0.00    +0.000 C 
BRANCH  26  27
ATOM     27  O   UNL     1      -2.459  11.221  15.354  0.00  0.00    +0.000 OA
ATOM     28  H   UNL     1      -2.037  10.487  14.874  0.00  0.00    +0.000 HD
ENDBRANCH  26  27
ENDBRANCH  25  26
ENDBRANCH  23  25
ENDBRANCH  20  21
ENDBRANCH  19  20
ENDBRANCH   4  19
TORSDOF 9
ENDMDL
MODEL 8
REMARK VINA RESULT:      -7.0      1.614      2.242
REMARK  Name = 
REMARK  10 active torsions:
REMARK  status: ('A' for Active; 'I' for Inactive)
REMARK    1  A    between atoms: C_1  and  C_2
REMARK    2  A    between atoms: C_5  and  N_6
REMARK    3  A    between atoms: N_6  and  S_7
REMARK    4  A    between atoms: S_7  and  C_10
REMARK    5  A    between atoms: C_13  and  C_14
REMARK    6  A    between atoms: C_14  and  C_15
REMARK    7  A    between atoms: C_15  and  C_16
REMARK    8  A    between atoms: N_18  and  C_19
REMARK    9  A    between atoms: C_19  and  C_20
REMARK   10  A    between atoms: C_20  and  O_21
REMARK                            x       y       z     vdW  Elec       q    Type
REMARK                         _______ _______ _______ _____ _____    ______ ____
ROOT
ATOM      1  C   UNL     1       2.310   4.608  18.849  0.00  0.00    +0.000 A 
ATOM      2  C   UNL     1       2.397   5.835  18.185  0.00  0.00    +0.000 A 
ATOM      3  C   UNL     1       2.162   7.022  18.887  0.00  0.00    +0.000 A 
ATOM      4  C   UNL     1       1.823   6.991  20.248  0.00  0.00    +0.000 A 
ATOM      5  C   UNL     1       1.723   5.749  20.893  0.00  0.00    +0.000 A 
ATOM      6  C   UNL     1       1.955   4.559  20.197  0.00  0.00    +0.000 A 
ENDROOT
BRANCH   1   7
ATOM      7  S   UNL     1       2.583   3.092  17.954  0.00  0.00    +0.000 S 
ATOM      8  O   UNL     1       2.216   3.337  16.574  0.00  0.00    +0.000 OA
ATOM      9  O   UNL     1       1.982   2.012  18.705  0.00  0.00    +0.000 OA
BRANCH   7  10
ATOM     10  N   UNL     1       4.247   2.924  17.967  0.00  0.00    +0.000 N 
ATOM     11  H   UNL     1       4.624   1.981  17.906  0.00  0.00    +0.000 HD
BRANCH  10  16
ATOM     12  C   UNL     1       7.661   7.489  17.597  0.00  0.00    +0.000 C 
ATOM     13  C   UNL     1       6.758   6.294  17.684  0.00  0.00    +0.000 A 
ATOM     14  C   UNL     1       6.158   5.757  16.538  0.00  0.00    +0.000 A 
ATOM     15  C   UNL     1       5.332   4.634  16.634  0.00  0.00    +0.000 A 
ATOM     16  C   UNL     1       5.098   4.047  17.874  0.00  0.00    +0.000 A 
ATOM     17  C   UNL     1       5.667   4.586  19.025  0.00  0.00    +0.000 A 
ATOM     18  C   UNL     1       6.504   5.701  18.928  0.00  0.00    +0.000 A 
ENDBRANCH  10  16
ENDBRANCH   7  10
ENDBRANCH   1   7
BRANCH   4  19
ATOM     19  C   UNL     1       1.609   8.268  21.030  0.00  0.00    +0.000 C 
BRANCH  19  20
ATOM     20  C   UNL     1       0.151   8.726  21.080  0.00  0.00    +0.000 C 
BRANCH  20  21
ATOM     21  C   UNL     1      -0.005  10.137  20.546  0.00  0.00    +0.000 C 
ATOM     22  O   UNL     1      -0.967  10.856  20.792  0.00  0.00    +0.000 OA
ATOM     23  N   UNL     1       1.052  10.543  19.759  0.00  0.00    +0.000 N 
ATOM     24  H   UNL     1       1.827   9.914  19.594  0.00  0.00    +0.000 HD
BRANCH  23  25
ATOM     25  C   UNL     1       1.076  11.853  19.124  0.00  0.00    +0.000 C 
BRANCH  25  26
ATOM     26  C   UNL     1       1.895  12.864  19.924  0.00  0.00    +0.000 C 
BRANCH  26  27
ATOM     27  O   UNL     1       1.439  12.902  21.276  0.00  0.00    +0.000 OA
ATOM     28  H   UNL     1       1.873  12.156  21.726  0.00  0.00    +0.000 HD
ENDBRANCH  26  27
ENDBRANCH  25  26
ENDBRANCH  23  25
ENDBRANCH  20  21
ENDBRANCH  19  20
ENDBRANCH   4  19
TORSDOF 9
ENDMDL
MODEL 9
REMARK VINA RESULT:      -7.0      4.603      6.610
REMARK  Name = 
REMARK  10 active torsions:
REMARK  status: ('A' for Active; 'I' for Inactive)
REMARK    1  A    between atoms: C_1  and  C_2
REMARK    2  A    between atoms: C_5  and  N_6
REMARK    3  A    between atoms: N_6  and  S_7
REMARK    4  A    between atoms: S_7  and  C_10
REMARK    5  A    between atoms: C_13  and  C_14
REMARK    6  A    between atoms: C_14  and  C_15
REMARK    7  A    between atoms: C_15  and  C_16
REMARK    8  A    between atoms: N_18  and  C_19
REMARK    9  A    between atoms: C_19  and  C_20
REMARK   10  A    between atoms: C_20  and  O_21
REMARK                            x       y       z     vdW  Elec       q    Type
REMARK                         _______ _______ _______ _____ _____    ______ ____
ROOT
ATOM      1  C   UNL     1       5.500   5.778  17.553  0.00  0.00    +0.000 A 
ATOM      2  C   UNL     1       4.250   6.166  17.063  0.00  0.00    +0.000 A 
ATOM      3  C   UNL     1       3.144   6.183  17.919  0.00  0.00    +0.000 A 
ATOM      4  C   UNL     1       3.275   5.797  19.262  0.00  0.00    +0.000 A 
ATOM      5  C   UNL     1       4.534   5.393  19.731  0.00  0.00    +0.000 A 
ATOM      6  C   UNL     1       5.644   5.373  18.880  0.00  0.00    +0.000 A 
ENDROOT
BRANCH   1   7
ATOM      7  S   UNL     1       6.906   5.730  16.460  0.00  0.00    +0.000 S 
ATOM      8  O   UNL     1       7.422   4.376  16.485  0.00  0.00    +0.000 OA
ATOM      9  O   UNL     1       7.758   6.856  16.771  0.00  0.00    +0.000 OA
BRANCH   7  10
ATOM     10  N   UNL     1       6.232   5.940  14.944  0.00  0.00    +0.000 N 
ATOM     11  H   UNL     1       5.876   6.864  14.713  0.00  0.00    +0.000 HD
BRANCH  10  16
ATOM     12  C   UNL     1       6.573   1.893  10.928  0.00  0.00    +0.000 C 
ATOM     13  C   UNL     1       6.470   2.955  11.982  0.00  0.00    +0.000 A 
ATOM     14  C   UNL     1       5.379   3.000  12.858  0.00  0.00    +0.000 A 
ATOM     15  C   UNL     1       5.307   3.986  13.846  0.00  0.00    +0.000 A 
ATOM     16  C   UNL     1       6.320   4.935  13.957  0.00  0.00    +0.000 A 
ATOM     17  C   UNL     1       7.398   4.917  13.075  0.00  0.00    +0.000 A 
ATOM     18  C   UNL     1       7.477   3.923  12.097  0.00  0.00    +0.000 A 
ENDBRANCH  10  16
ENDBRANCH   7  10
ENDBRANCH   1   7
BRANCH   4  19
ATOM     19  C   UNL     1       2.098   5.852  20.211  0.00  0.00    +0.000 C 
BRANCH  19  20
ATOM     20  C   UNL     1       2.066   4.707  21.223  0.00  0.00    +0.000 C 
BRANCH  20  21
ATOM     21  C   UNL     1       2.263   3.364  20.546  0.00  0.00    +0.000 C 
ATOM     22  O   UNL     1       3.046   2.509  20.944  0.00  0.00    +0.000 OA
ATOM     23  N   UNL     1       1.464   3.189  19.437  0.00  0.00    +0.000 N 
ATOM     24  H   UNL     1       0.827   3.923  19.154  0.00  0.00    +0.000 HD
BRANCH  23  25
ATOM     25  C   UNL     1       1.529   1.980  18.627  0.00  0.00    +0.000 C 
BRANCH  25  26
ATOM     26  C   UNL     1       2.686   2.017  17.630  0.00  0.00    +0.000 C 
BRANCH  26  27
ATOM     27  O   UNL     1       3.842   1.405  18.201  0.00  0.00    +0.000 OA
ATOM     28  H   UNL     1       3.709   0.446  18.112  0.00  0.00    +0.000 HD
ENDBRANCH  26  27
ENDBRANCH  25  26
ENDBRANCH  23  25
ENDBRANCH  20  21
ENDBRANCH  19  20
ENDBRANCH   4  19
TORSDOF 9
ENDMDL
