MODEL 1
REMARK VINA RESULT:      -7.4      0.000      0.000
REMARK  Name = 
REMARK  6 active torsions:
REMARK  status: ('A' for Active; 'I' for Inactive)
REMARK    1  A    between atoms: C_1  and  O_2
REMARK    2  A    between atoms: O_2  and  C_3
REMARK    3  A    between atoms: C_5  and  O_6
REMARK    4  A    between atoms: O_6  and  C_7
REMARK    5  A    between atoms: C_9  and  C_10
REMARK    6  A    between atoms: C_22  and  C_23
REMARK                            x       y       z     vdW  Elec       q    Type
REMARK                         _______ _______ _______ _____ _____    ______ ____
ROOT
ATOM      1  C   UNL     1       4.086   3.817  19.693  0.00  0.00    +0.000 C 
ATOM      2  O   UNL     1       4.183   2.664  20.113  0.00  0.00    +0.000 OA
ATOM      3  N   UNL     1       2.912   4.591  19.937  0.00  0.00    +0.000 N 
ATOM      4  C   UNL     1       2.624   5.803  19.265  0.00  0.00    +0.000 A 
ATOM      5  C   UNL     1       2.684   7.002  19.983  0.00  0.00    +0.000 A 
ATOM      6  C   UNL     1       2.101   8.146  19.446  0.00  0.00    +0.000 A 
ATOM      7  C   UNL     1       1.475   8.078  18.205  0.00  0.00    +0.000 A 
ATOM      8  F   UNL     1       0.888   9.176  17.711  0.00  0.00    +0.000 F 
ATOM      9  C   UNL     1       1.383   6.880  17.496  0.00  0.00    +0.000 A 
ATOM     10  C   UNL     1       1.906   5.714  18.056  0.00  0.00    +0.000 A 
ATOM     11  C   UNL     1       1.614   4.339  17.484  0.00  0.00    +0.000 C 
ATOM     12  C   UNL     1       1.376   3.260  18.584  0.00  0.00    +0.000 C 
ATOM     13  C   UNL     1       1.629   3.837  19.989  0.00  0.00    +0.000 C 
ATOM     14  C   UNL     1       1.459   2.893  21.168  0.00  0.00    +0.000 C 
ENDROOT
BRANCH   1  19
ATOM     15  C   UNL     1       7.127   5.728  18.341  0.00  0.00    +0.000 A 
ATOM     16  C   UNL     1       7.176   5.237  17.043  0.00  0.00    +0.000 A 
ATOM     17  C   UNL     1       6.276   4.268  16.612  0.00  0.00    +0.000 A 
ATOM     18  C   UNL     1       5.292   3.797  17.499  0.00  0.00    +0.000 A 
ATOM     19  C   UNL     1       5.215   4.302  18.811  0.00  0.00    +0.000 A 
ATOM     20  C   UNL     1       6.176   5.227  19.225  0.00  0.00    +0.000 A 
BRANCH  15  22
ATOM     21  C   UNL     1       7.920   7.932  17.924  0.00  0.00    +0.000 C 
ATOM     22  O   UNL     1       8.051   6.699  18.624  0.00  0.00    +0.000 OA
ENDBRANCH  15  22
BRANCH  17  23
ATOM     23  O   UNL     1       6.463   3.856  15.325  0.00  0.00    +0.000 OA
ATOM     24  C   UNL     1       6.950   4.828  14.409  0.00  0.00    +0.000 C 
ENDBRANCH  17  23
ENDBRANCH   1  19
TORSDOF 3
ENDMDL
MODEL 2
REMARK VINA RESULT:      -7.2      2.786      6.116
REMARK  Name = 
REMARK  6 active torsions:
REMARK  status: ('A' for Active; 'I' for Inactive)
REMARK    1  A    between atoms: C_1  and  O_2
REMARK    2  A    between atoms: O_2  and  C_3
REMARK    3  A    between atoms: C_5  and  O_6
REMARK    4  A    between atoms: O_6  and  C_7
REMARK    5  A    between atoms: C_9  and  C_10
REMARK    6  A    between atoms: C_22  and  C_23
REMARK                            x       y       z     vdW  Elec       q    Type
REMARK                         _______ _______ _______ _____ _____    ______ ____
ROOT
ATOM      1  C   UNL     1       4.807   5.481  16.646  0.00  0.00    +0.000 C 
ATOM      2  O   UNL     1       4.397   4.547  15.955  0.00  0.00    +0.000 OA
ATOM      3  N   UNL     1       6.066   6.095  16.376  0.00  0.00    +0.000 N 
ATOM      4  C   UNL     1       6.712   6.974  17.278  0.00  0.00    +0.000 A 
ATOM      5  C   UNL     1       6.800   8.332  16.950  0.00  0.00    +0.000 A 
ATOM      6  C   UNL     1       7.694   9.143  17.642  0.00  0.00    +0.000 A 
ATOM      7  C   UNL     1       8.479   8.592  18.651  0.00  0.00    +0.000 A 
ATOM      8  F   UNL     1       9.360   9.373  19.290  0.00  0.00    +0.000 F 
ATOM      9  C   UNL     1       8.421   7.234  18.964  0.00  0.00    +0.000 A 
ATOM     10  C   UNL     1       7.577   6.400  18.231  0.00  0.00    +0.000 A 
ATOM     11  C   UNL     1       7.652   4.887  18.324  0.00  0.00    +0.000 C 
ATOM     12  C   UNL     1       7.473   4.182  16.945  0.00  0.00    +0.000 C 
ATOM     13  C   UNL     1       7.131   5.202  15.843  0.00  0.00    +0.000 C 
ATOM     14  C   UNL     1       6.904   4.659  14.441  0.00  0.00    +0.000 C 
ENDROOT
BRANCH   1  19
ATOM     15  C   UNL     1       2.895   5.314  19.970  0.00  0.00    +0.000 A 
ATOM     16  C   UNL     1       2.265   6.552  19.959  0.00  0.00    +0.000 A 
ATOM     17  C   UNL     1       2.482   7.455  18.923  0.00  0.00    +0.000 A 
ATOM     18  C   UNL     1       3.336   7.099  17.865  0.00  0.00    +0.000 A 
ATOM     19  C   UNL     1       3.964   5.839  17.849  0.00  0.00    +0.000 A 
ATOM     20  C   UNL     1       3.771   4.986  18.939  0.00  0.00    +0.000 A 
BRANCH  15  22
ATOM     21  C   UNL     1       1.342   3.799  20.942  0.00  0.00    +0.000 C 
ATOM     22  O   UNL     1       2.570   4.512  21.031  0.00  0.00    +0.000 OA
ENDBRANCH  15  22
BRANCH  17  23
ATOM     23  O   UNL     1       1.824   8.643  19.062  0.00  0.00    +0.000 OA
ATOM     24  C   UNL     1       1.684   9.434  17.889  0.00  0.00    +0.000 C 
ENDBRANCH  17  23
ENDBRANCH   1  19
TORSDOF 3
ENDMDL
MODEL 3
REMARK VINA RESULT:      -7.1      0.339      2.272
REMARK  Name = 
REMARK  6 active torsions:
REMARK  status: ('A' for Active; 'I' for Inactive)
REMARK    1  A    between atoms: C_1  and  O_2
REMARK    2  A    between atoms: O_2  and  C_3
REMARK    3  A    between atoms: C_5  and  O_6
REMARK    4  A    between atoms: O_6  and  C_7
REMARK    5  A    between atoms: C_9  and  C_10
REMARK    6  A    between atoms: C_22  and  C_23
REMARK                            x       y       z     vdW  Elec       q    Type
REMARK                         _______ _______ _______ _____ _____    ______ ____
ROOT
ATOM      1  C   UNL     1       4.100   3.869  19.617  0.00  0.00    +0.000 C 
ATOM      2  O   UNL     1       4.222   2.713  20.022  0.00  0.00    +0.000 OA
ATOM      3  N   UNL     1       2.924   4.626  19.903  0.00  0.00    +0.000 N 
ATOM      4  C   UNL     1       2.603   5.842  19.253  0.00  0.00    +0.000 A 
ATOM      5  C   UNL     1       2.669   7.034  19.982  0.00  0.00    +0.000 A 
ATOM      6  C   UNL     1       2.058   8.177  19.475  0.00  0.00    +0.000 A 
ATOM      7  C   UNL     1       1.398   8.114  18.250  0.00  0.00    +0.000 A 
ATOM      8  F   UNL     1       0.785   9.211  17.785  0.00  0.00    +0.000 F 
ATOM      9  C   UNL     1       1.301   6.923  17.531  0.00  0.00    +0.000 A 
ATOM     10  C   UNL     1       1.852   5.758  18.063  0.00  0.00    +0.000 A 
ATOM     11  C   UNL     1       1.561   4.386  17.484  0.00  0.00    +0.000 C 
ATOM     12  C   UNL     1       1.366   3.291  18.578  0.00  0.00    +0.000 C 
ATOM     13  C   UNL     1       1.652   3.856  19.982  0.00  0.00    +0.000 C 
ATOM     14  C   UNL     1       1.526   2.897  21.155  0.00  0.00    +0.000 C 
ENDROOT
BRANCH   1  19
ATOM     15  C   UNL     1       6.426   4.403  16.612  0.00  0.00    +0.000 A 
ATOM     16  C   UNL     1       7.356   5.274  17.165  0.00  0.00    +0.000 A 
ATOM     17  C   UNL     1       7.219   5.727  18.474  0.00  0.00    +0.000 A 
ATOM     18  C   UNL     1       6.135   5.279  19.249  0.00  0.00    +0.000 A 
ATOM     19  C   UNL     1       5.198   4.378  18.710  0.00  0.00    +0.000 A 
ATOM     20  C   UNL     1       5.335   3.997  17.373  0.00  0.00    +0.000 A 
BRANCH  15  22
ATOM     21  C   UNL     1       5.649   4.166  14.376  0.00  0.00    +0.000 C 
ATOM     22  O   UNL     1       6.697   4.012  15.328  0.00  0.00    +0.000 OA
ENDBRANCH  15  22
BRANCH  17  23
ATOM     23  O   UNL     1       8.187   6.603  18.872  0.00  0.00    +0.000 OA
ATOM     24  C   UNL     1       8.196   7.874  18.235  0.00  0.00    +0.000 C 
ENDBRANCH  17  23
ENDBRANCH   1  19
TORSDOF 3
ENDMDL
MODEL 4
REMARK VINA RESULT:      -6.9      2.691      5.956
REMARK  Name = 
REMARK  6 active torsions:
REMARK  status: ('A' for Active; 'I' for Inactive)
REMARK    1  A    between atoms: C_1  and  O_2
REMARK    2  A    between atoms: O_2  and  C_3
REMARK    3  A    between atoms: C_5  and  O_6
REMARK    4  A    between atoms: O_6  and  C_7
REMARK    5  A    between atoms: C_9  and  C_10
REMARK    6  A    between atoms: C_22  and  C_23
REMARK                            x       y       z     vdW  Elec       q    Type
REMARK                         _______ _______ _______ _____ _____    ______ ____
ROOT
ATOM      1  C   UNL     1       4.656   5.306  16.499  0.00  0.00    +0.000 C 
ATOM      2  O   UNL     1       4.245   4.408  15.763  0.00  0.00    +0.000 OA
ATOM      3  N   UNL     1       5.899   5.957  16.239  0.00  0.00    +0.000 N 
ATOM      4  C   UNL     1       6.551   6.792  17.177  0.00  0.00    +0.000 A 
ATOM      5  C   UNL     1       6.609   8.168  16.928  0.00  0.00    +0.000 A 
ATOM      6  C   UNL     1       7.506   8.952  17.648  0.00  0.00    +0.000 A 
ATOM      7  C   UNL     1       8.323   8.355  18.604  0.00  0.00    +0.000 A 
ATOM      8  F   UNL     1       9.207   9.112  19.269  0.00  0.00    +0.000 F 
ATOM      9  C   UNL     1       8.294   6.981  18.837  0.00  0.00    +0.000 A 
ATOM     10  C   UNL     1       7.447   6.177  18.074  0.00  0.00    +0.000 A 
ATOM     11  C   UNL     1       7.548   4.663  18.075  0.00  0.00    +0.000 C 
ATOM     12  C   UNL     1       7.349   4.038  16.660  0.00  0.00    +0.000 C 
ATOM     13  C   UNL     1       6.965   5.115  15.629  0.00  0.00    +0.000 C 
ATOM     14  C   UNL     1       6.714   4.653  14.203  0.00  0.00    +0.000 C 
ENDROOT
BRANCH   1  19
ATOM     15  C   UNL     1       2.544   7.032  19.199  0.00  0.00    +0.000 A 
ATOM     16  C   UNL     1       2.462   6.015  20.142  0.00  0.00    +0.000 A 
ATOM     17  C   UNL     1       3.036   4.770  19.901  0.00  0.00    +0.000 A 
ATOM     18  C   UNL     1       3.723   4.549  18.695  0.00  0.00    +0.000 A 
ATOM     19  C   UNL     1       3.836   5.577  17.740  0.00  0.00    +0.000 A 
ATOM     20  C   UNL     1       3.192   6.791  17.991  0.00  0.00    +0.000 A 
BRANCH  15  22
ATOM     21  C   UNL     1       1.351   8.246  20.860  0.00  0.00    +0.000 C 
ATOM     22  O   UNL     1       1.964   8.213  19.576  0.00  0.00    +0.000 OA
ENDBRANCH  15  22
BRANCH  17  23
ATOM     23  O   UNL     1       2.848   3.859  20.900  0.00  0.00    +0.000 OA
ATOM     24  C   UNL     1       1.616   3.151  20.892  0.00  0.00    +0.000 C 
ENDBRANCH  17  23
ENDBRANCH   1  19
TORSDOF 3
ENDMDL
MODEL 5
REMARK VINA RESULT:      -6.9      3.301      6.104
REMARK  Name = 
REMARK  6 active torsions:
REMARK  status: ('A' for Active; 'I' for Inactive)
REMARK    1  A    between atoms: C_1  and  O_2
REMARK    2  A    between atoms: O_2  and  C_3
REMARK    3  A    between atoms: C_5  and  O_6
REMARK    4  A    between atoms: O_6  and  C_7
REMARK    5  A    between atoms: C_9  and  C_10
REMARK    6  A    between atoms: C_22  and  C_23
REMARK                            x       y       z     vdW  Elec       q    Type
REMARK                         _______ _______ _______ _____ _____    ______ ____
ROOT
ATOM      1  C   UNL     1       3.480   6.450  18.165  0.00  0.00    +0.000 C 
ATOM      2  O   UNL     1       4.106   6.800  17.164  0.00  0.00    +0.000 OA
ATOM      3  N   UNL     1       3.614   5.129  18.688  0.00  0.00    +0.000 N 
ATOM      4  C   UNL     1       2.736   4.581  19.654  0.00  0.00    +0.000 A 
ATOM      5  C   UNL     1       3.215   4.361  20.951  0.00  0.00    +0.000 A 
ATOM      6  C   UNL     1       2.492   3.540  21.812  0.00  0.00    +0.000 A 
ATOM      7  C   UNL     1       1.307   2.958  21.370  0.00  0.00    +0.000 A 
ATOM      8  F   UNL     1       0.635   2.143  22.195  0.00  0.00    +0.000 F 
ATOM      9  C   UNL     1       0.839   3.147  20.070  0.00  0.00    +0.000 A 
ATOM     10  C   UNL     1       1.590   3.914  19.179  0.00  0.00    +0.000 A 
ATOM     11  C   UNL     1       1.296   3.946  17.690  0.00  0.00    +0.000 C 
ATOM     12  C   UNL     1       2.586   3.947  16.815  0.00  0.00    +0.000 C 
ATOM     13  C   UNL     1       3.849   4.049  17.690  0.00  0.00    +0.000 C 
ATOM     14  C   UNL     1       5.189   4.085  16.974  0.00  0.00    +0.000 C 
ENDROOT
BRANCH   1  19
ATOM     15  C   UNL     1       0.968   9.334  18.482  0.00  0.00    +0.000 A 
ATOM     16  C   UNL     1       0.776   9.349  19.858  0.00  0.00    +0.000 A 
ATOM     17  C   UNL     1       1.406   8.417  20.677  0.00  0.00    +0.000 A 
ATOM     18  C   UNL     1       2.263   7.462  20.104  0.00  0.00    +0.000 A 
ATOM     19  C   UNL     1       2.486   7.448  18.714  0.00  0.00    +0.000 A 
ATOM     20  C   UNL     1       1.786   8.359  17.919  0.00  0.00    +0.000 A 
BRANCH  15  22
ATOM     21  C   UNL     1      -1.052  10.541  18.135  0.00  0.00    +0.000 C 
ATOM     22  O   UNL     1       0.314  10.324  17.799  0.00  0.00    +0.000 OA
ENDBRANCH  15  22
BRANCH  17  23
ATOM     23  O   UNL     1       1.098   8.532  22.002  0.00  0.00    +0.000 OA
ATOM     24  C   UNL     1      -0.049   9.306  22.325  0.00  0.00    +0.000 C 
ENDBRANCH  17  23
ENDBRANCH   1  19
TORSDOF 3
ENDMDL
MODEL 6
REMARK VINA RESULT:      -6.8      3.300      5.907
REMARK  Name = 
REMARK  6 active torsions:
REMARK  status: ('A' for Active; 'I' for Inactive)
REMARK    1  A    between atoms: C_1  and  O_2
REMARK    2  A    between atoms: O_2  and  C_3
REMARK    3  A    between atoms: C_5  and  O_6
REMARK    4  A    between atoms: O_6  and  C_7
REMARK    5  A    between atoms: C_9  and  C_10
REMARK    6  A    between atoms: C_22  and  C_23
REMARK                            x       y       z     vdW  Elec       q    Type
REMARK                         _______ _______ _______ _____ _____    ______ ____
ROOT
ATOM      1  C   UNL     1       3.498   6.416  18.179  0.00  0.00    +0.000 C 
ATOM      2  O   UNL     1       4.100   6.765  17.163  0.00  0.00    +0.000 OA
ATOM      3  N   UNL     1       3.606   5.082  18.674  0.00  0.00    +0.000 N 
ATOM      4  C   UNL     1       2.745   4.545  19.661  0.00  0.00    +0.000 A 
ATOM      5  C   UNL     1       3.260   4.285  20.935  0.00  0.00    +0.000 A 
ATOM      6  C   UNL     1       2.541   3.472  21.807  0.00  0.00    +0.000 A 
ATOM      7  C   UNL     1       1.322   2.938  21.397  0.00  0.00    +0.000 A 
ATOM      8  F   UNL     1       0.653   2.130  22.231  0.00  0.00    +0.000 F 
ATOM      9  C   UNL     1       0.816   3.167  20.119  0.00  0.00    +0.000 A 
ATOM     10  C   UNL     1       1.560   3.925  19.215  0.00  0.00    +0.000 A 
ATOM     11  C   UNL     1       1.216   3.995  17.739  0.00  0.00    +0.000 C 
ATOM     12  C   UNL     1       2.474   3.970  16.818  0.00  0.00    +0.000 C 
ATOM     13  C   UNL     1       3.769   4.014  17.649  0.00  0.00    +0.000 C 
ATOM     14  C   UNL     1       5.084   4.019  16.886  0.00  0.00    +0.000 C 
ENDROOT
BRANCH   1  19
ATOM     15  C   UNL     1       1.335   8.412  20.643  0.00  0.00    +0.000 A 
ATOM     16  C   UNL     1       0.687   9.273  19.767  0.00  0.00    +0.000 A 
ATOM     17  C   UNL     1       0.970   9.253  18.404  0.00  0.00    +0.000 A 
ATOM     18  C   UNL     1       1.910   8.332  17.909  0.00  0.00    +0.000 A 
ATOM     19  C   UNL     1       2.558   7.436  18.781  0.00  0.00    +0.000 A 
ATOM     20  C   UNL     1       2.294   7.533  20.149  0.00  0.00    +0.000 A 
BRANCH  15  22
ATOM     21  C   UNL     1      -0.302   9.166  22.195  0.00  0.00    +0.000 C 
ATOM     22  O   UNL     1       0.941   8.517  21.950  0.00  0.00    +0.000 OA
ENDBRANCH  15  22
BRANCH  17  23
ATOM     23  O   UNL     1       0.283  10.176  17.671  0.00  0.00    +0.000 OA
ATOM     24  C   UNL     1      -1.101  10.319  17.963  0.00  0.00    +0.000 C 
ENDBRANCH  17  23
ENDBRANCH   1  19
TORSDOF 3
ENDMDL
MODEL 7
REMARK VINA RESULT:      -6.8      3.144      5.782
REMARK  Name = 
REMARK  6 active torsions:
REMARK  status: ('A' for Active; 'I' for Inactive)
REMARK    1  A    between atoms: C_1  and  O_2
REMARK    2  A    between atoms: O_2  and  C_3
REMARK    3  A    between atoms: C_5  and  O_6
REMARK    4  A    between atoms: O_6  and  C_7
REMARK    5  A    between atoms: C_9  and  C_10
REMARK    6  A    between atoms: C_22  and  C_23
REMARK                            x       y       z     vdW  Elec       q    Type
REMARK                         _______ _______ _______ _____ _____    ______ ____
ROOT
ATOM      1  C   UNL     1       2.356   5.359  17.957  0.00  0.00    +0.000 C 
ATOM      2  O   UNL     1       1.376   4.626  17.820  0.00  0.00    +0.000 OA
ATOM      3  N   UNL     1       3.657   4.926  17.560  0.00  0.00    +0.000 N 
ATOM      4  C   UNL     1       4.848   5.595  17.932  0.00  0.00    +0.000 A 
ATOM      5  C   UNL     1       5.570   6.282  16.949  0.00  0.00    +0.000 A 
ATOM      6  C   UNL     1       6.883   6.663  17.211  0.00  0.00    +0.000 A 
ATOM      7  C   UNL     1       7.450   6.360  18.446  0.00  0.00    +0.000 A 
ATOM      8  F   UNL     1       8.725   6.702  18.678  0.00  0.00    +0.000 F 
ATOM      9  C   UNL     1       6.748   5.650  19.420  0.00  0.00    +0.000 A 
ATOM     10  C   UNL     1       5.456   5.205  19.142  0.00  0.00    +0.000 A 
ATOM     11  C   UNL     1       4.733   4.208  20.028  0.00  0.00    +0.000 C 
ATOM     12  C   UNL     1       3.915   3.155  19.220  0.00  0.00    +0.000 C 
ATOM     13  C   UNL     1       3.940   3.472  17.714  0.00  0.00    +0.000 C 
ATOM     14  C   UNL     1       3.163   2.543  16.795  0.00  0.00    +0.000 C 
ENDROOT
BRANCH   1  19
ATOM     15  C   UNL     1       1.554   7.976  20.647  0.00  0.00    +0.000 A 
ATOM     16  C   UNL     1       1.538   9.132  19.877  0.00  0.00    +0.000 A 
ATOM     17  C   UNL     1       1.826   9.087  18.516  0.00  0.00    +0.000 A 
ATOM     18  C   UNL     1       2.118   7.850  17.913  0.00  0.00    +0.000 A 
ATOM     19  C   UNL     1       2.115   6.667  18.676  0.00  0.00    +0.000 A 
ATOM     20  C   UNL     1       1.884   6.763  20.050  0.00  0.00    +0.000 A 
BRANCH  15  22
ATOM     21  C   UNL     1       0.396   9.276  22.268  0.00  0.00    +0.000 C 
ATOM     22  O   UNL     1       1.222   8.157  21.964  0.00  0.00    +0.000 OA
ENDBRANCH  15  22
BRANCH  17  23
ATOM     23  O   UNL     1       1.806  10.301  17.894  0.00  0.00    +0.000 OA
ATOM     24  C   UNL     1       1.559  11.434  18.717  0.00  0.00    +0.000 C 
ENDBRANCH  17  23
ENDBRANCH   1  19
TORSDOF 3
ENDMDL
MODEL 8
REMARK VINA RESULT:      -6.8      0.879      2.459
REMARK  Name = 
REMARK  6 active torsions:
REMARK  status: ('A' for Active; 'I' for Inactive)
REMARK    1  A    between atoms: C_1  and  O_2
REMARK    2  A    between atoms: O_2  and  C_3
REMARK    3  A    between atoms: C_5  and  O_6
REMARK    4  A    between atoms: O_6  and  C_7
REMARK    5  A    between atoms: C_9  and  C_10
REMARK    6  A    between atoms: C_22  and  C_23
REMARK                            x       y       z     vdW  Elec       q    Type
REMARK                         _______ _______ _______ _____ _____    ______ ____
ROOT
ATOM      1  C   UNL     1       4.601   3.984  19.005  0.00  0.00    +0.000 C 
ATOM      2  O   UNL     1       4.886   2.887  19.485  0.00  0.00    +0.000 OA
ATOM      3  N   UNL     1       3.518   4.754  19.526  0.00  0.00    +0.000 N 
ATOM      4  C   UNL     1       2.971   5.878  18.862  0.00  0.00    +0.000 A 
ATOM      5  C   UNL     1       3.182   7.150  19.405  0.00  0.00    +0.000 A 
ATOM      6  C   UNL     1       2.400   8.215  18.967  0.00  0.00    +0.000 A 
ATOM      7  C   UNL     1       1.428   7.996  17.995  0.00  0.00    +0.000 A 
ATOM      8  F   UNL     1       0.657   9.020  17.604  0.00  0.00    +0.000 F 
ATOM      9  C   UNL     1       1.189   6.726  17.471  0.00  0.00    +0.000 A 
ATOM     10  C   UNL     1       1.922   5.641  17.952  0.00  0.00    +0.000 A 
ATOM     11  C   UNL     1       1.545   4.205  17.636  0.00  0.00    +0.000 C 
ATOM     12  C   UNL     1       1.717   3.248  18.856  0.00  0.00    +0.000 C 
ATOM     13  C   UNL     1       2.357   3.982  20.049  0.00  0.00    +0.000 C 
ATOM     14  C   UNL     1       2.611   3.170  21.308  0.00  0.00    +0.000 C 
ENDROOT
BRANCH   1  19
ATOM     15  C   UNL     1       6.108   4.072  15.476  0.00  0.00    +0.000 A 
ATOM     16  C   UNL     1       6.966   5.157  15.596  0.00  0.00    +0.000 A 
ATOM     17  C   UNL     1       7.032   5.888  16.779  0.00  0.00    +0.000 A 
ATOM     18  C   UNL     1       6.233   5.507  17.871  0.00  0.00    +0.000 A 
ATOM     19  C   UNL     1       5.375   4.394  17.772  0.00  0.00    +0.000 A 
ATOM     20  C   UNL     1       5.291   3.727  16.548  0.00  0.00    +0.000 A 
BRANCH  15  22
ATOM     21  C   UNL     1       6.736   4.143  13.183  0.00  0.00    +0.000 C 
ATOM     22  O   UNL     1       6.165   3.424  14.271  0.00  0.00    +0.000 OA
ENDBRANCH  15  22
BRANCH  17  23
ATOM     23  O   UNL     1       7.893   6.946  16.742  0.00  0.00    +0.000 OA
ATOM     24  C   UNL     1       7.753   7.917  17.770  0.00  0.00    +0.000 C 
ENDBRANCH  17  23
ENDBRANCH   1  19
TORSDOF 3
ENDMDL
MODEL 9
REMARK VINA RESULT:      -6.7      3.068      5.763
REMARK  Name = 
REMARK  6 active torsions:
REMARK  status: ('A' for Active; 'I' for Inactive)
REMARK    1  A    between atoms: C_1  and  O_2
REMARK    2  A    between atoms: O_2  and  C_3
REMARK    3  A    between atoms: C_5  and  O_6
REMARK    4  A    between atoms: O_6  and  C_7
REMARK    5  A    between atoms: C_9  and  C_10
REMARK    6  A    between atoms: C_22  and  C_23
REMARK                            x       y       z     vdW  Elec       q    Type
REMARK                         _______ _______ _______ _____ _____    ______ ____
ROOT
ATOM      1  C   UNL     1       2.278   5.136  17.911  0.00  0.00    +0.000 C 
ATOM      2  O   UNL     1       1.297   4.393  17.854  0.00  0.00    +0.000 OA
ATOM      3  N   UNL     1       3.581   4.656  17.584  0.00  0.00    +0.000 N 
ATOM      4  C   UNL     1       4.770   5.364  17.884  0.00  0.00    +0.000 A 
ATOM      5  C   UNL     1       5.504   5.924  16.833  0.00  0.00    +0.000 A 
ATOM      6  C   UNL     1       6.815   6.333  17.061  0.00  0.00    +0.000 A 
ATOM      7  C   UNL     1       7.369   6.182  18.330  0.00  0.00    +0.000 A 
ATOM      8  F   UNL     1       8.642   6.548  18.532  0.00  0.00    +0.000 F 
ATOM      9  C   UNL     1       6.655   5.597  19.375  0.00  0.00    +0.000 A 
ATOM     10  C   UNL     1       5.364   5.124  19.139  0.00  0.00    +0.000 A 
ATOM     11  C   UNL     1       4.629   4.243  20.133  0.00  0.00    +0.000 C 
ATOM     12  C   UNL     1       3.817   3.100  19.450  0.00  0.00    +0.000 C 
ATOM     13  C   UNL     1       3.859   3.232  17.917  0.00  0.00    +0.000 C 
ATOM     14  C   UNL     1       3.090   2.198  17.110  0.00  0.00    +0.000 C 
ENDROOT
BRANCH   1  19
ATOM     15  C   UNL     1       1.911   8.942  18.247  0.00  0.00    +0.000 A 
ATOM     16  C   UNL     1       1.709   9.055  19.617  0.00  0.00    +0.000 A 
ATOM     17  C   UNL     1       1.644   7.924  20.424  0.00  0.00    +0.000 A 
ATOM     18  C   UNL     1       1.804   6.652  19.846  0.00  0.00    +0.000 A 
ATOM     19  C   UNL     1       2.033   6.522  18.463  0.00  0.00    +0.000 A 
ATOM     20  C   UNL     1       2.027   7.678  17.677  0.00  0.00    +0.000 A 
BRANCH  15  22
ATOM     21  C   UNL     1       1.897  11.317  18.361  0.00  0.00    +0.000 C 
ATOM     22  O   UNL     1       1.985  10.133  17.576  0.00  0.00    +0.000 OA
ENDBRANCH  15  22
BRANCH  17  23
ATOM     23  O   UNL     1       1.409   8.184  21.743  0.00  0.00    +0.000 OA
ATOM     24  C   UNL     1       0.800   9.433  22.046  0.00  0.00    +0.000 C 
ENDBRANCH  17  23
ENDBRANCH   1  19
TORSDOF 3
ENDMDL
