MODEL 1
REMARK VINA RESULT:      -8.2      0.000      0.000
REMARK  Name = 
REMARK  9 active torsions:
REMARK  status: ('A' for Active; 'I' for Inactive)
REMARK    1  A    between atoms: C_1  and  O_2
REMARK    2  A    between atoms: O_2  and  C_3
REMARK    3  A    between atoms: C_8  and  C_9
REMARK    4  A    between atoms: C_9  and  N_10
REMARK    5  A    between atoms: C_13  and  N_14
REMARK    6  A    between atoms: C_15  and  C_17
REMARK    7  A    between atoms: C_17  and  N_18
REMARK    8  A    between atoms: C_19  and  C_21
REMARK    9  A    between atoms: C_25  and  C_26
REMARK                            x       y       z     vdW  Elec       q    Type
REMARK                         _______ _______ _______ _____ _____    ______ ____
ROOT
ATOM      1  N   UNL     1       8.890   8.778  19.079  0.00  0.00    +0.000 N 
ATOM      2  C   UNL     1       8.089   8.014  18.260  0.00  0.00    +0.000 C 
ATOM      3  O   UNL     1       7.484   8.452  17.286  0.00  0.00    +0.000 OA
ATOM      4  H   UNL     1       9.352   8.299  19.850  0.00  0.00    +0.000 HD
ENDROOT
BRANCH   1   8
ATOM      5  N   UNL     1      10.575  11.756  20.140  0.00  0.00    +0.000 NA
ATOM      6  C   UNL     1      11.073  11.554  18.776  0.00  0.00    +0.000 C 
ATOM      7  C   UNL     1      10.094  10.685  18.006  0.00  0.00    +0.000 C 
ATOM      8  C   UNL     1       9.033  10.232  18.996  0.00  0.00    +0.000 C 
ATOM      9  C   UNL     1       9.334  10.982  20.302  0.00  0.00    +0.000 C 
BRANCH   5  10
ATOM     10  C   UNL     1      10.433  13.194  20.409  0.00  0.00    +0.000 C 
BRANCH  10  16
ATOM     11  C   UNL     1       8.113  14.193  20.334  0.00  0.00    +0.000 A 
ATOM     12  C   UNL     1       6.947  14.628  20.950  0.00  0.00    +0.000 A 
ATOM     13  C   UNL     1       6.828  14.556  22.351  0.00  0.00    +0.000 A 
ATOM     14  C   UNL     1       7.886  14.075  23.124  0.00  0.00    +0.000 A 
ATOM     15  C   UNL     1       9.054  13.635  22.511  0.00  0.00    +0.000 A 
ATOM     16  C   UNL     1       9.165  13.649  21.108  0.00  0.00    +0.000 A 
BRANCH  11  18
ATOM     17  C   UNL     1       7.408  14.451  18.005  0.00  0.00    +0.000 C 
ATOM     18  O   UNL     1       8.384  14.204  18.995  0.00  0.00    +0.000 OA
ENDBRANCH  11  18
ENDBRANCH  10  16
ENDBRANCH   5  10
ENDBRANCH   1   8
BRANCH   2  19
ATOM     19  C   UNL     1       8.042   6.523  18.623  0.00  0.00    +0.000 C 
BRANCH  19  20
ATOM     20  N   UNL     1       6.676   6.035  18.714  0.00  0.00    +0.000 N 
ATOM     21  C   UNL     1       6.233   4.990  17.937  0.00  0.00    +0.000 C 
ATOM     22  O   UNL     1       6.958   4.398  17.143  0.00  0.00    +0.000 OA
ATOM     23  H   UNL     1       6.064   6.492  19.376  0.00  0.00    +0.000 HD
BRANCH  21  24
ATOM     24  C   UNL     1       4.809   4.581  18.099  0.00  0.00    +0.000 A 
ATOM     25  C   UNL     1       4.192   3.888  17.050  0.00  0.00    +0.000 A 
ATOM     26  C   UNL     1       2.846   3.530  17.135  0.00  0.00    +0.000 A 
ATOM     27  C   UNL     1       2.101   3.876  18.263  0.00  0.00    +0.000 A 
ATOM     28  C   UNL     1       2.697   4.580  19.321  0.00  0.00    +0.000 A 
ATOM     29  C   UNL     1       4.061   4.925  19.233  0.00  0.00    +0.000 A 
BRANCH  28  30
ATOM     30  C   UNL     1       1.892   4.993  20.531  0.00  0.00    +0.000 C 
ATOM     31  F   UNL     1       0.615   4.519  20.526  0.00  0.00    +0.000 F 
ATOM     32  F   UNL     1       2.449   4.559  21.694  0.00  0.00    +0.000 F 
ATOM     33  F   UNL     1       1.788   6.346  20.646  0.00  0.00    +0.000 F 
ENDBRANCH  28  30
ENDBRANCH  21  24
ENDBRANCH  19  20
ENDBRANCH   2  19
TORSDOF 8
ENDMDL
MODEL 2
REMARK VINA RESULT:      -8.2      8.041     10.636
REMARK  Name = 
REMARK  9 active torsions:
REMARK  status: ('A' for Active; 'I' for Inactive)
REMARK    1  A    between atoms: C_1  and  O_2
REMARK    2  A    between atoms: O_2  and  C_3
REMARK    3  A    between atoms: C_8  and  C_9
REMARK    4  A    between atoms: C_9  and  N_10
REMARK    5  A    between atoms: C_13  and  N_14
REMARK    6  A    between atoms: C_15  and  C_17
REMARK    7  A    between atoms: C_17  and  N_18
REMARK    8  A    between atoms: C_19  and  C_21
REMARK    9  A    between atoms: C_25  and  C_26
REMARK                            x       y       z     vdW  Elec       q    Type
REMARK                         _______ _______ _______ _____ _____    ______ ____
ROOT
ATOM      1  N   UNL     1      -0.805   9.891  17.424  0.00  0.00    +0.000 N 
ATOM      2  C   UNL     1      -0.059   9.938  18.580  0.00  0.00    +0.000 C 
ATOM      3  O   UNL     1      -0.530   9.836  19.710  0.00  0.00    +0.000 OA
ATOM      4  H   UNL     1      -0.300   9.974  16.545  0.00  0.00    +0.000 HD
ENDROOT
BRANCH   1   8
ATOM      5  N   UNL     1      -3.915  11.659  17.218  0.00  0.00    +0.000 NA
ATOM      6  C   UNL     1      -3.773  11.068  15.885  0.00  0.00    +0.000 C 
ATOM      7  C   UNL     1      -2.826   9.883  15.956  0.00  0.00    +0.000 C 
ATOM      8  C   UNL     1      -2.268   9.850  17.370  0.00  0.00    +0.000 C 
ATOM      9  C   UNL     1      -3.028  10.936  18.145  0.00  0.00    +0.000 C 
BRANCH   5  10
ATOM     10  C   UNL     1      -5.330  11.663  17.613  0.00  0.00    +0.000 C 
BRANCH  10  16
ATOM     11  C   UNL     1      -6.591  11.342  19.780  0.00  0.00    +0.000 A 
ATOM     12  C   UNL     1      -6.916  11.722  21.074  0.00  0.00    +0.000 A 
ATOM     13  C   UNL     1      -6.337  12.880  21.628  0.00  0.00    +0.000 A 
ATOM     14  C   UNL     1      -5.460  13.660  20.874  0.00  0.00    +0.000 A 
ATOM     15  C   UNL     1      -5.129  13.281  19.578  0.00  0.00    +0.000 A 
ATOM     16  C   UNL     1      -5.657  12.095  19.031  0.00  0.00    +0.000 A 
BRANCH  11  18
ATOM     17  C   UNL     1      -7.031   8.940  19.610  0.00  0.00    +0.000 C 
ATOM     18  O   UNL     1      -7.070  10.257  19.101  0.00  0.00    +0.000 OA
ENDBRANCH  11  18
ENDBRANCH  10  16
ENDBRANCH   5  10
ENDBRANCH   1   8
BRANCH   2  19
ATOM     19  C   UNL     1       1.454  10.078  18.358  0.00  0.00    +0.000 C 
BRANCH  19  20
ATOM     20  N   UNL     1       2.037   8.849  17.845  0.00  0.00    +0.000 N 
ATOM     21  C   UNL     1       2.354   7.802  18.677  0.00  0.00    +0.000 C 
ATOM     22  O   UNL     1       2.151   7.828  19.887  0.00  0.00    +0.000 OA
ATOM     23  H   UNL     1       2.195   8.792  16.848  0.00  0.00    +0.000 HD
BRANCH  21  24
ATOM     24  C   UNL     1       2.962   6.595  18.048  0.00  0.00    +0.000 A 
ATOM     25  C   UNL     1       2.261   5.385  18.113  0.00  0.00    +0.000 A 
ATOM     26  C   UNL     1       2.814   4.218  17.584  0.00  0.00    +0.000 A 
ATOM     27  C   UNL     1       4.081   4.249  16.998  0.00  0.00    +0.000 A 
ATOM     28  C   UNL     1       4.806   5.449  16.933  0.00  0.00    +0.000 A 
ATOM     29  C   UNL     1       4.233   6.625  17.457  0.00  0.00    +0.000 A 
BRANCH  28  30
ATOM     30  C   UNL     1       6.193   5.487  16.336  0.00  0.00    +0.000 C 
ATOM     31  F   UNL     1       6.898   4.335  16.515  0.00  0.00    +0.000 F 
ATOM     32  F   UNL     1       6.171   5.708  14.993  0.00  0.00    +0.000 F 
ATOM     33  F   UNL     1       6.958   6.480  16.867  0.00  0.00    +0.000 F 
ENDBRANCH  28  30
ENDBRANCH  21  24
ENDBRANCH  19  20
ENDBRANCH   2  19
TORSDOF 8
ENDMDL
MODEL 3
REMARK VINA RESULT:      -8.1      0.819      1.059
REMARK  Name = 
REMARK  9 active torsions:
REMARK  status: ('A' for Active; 'I' for Inactive)
REMARK    1  A    between atoms: C_1  and  O_2
REMARK    2  A    between atoms: O_2  and  C_3
REMARK    3  A    between atoms: C_8  and  C_9
REMARK    4  A    between atoms: C_9  and  N_10
REMARK    5  A    between atoms: C_13  and  N_14
REMARK    6  A    between atoms: C_15  and  C_17
REMARK    7  A    between atoms: C_17  and  N_18
REMARK    8  A    between atoms: C_19  and  C_21
REMARK    9  A    between atoms: C_25  and  C_26
REMARK                            x       y       z     vdW  Elec       q    Type
REMARK                         _______ _______ _______ _____ _____    ______ ____
ROOT
ATOM      1  N   UNL     1       8.990   9.149  19.006  0.00  0.00    +0.000 N 
ATOM      2  C   UNL     1       8.167   8.462  18.143  0.00  0.00    +0.000 C 
ATOM      3  O   UNL     1       7.538   8.985  17.227  0.00  0.00    +0.000 OA
ATOM      4  H   UNL     1       9.470   8.604  19.719  0.00  0.00    +0.000 HD
ENDROOT
BRANCH   1   8
ATOM      5  N   UNL     1      10.738  12.019  20.248  0.00  0.00    +0.000 NA
ATOM      6  C   UNL     1      11.167  11.942  18.848  0.00  0.00    +0.000 C 
ATOM      7  C   UNL     1      10.147  11.147  18.052  0.00  0.00    +0.000 C 
ATOM      8  C   UNL     1       9.134  10.606  19.049  0.00  0.00    +0.000 C 
ATOM      9  C   UNL     1       9.503  11.233  20.401  0.00  0.00    +0.000 C 
BRANCH   5  10
ATOM     10  C   UNL     1      10.616  13.426  20.654  0.00  0.00    +0.000 C 
BRANCH  10  16
ATOM     11  C   UNL     1       8.329  14.439  20.291  0.00  0.00    +0.000 A 
ATOM     12  C   UNL     1       7.096  14.875  20.755  0.00  0.00    +0.000 A 
ATOM     13  C   UNL     1       6.797  14.790  22.128  0.00  0.00    +0.000 A 
ATOM     14  C   UNL     1       7.743  14.296  23.026  0.00  0.00    +0.000 A 
ATOM     15  C   UNL     1       8.979  13.855  22.565  0.00  0.00    +0.000 A 
ATOM     16  C   UNL     1       9.270  13.882  21.188  0.00  0.00    +0.000 A 
BRANCH  11  18
ATOM     17  C   UNL     1       8.866  15.641  18.227  0.00  0.00    +0.000 C 
ATOM     18  O   UNL     1       8.770  14.462  18.998  0.00  0.00    +0.000 OA
ENDBRANCH  11  18
ENDBRANCH  10  16
ENDBRANCH   5  10
ENDBRANCH   1   8
BRANCH   2  19
ATOM     19  C   UNL     1       8.125   6.945  18.373  0.00  0.00    +0.000 C 
BRANCH  19  20
ATOM     20  N   UNL     1       6.781   6.415  18.215  0.00  0.00    +0.000 N 
ATOM     21  C   UNL     1       6.287   5.445  19.056  0.00  0.00    +0.000 C 
ATOM     22  O   UNL     1       6.932   4.985  19.993  0.00  0.00    +0.000 OA
ATOM     23  H   UNL     1       6.219   6.792  17.463  0.00  0.00    +0.000 HD
BRANCH  21  24
ATOM     24  C   UNL     1       4.902   4.961  18.793  0.00  0.00    +0.000 A 
ATOM     25  C   UNL     1       4.571   4.563  17.492  0.00  0.00    +0.000 A 
ATOM     26  C   UNL     1       3.272   4.152  17.187  0.00  0.00    +0.000 A 
ATOM     27  C   UNL     1       2.290   4.150  18.178  0.00  0.00    +0.000 A 
ATOM     28  C   UNL     1       2.597   4.557  19.486  0.00  0.00    +0.000 A 
ATOM     29  C   UNL     1       3.914   4.956  19.788  0.00  0.00    +0.000 A 
BRANCH  28  30
ATOM     30  C   UNL     1       1.533   4.595  20.557  0.00  0.00    +0.000 C 
ATOM     31  F   UNL     1       1.925   4.043  21.739  0.00  0.00    +0.000 F 
ATOM     32  F   UNL     1       1.141   5.866  20.849  0.00  0.00    +0.000 F 
ATOM     33  F   UNL     1       0.404   3.930  20.190  0.00  0.00    +0.000 F 
ENDBRANCH  28  30
ENDBRANCH  21  24
ENDBRANCH  19  20
ENDBRANCH   2  19
TORSDOF 8
ENDMDL
MODEL 4
REMARK VINA RESULT:      -8.1      8.454     10.628
REMARK  Name = 
REMARK  9 active torsions:
REMARK  status: ('A' for Active; 'I' for Inactive)
REMARK    1  A    between atoms: C_1  and  O_2
REMARK    2  A    between atoms: O_2  and  C_3
REMARK    3  A    between atoms: C_8  and  C_9
REMARK    4  A    between atoms: C_9  and  N_10
REMARK    5  A    between atoms: C_13  and  N_14
REMARK    6  A    between atoms: C_15  and  C_17
REMARK    7  A    between atoms: C_17  and  N_18
REMARK    8  A    between atoms: C_19  and  C_21
REMARK    9  A    between atoms: C_25  and  C_26
REMARK                            x       y       z     vdW  Elec       q    Type
REMARK                         _______ _______ _______ _____ _____    ______ ____
ROOT
ATOM      1  N   UNL     1      -0.900   9.980  17.447  0.00  0.00    +0.000 N 
ATOM      2  C   UNL     1      -0.178  10.020  18.619  0.00  0.00    +0.000 C 
ATOM      3  O   UNL     1      -0.669   9.880  19.736  0.00  0.00    +0.000 OA
ATOM      4  H   UNL     1      -0.380  10.095  16.580  0.00  0.00    +0.000 HD
ENDROOT
BRANCH   1   8
ATOM      5  N   UNL     1      -4.038  11.661  17.043  0.00  0.00    +0.000 NA
ATOM      6  C   UNL     1      -3.852  10.978  15.759  0.00  0.00    +0.000 C 
ATOM      7  C   UNL     1      -2.884   9.823  15.938  0.00  0.00    +0.000 C 
ATOM      8  C   UNL     1      -2.360   9.903  17.362  0.00  0.00    +0.000 C 
ATOM      9  C   UNL     1      -3.160  11.025  18.039  0.00  0.00    +0.000 C 
BRANCH   5  10
ATOM     10  C   UNL     1      -5.463  11.662  17.403  0.00  0.00    +0.000 C 
BRANCH  10  16
ATOM     11  C   UNL     1      -6.269  13.393  19.059  0.00  0.00    +0.000 A 
ATOM     12  C   UNL     1      -6.861  14.610  19.366  0.00  0.00    +0.000 A 
ATOM     13  C   UNL     1      -7.325  15.443  18.330  0.00  0.00    +0.000 A 
ATOM     14  C   UNL     1      -7.216  15.039  16.999  0.00  0.00    +0.000 A 
ATOM     15  C   UNL     1      -6.620  13.822  16.686  0.00  0.00    +0.000 A 
ATOM     16  C   UNL     1      -6.102  13.005  17.709  0.00  0.00    +0.000 A 
BRANCH  11  18
ATOM     17  C   UNL     1      -5.965  12.563  21.341  0.00  0.00    +0.000 C 
ATOM     18  O   UNL     1      -5.779  12.475  19.944  0.00  0.00    +0.000 OA
ENDBRANCH  11  18
ENDBRANCH  10  16
ENDBRANCH   5  10
ENDBRANCH   1   8
BRANCH   2  19
ATOM     19  C   UNL     1       1.334  10.202  18.430  0.00  0.00    +0.000 C 
BRANCH  19  20
ATOM     20  N   UNL     1       1.972   8.974  17.985  0.00  0.00    +0.000 N 
ATOM     21  C   UNL     1       2.238   7.945  18.857  0.00  0.00    +0.000 C 
ATOM     22  O   UNL     1       1.941   7.988  20.047  0.00  0.00    +0.000 OA
ATOM     23  H   UNL     1       2.208   8.903  17.004  0.00  0.00    +0.000 HD
BRANCH  21  24
ATOM     24  C   UNL     1       2.910   6.738  18.297  0.00  0.00    +0.000 A 
ATOM     25  C   UNL     1       3.978   6.920  17.410  0.00  0.00    +0.000 A 
ATOM     26  C   UNL     1       4.603   5.821  16.821  0.00  0.00    +0.000 A 
ATOM     27  C   UNL     1       4.155   4.529  17.102  0.00  0.00    +0.000 A 
ATOM     28  C   UNL     1       3.079   4.324  17.979  0.00  0.00    +0.000 A 
ATOM     29  C   UNL     1       2.463   5.440  18.581  0.00  0.00    +0.000 A 
BRANCH  28  30
ATOM     30  C   UNL     1       2.561   2.933  18.261  0.00  0.00    +0.000 C 
ATOM     31  F   UNL     1       3.152   1.966  17.506  0.00  0.00    +0.000 F 
ATOM     32  F   UNL     1       2.751   2.566  19.558  0.00  0.00    +0.000 F 
ATOM     33  F   UNL     1       1.224   2.823  18.031  0.00  0.00    +0.000 F 
ENDBRANCH  28  30
ENDBRANCH  21  24
ENDBRANCH  19  20
ENDBRANCH   2  19
TORSDOF 8
ENDMDL
MODEL 5
REMARK VINA RESULT:      -8.1      1.229      1.923
REMARK  Name = 
REMARK  9 active torsions:
REMARK  status: ('A' for Active; 'I' for Inactive)
REMARK    1  A    between atoms: C_1  and  O_2
REMARK    2  A    between atoms: O_2  and  C_3
REMARK    3  A    between atoms: C_8  and  C_9
REMARK    4  A    between atoms: C_9  and  N_10
REMARK    5  A    between atoms: C_13  and  N_14
REMARK    6  A    between atoms: C_15  and  C_17
REMARK    7  A    between atoms: C_17  and  N_18
REMARK    8  A    between atoms: C_19  and  C_21
REMARK    9  A    between atoms: C_25  and  C_26
REMARK                            x       y       z     vdW  Elec       q    Type
REMARK                         _______ _______ _______ _____ _____    ______ ____
ROOT
ATOM      1  N   UNL     1       8.948   8.997  18.958  0.00  0.00    +0.000 N 
ATOM      2  C   UNL     1       8.065   8.338  18.131  0.00  0.00    +0.000 C 
ATOM      3  O   UNL     1       7.358   8.894  17.295  0.00  0.00    +0.000 OA
ATOM      4  H   UNL     1       9.491   8.426  19.602  0.00  0.00    +0.000 HD
ENDROOT
BRANCH   1   8
ATOM      5  N   UNL     1      10.609  11.831  20.386  0.00  0.00    +0.000 NA
ATOM      6  C   UNL     1      11.103  11.809  19.006  0.00  0.00    +0.000 C 
ATOM      7  C   UNL     1      10.130  11.037  18.134  0.00  0.00    +0.000 C 
ATOM      8  C   UNL     1       9.076  10.451  19.061  0.00  0.00    +0.000 C 
ATOM      9  C   UNL     1       9.375  11.031  20.451  0.00  0.00    +0.000 C 
BRANCH   5  10
ATOM     10  C   UNL     1      10.455  13.221  20.837  0.00  0.00    +0.000 C 
BRANCH  10  16
ATOM     11  C   UNL     1       8.262  13.876  21.908  0.00  0.00    +0.000 A 
ATOM     12  C   UNL     1       6.986  14.419  21.851  0.00  0.00    +0.000 A 
ATOM     13  C   UNL     1       6.485  14.898  20.625  0.00  0.00    +0.000 A 
ATOM     14  C   UNL     1       7.254  14.804  19.465  0.00  0.00    +0.000 A 
ATOM     15  C   UNL     1       8.534  14.264  19.518  0.00  0.00    +0.000 A 
ATOM     16  C   UNL     1       9.069  13.832  20.747  0.00  0.00    +0.000 A 
BRANCH  11  18
ATOM     17  C   UNL     1       8.320  12.364  23.831  0.00  0.00    +0.000 C 
ATOM     18  O   UNL     1       8.884  13.365  23.012  0.00  0.00    +0.000 OA
ENDBRANCH  11  18
ENDBRANCH  10  16
ENDBRANCH   5  10
ENDBRANCH   1   8
BRANCH   2  19
ATOM     19  C   UNL     1       8.062   6.811  18.288  0.00  0.00    +0.000 C 
BRANCH  19  20
ATOM     20  N   UNL     1       6.727   6.258  18.130  0.00  0.00    +0.000 N 
ATOM     21  C   UNL     1       6.212   5.354  19.029  0.00  0.00    +0.000 C 
ATOM     22  O   UNL     1       6.829   4.976  20.020  0.00  0.00    +0.000 OA
ATOM     23  H   UNL     1       6.187   6.570  17.333  0.00  0.00    +0.000 HD
BRANCH  21  24
ATOM     24  C   UNL     1       4.839   4.839  18.762  0.00  0.00    +0.000 A 
ATOM     25  C   UNL     1       4.400   4.769  17.434  0.00  0.00    +0.000 A 
ATOM     26  C   UNL     1       3.104   4.342  17.140  0.00  0.00    +0.000 A 
ATOM     27  C   UNL     1       2.231   3.996  18.172  0.00  0.00    +0.000 A 
ATOM     28  C   UNL     1       2.647   4.070  19.511  0.00  0.00    +0.000 A 
ATOM     29  C   UNL     1       3.962   4.488  19.798  0.00  0.00    +0.000 A 
BRANCH  28  30
ATOM     30  C   UNL     1       1.699   3.735  20.638  0.00  0.00    +0.000 C 
ATOM     31  F   UNL     1       1.459   2.401  20.773  0.00  0.00    +0.000 F 
ATOM     32  F   UNL     1       2.163   4.157  21.845  0.00  0.00    +0.000 F 
ATOM     33  F   UNL     1       0.480   4.320  20.480  0.00  0.00    +0.000 F 
ENDBRANCH  28  30
ENDBRANCH  21  24
ENDBRANCH  19  20
ENDBRANCH   2  19
TORSDOF 8
ENDMDL
MODEL 6
REMARK VINA RESULT:      -8.0      1.227      1.885
REMARK  Name = 
REMARK  9 active torsions:
REMARK  status: ('A' for Active; 'I' for Inactive)
REMARK    1  A    between atoms: C_1  and  O_2
REMARK    2  A    between atoms: O_2  and  C_3
REMARK    3  A    between atoms: C_8  and  C_9
REMARK    4  A    between atoms: C_9  and  N_10
REMARK    5  A    between atoms: C_13  and  N_14
REMARK    6  A    between atoms: C_15  and  C_17
REMARK    7  A    between atoms: C_17  and  N_18
REMARK    8  A    between atoms: C_19  and  C_21
REMARK    9  A    between atoms: C_25  and  C_26
REMARK                            x       y       z     vdW  Elec       q    Type
REMARK                         _______ _______ _______ _____ _____    ______ ____
ROOT
ATOM      1  N   UNL     1       8.821   8.738  19.050  0.00  0.00    +0.000 N 
ATOM      2  C   UNL     1       8.061   7.997  18.173  0.00  0.00    +0.000 C 
ATOM      3  O   UNL     1       7.475   8.466  17.201  0.00  0.00    +0.000 OA
ATOM      4  H   UNL     1       9.270   8.235  19.811  0.00  0.00    +0.000 HD
ENDROOT
BRANCH   1   8
ATOM      5  N   UNL     1      10.491  11.692  20.199  0.00  0.00    +0.000 NA
ATOM      6  C   UNL     1      10.939  11.569  18.810  0.00  0.00    +0.000 C 
ATOM      7  C   UNL     1       9.948  10.721  18.033  0.00  0.00    +0.000 C 
ATOM      8  C   UNL     1       8.933  10.198  19.036  0.00  0.00    +0.000 C 
ATOM      9  C   UNL     1       9.270  10.885  20.368  0.00  0.00    +0.000 C 
BRANCH   5  10
ATOM     10  C   UNL     1      10.333  13.110  20.548  0.00  0.00    +0.000 C 
BRANCH  10  16
ATOM     11  C   UNL     1      10.040  15.049  18.953  0.00  0.00    +0.000 A 
ATOM     12  C   UNL     1       9.261  15.847  18.126  0.00  0.00    +0.000 A 
ATOM     13  C   UNL     1       7.884  15.585  17.999  0.00  0.00    +0.000 A 
ATOM     14  C   UNL     1       7.295  14.546  18.719  0.00  0.00    +0.000 A 
ATOM     15  C   UNL     1       8.071  13.742  19.546  0.00  0.00    +0.000 A 
ATOM     16  C   UNL     1       9.460  13.958  19.640  0.00  0.00    +0.000 A 
BRANCH  11  18
ATOM     17  C   UNL     1      12.322  15.482  18.181  0.00  0.00    +0.000 C 
ATOM     18  O   UNL     1      11.380  15.178  19.188  0.00  0.00    +0.000 OA
ENDBRANCH  11  18
ENDBRANCH  10  16
ENDBRANCH   5  10
ENDBRANCH   1   8
BRANCH   2  19
ATOM     19  C   UNL     1       8.036   6.490  18.466  0.00  0.00    +0.000 C 
BRANCH  19  20
ATOM     20  N   UNL     1       6.678   5.994  18.610  0.00  0.00    +0.000 N 
ATOM     21  C   UNL     1       6.152   5.075  17.732  0.00  0.00    +0.000 C 
ATOM     22  O   UNL     1       6.792   4.607  16.795  0.00  0.00    +0.000 OA
ATOM     23  H   UNL     1       6.134   6.346  19.386  0.00  0.00    +0.000 HD
BRANCH  21  24
ATOM     24  C   UNL     1       4.743   4.645  17.962  0.00  0.00    +0.000 A 
ATOM     25  C   UNL     1       4.100   3.906  16.962  0.00  0.00    +0.000 A 
ATOM     26  C   UNL     1       2.765   3.526  17.112  0.00  0.00    +0.000 A 
ATOM     27  C   UNL     1       2.058   3.896  18.256  0.00  0.00    +0.000 A 
ATOM     28  C   UNL     1       2.680   4.647  19.266  0.00  0.00    +0.000 A 
ATOM     29  C   UNL     1       4.032   5.013  19.113  0.00  0.00    +0.000 A 
BRANCH  28  30
ATOM     30  C   UNL     1       1.914   5.087  20.491  0.00  0.00    +0.000 C 
ATOM     31  F   UNL     1       0.637   4.614  20.536  0.00  0.00    +0.000 F 
ATOM     32  F   UNL     1       2.507   4.675  21.645  0.00  0.00    +0.000 F 
ATOM     33  F   UNL     1       1.815   6.441  20.582  0.00  0.00    +0.000 F 
ENDBRANCH  28  30
ENDBRANCH  21  24
ENDBRANCH  19  20
ENDBRANCH   2  19
TORSDOF 8
ENDMDL
MODEL 7
REMARK VINA RESULT:      -8.0      6.298      9.599
REMARK  Name = 
REMARK  9 active torsions:
REMARK  status: ('A' for Active; 'I' for Inactive)
REMARK    1  A    between atoms: C_1  and  O_2
REMARK    2  A    between atoms: O_2  and  C_3
REMARK    3  A    between atoms: C_8  and  C_9
REMARK    4  A    between atoms: C_9  and  N_10
REMARK    5  A    between atoms: C_13  and  N_14
REMARK    6  A    between atoms: C_15  and  C_17
REMARK    7  A    between atoms: C_17  and  N_18
REMARK    8  A    between atoms: C_19  and  C_21
REMARK    9  A    between atoms: C_25  and  C_26
REMARK                            x       y       z     vdW  Elec       q    Type
REMARK                         _______ _______ _______ _____ _____    ______ ____
ROOT
ATOM      1  N   UNL     1       2.279   7.903  19.132  0.00  0.00    +0.000 N 
ATOM      2  C   UNL     1       1.606   7.870  20.332  0.00  0.00    +0.000 C 
ATOM      3  O   UNL     1       1.513   6.873  21.043  0.00  0.00    +0.000 OA
ATOM      4  H   UNL     1       2.299   8.792  18.638  0.00  0.00    +0.000 HD
ENDROOT
BRANCH   1   8
ATOM      5  N   UNL     1       3.726   4.635  19.381  0.00  0.00    +0.000 NA
ATOM      6  C   UNL     1       2.391   4.373  18.836  0.00  0.00    +0.000 C 
ATOM      7  C   UNL     1       1.859   5.633  18.178  0.00  0.00    +0.000 C 
ATOM      8  C   UNL     1       2.863   6.738  18.464  0.00  0.00    +0.000 C 
ATOM      9  C   UNL     1       4.049   6.054  19.159  0.00  0.00    +0.000 C 
BRANCH   5  10
ATOM     10  C   UNL     1       4.694   3.695  18.799  0.00  0.00    +0.000 C 
BRANCH  10  16
ATOM     11  C   UNL     1       6.677   4.583  17.508  0.00  0.00    +0.000 A 
ATOM     12  C   UNL     1       7.296   4.965  16.326  0.00  0.00    +0.000 A 
ATOM     13  C   UNL     1       6.588   4.891  15.111  0.00  0.00    +0.000 A 
ATOM     14  C   UNL     1       5.260   4.464  15.094  0.00  0.00    +0.000 A 
ATOM     15  C   UNL     1       4.637   4.077  16.276  0.00  0.00    +0.000 A 
ATOM     16  C   UNL     1       5.350   4.092  17.490  0.00  0.00    +0.000 A 
BRANCH  11  18
ATOM     17  C   UNL     1       7.773   5.760  19.353  0.00  0.00    +0.000 C 
ATOM     18  O   UNL     1       7.222   4.603  18.761  0.00  0.00    +0.000 OA
ENDBRANCH  11  18
ENDBRANCH  10  16
ENDBRANCH   5  10
ENDBRANCH   1   8
BRANCH   2  19
ATOM     19  C   UNL     1       1.005   9.215  20.764  0.00  0.00    +0.000 C 
BRANCH  19  20
ATOM     20  N   UNL     1      -0.247   9.489  20.079  0.00  0.00    +0.000 N 
ATOM     21  C   UNL     1      -0.280  10.171  18.886  0.00  0.00    +0.000 C 
ATOM     22  O   UNL     1       0.733  10.572  18.320  0.00  0.00    +0.000 OA
ATOM     23  H   UNL     1      -1.096   9.151  20.512  0.00  0.00    +0.000 HD
BRANCH  21  24
ATOM     24  C   UNL     1      -1.619  10.411  18.278  0.00  0.00    +0.000 A 
ATOM     25  C   UNL     1      -1.865   9.916  16.991  0.00  0.00    +0.000 A 
ATOM     26  C   UNL     1      -3.086  10.160  16.361  0.00  0.00    +0.000 A 
ATOM     27  C   UNL     1      -4.066  10.915  17.006  0.00  0.00    +0.000 A 
ATOM     28  C   UNL     1      -3.836  11.432  18.291  0.00  0.00    +0.000 A 
ATOM     29  C   UNL     1      -2.606  11.167  18.926  0.00  0.00    +0.000 A 
BRANCH  28  30
ATOM     30  C   UNL     1      -4.874  12.282  18.984  0.00  0.00    +0.000 C 
ATOM     31  F   UNL     1      -4.345  13.279  19.747  0.00  0.00    +0.000 F 
ATOM     32  F   UNL     1      -5.715  12.890  18.103  0.00  0.00    +0.000 F 
ATOM     33  F   UNL     1      -5.667  11.555  19.818  0.00  0.00    +0.000 F 
ENDBRANCH  28  30
ENDBRANCH  21  24
ENDBRANCH  19  20
ENDBRANCH   2  19
TORSDOF 8
ENDMDL
MODEL 8
REMARK VINA RESULT:      -7.8      6.317      9.828
REMARK  Name = 
REMARK  9 active torsions:
REMARK  status: ('A' for Active; 'I' for Inactive)
REMARK    1  A    between atoms: C_1  and  O_2
REMARK    2  A    between atoms: O_2  and  C_3
REMARK    3  A    between atoms: C_8  and  C_9
REMARK    4  A    between atoms: C_9  and  N_10
REMARK    5  A    between atoms: C_13  and  N_14
REMARK    6  A    between atoms: C_15  and  C_17
REMARK    7  A    between atoms: C_17  and  N_18
REMARK    8  A    between atoms: C_19  and  C_21
REMARK    9  A    between atoms: C_25  and  C_26
REMARK                            x       y       z     vdW  Elec       q    Type
REMARK                         _______ _______ _______ _____ _____    ______ ____
ROOT
ATOM      1  N   UNL     1       2.199   8.019  18.437  0.00  0.00    +0.000 N 
ATOM      2  C   UNL     1       1.663   8.262  19.681  0.00  0.00    +0.000 C 
ATOM      3  O   UNL     1       1.732   7.481  20.626  0.00  0.00    +0.000 OA
ATOM      4  H   UNL     1       2.090   8.749  17.736  0.00  0.00    +0.000 HD
ENDROOT
BRANCH   1   8
ATOM      5  N   UNL     1       3.841   4.962  19.329  0.00  0.00    +0.000 NA
ATOM      6  C   UNL     1       2.491   4.526  18.958  0.00  0.00    +0.000 C 
ATOM      7  C   UNL     1       1.850   5.574  18.067  0.00  0.00    +0.000 C 
ATOM      8  C   UNL     1       2.806   6.755  18.016  0.00  0.00    +0.000 C 
ATOM      9  C   UNL     1       4.069   6.302  18.763  0.00  0.00    +0.000 C 
BRANCH   5  10
ATOM     10  C   UNL     1       4.822   3.952  18.912  0.00  0.00    +0.000 C 
BRANCH  10  16
ATOM     11  C   UNL     1       6.837   4.574  17.519  0.00  0.00    +0.000 A 
ATOM     12  C   UNL     1       7.468   4.770  16.298  0.00  0.00    +0.000 A 
ATOM     13  C   UNL     1       6.752   4.571  15.102  0.00  0.00    +0.000 A 
ATOM     14  C   UNL     1       5.406   4.205  15.139  0.00  0.00    +0.000 A 
ATOM     15  C   UNL     1       4.771   4.005  16.360  0.00  0.00    +0.000 A 
ATOM     16  C   UNL     1       5.490   4.145  17.563  0.00  0.00    +0.000 A 
BRANCH  11  18
ATOM     17  C   UNL     1       7.888   5.962  19.239  0.00  0.00    +0.000 C 
ATOM     18  O   UNL     1       7.389   4.732  18.759  0.00  0.00    +0.000 OA
ENDBRANCH  11  18
ENDBRANCH  10  16
ENDBRANCH   5  10
ENDBRANCH   1   8
BRANCH   2  19
ATOM     19  C   UNL     1       0.999   9.638  19.832  0.00  0.00    +0.000 C 
BRANCH  19  20
ATOM     20  N   UNL     1      -0.183   9.759  18.995  0.00  0.00    +0.000 N 
ATOM     21  C   UNL     1      -0.911  10.925  18.943  0.00  0.00    +0.000 C 
ATOM     22  O   UNL     1      -0.603  11.930  19.575  0.00  0.00    +0.000 OA
ATOM     23  H   UNL     1      -0.447   8.952  18.446  0.00  0.00    +0.000 HD
BRANCH  21  24
ATOM     24  C   UNL     1      -2.114  10.934  18.063  0.00  0.00    +0.000 A 
ATOM     25  C   UNL     1      -1.979  10.479  16.745  0.00  0.00    +0.000 A 
ATOM     26  C   UNL     1      -3.066  10.518  15.870  0.00  0.00    +0.000 A 
ATOM     27  C   UNL     1      -4.292  11.027  16.300  0.00  0.00    +0.000 A 
ATOM     28  C   UNL     1      -4.445  11.499  17.613  0.00  0.00    +0.000 A 
ATOM     29  C   UNL     1      -3.347  11.442  18.495  0.00  0.00    +0.000 A 
BRANCH  28  30
ATOM     30  C   UNL     1      -5.756  12.087  18.079  0.00  0.00    +0.000 C 
ATOM     31  F   UNL     1      -6.640  12.321  17.070  0.00  0.00    +0.000 F 
ATOM     32  F   UNL     1      -6.400  11.276  18.962  0.00  0.00    +0.000 F 
ATOM     33  F   UNL     1      -5.591  13.279  18.716  0.00  0.00    +0.000 F 
ENDBRANCH  28  30
ENDBRANCH  21  24
ENDBRANCH  19  20
ENDBRANCH   2  19
TORSDOF 8
ENDMDL
MODEL 9
REMARK VINA RESULT:      -7.8      6.380     10.055
REMARK  Name = 
REMARK  9 active torsions:
REMARK  status: ('A' for Active; 'I' for Inactive)
REMARK    1  A    between atoms: C_1  and  O_2
REMARK    2  A    between atoms: O_2  and  C_3
REMARK    3  A    between atoms: C_8  and  C_9
REMARK    4  A    between atoms: C_9  and  N_10
REMARK    5  A    between atoms: C_13  and  N_14
REMARK    6  A    between atoms: C_15  and  C_17
REMARK    7  A    between atoms: C_17  and  N_18
REMARK    8  A    between atoms: C_19  and  C_21
REMARK    9  A    between atoms: C_25  and  C_26
REMARK                            x       y       z     vdW  Elec       q    Type
REMARK                         _______ _______ _______ _____ _____    ______ ____
ROOT
ATOM      1  N   UNL     1       1.699   6.809  21.030  0.00  0.00    +0.000 N 
ATOM      2  C   UNL     1       1.529   8.134  20.699  0.00  0.00    +0.000 C 
ATOM      3  O   UNL     1       1.470   8.555  19.547  0.00  0.00    +0.000 OA
ATOM      4  H   UNL     1       1.719   6.579  22.021  0.00  0.00    +0.000 HD
ENDROOT
BRANCH   1   8
ATOM      5  N   UNL     1       3.925   4.277  19.816  0.00  0.00    +0.000 NA
ATOM      6  C   UNL     1       2.882   3.510  20.502  0.00  0.00    +0.000 C 
ATOM      7  C   UNL     1       1.621   4.349  20.601  0.00  0.00    +0.000 C 
ATOM      8  C   UNL     1       1.969   5.732  20.075  0.00  0.00    +0.000 C 
ATOM      9  C   UNL     1       3.400   5.623  19.530  0.00  0.00    +0.000 C 
BRANCH   5  10
ATOM     10  C   UNL     1       4.385   3.542  18.630  0.00  0.00    +0.000 C 
BRANCH  10  16
ATOM     11  C   UNL     1       6.379   4.920  17.911  0.00  0.00    +0.000 A 
ATOM     12  C   UNL     1       7.082   5.653  16.966  0.00  0.00    +0.000 A 
ATOM     13  C   UNL     1       6.544   5.832  15.677  0.00  0.00    +0.000 A 
ATOM     14  C   UNL     1       5.295   5.299  15.356  0.00  0.00    +0.000 A 
ATOM     15  C   UNL     1       4.588   4.561  16.298  0.00  0.00    +0.000 A 
ATOM     16  C   UNL     1       5.139   4.327  17.572  0.00  0.00    +0.000 A 
BRANCH  11  18
ATOM     17  C   UNL     1       7.679   5.463  19.912  0.00  0.00    +0.000 C 
ATOM     18  O   UNL     1       6.760   4.664  19.198  0.00  0.00    +0.000 OA
ENDBRANCH  11  18
ENDBRANCH  10  16
ENDBRANCH   5  10
ENDBRANCH   1   8
BRANCH   2  19
ATOM     19  C   UNL     1       1.358   9.075  21.900  0.00  0.00    +0.000 C 
BRANCH  19  20
ATOM     20  N   UNL     1       0.079   9.765  21.865  0.00  0.00    +0.000 N 
ATOM     21  C   UNL     1       0.001  11.125  21.677  0.00  0.00    +0.000 C 
ATOM     22  O   UNL     1       0.990  11.832  21.511  0.00  0.00    +0.000 OA
ATOM     23  H   UNL     1      -0.754   9.203  21.978  0.00  0.00    +0.000 HD
BRANCH  21  24
ATOM     24  C   UNL     1      -1.360  11.732  21.674  0.00  0.00    +0.000 A 
ATOM     25  C   UNL     1      -1.913  12.122  20.447  0.00  0.00    +0.000 A 
ATOM     26  C   UNL     1      -3.162  12.742  20.400  0.00  0.00    +0.000 A 
ATOM     27  C   UNL     1      -3.863  12.991  21.581  0.00  0.00    +0.000 A 
ATOM     28  C   UNL     1      -3.323  12.619  22.822  0.00  0.00    +0.000 A 
ATOM     29  C   UNL     1      -2.067  11.980  22.859  0.00  0.00    +0.000 A 
BRANCH  28  30
ATOM     30  C   UNL     1      -4.055  12.918  24.109  0.00  0.00    +0.000 C 
ATOM     31  F   UNL     1      -4.280  11.817  24.879  0.00  0.00    +0.000 F 
ATOM     32  F   UNL     1      -3.375  13.795  24.897  0.00  0.00    +0.000 F 
ATOM     33  F   UNL     1      -5.276  13.479  23.891  0.00  0.00    +0.000 F 
ENDBRANCH  28  30
ENDBRANCH  21  24
ENDBRANCH  19  20
ENDBRANCH   2  19
TORSDOF 8
ENDMDL
