MODEL 1
REMARK VINA RESULT:      -8.1      0.000      0.000
REMARK  Name = 
REMARK  2 active torsions:
REMARK  status: ('A' for Active; 'I' for Inactive)
REMARK    1  A    between atoms: C_2  and  C_14
REMARK    2  A    between atoms: C_17  and  N_18
REMARK                            x       y       z     vdW  Elec       q    Type
REMARK                         _______ _______ _______ _____ _____    ______ ____
ROOT
ATOM      1  O   UNL     1       1.722   8.914  19.050  0.00  0.00    +0.000 OA
ATOM      2  C   UNL     1       1.388   8.609  20.187  0.00  0.00    +0.000 C 
ATOM      3  N   UNL     1       1.517   7.382  20.799  0.00  0.00    +0.000 N 
ATOM      4  C   UNL     1       2.129   6.330  20.179  0.00  0.00    +0.000 A 
ATOM      5  N   UNL     1       2.871   6.323  19.107  0.00  0.00    +0.000 NA
ATOM      6  C   UNL     1       3.218   5.019  18.781  0.00  0.00    +0.000 A 
ATOM      7  C   UNL     1       3.985   4.567  17.686  0.00  0.00    +0.000 A 
ATOM      8 CL   UNL     1       4.625   5.768  16.651  0.00  0.00    +0.000 Cl
ATOM      9  C   UNL     1       4.208   3.210  17.458  0.00  0.00    +0.000 A 
ATOM     10  C   UNL     1       3.672   2.271  18.331  0.00  0.00    +0.000 A 
ATOM     11  C   UNL     1       2.931   2.671  19.448  0.00  0.00    +0.000 A 
ATOM     12  C   UNL     1       2.718   4.047  19.657  0.00  0.00    +0.000 A 
ATOM     13  S   UNL     1       1.864   4.828  20.937  0.00  0.00    +0.000 S 
ATOM     14  H   UNL     1       1.023   7.177  21.652  0.00  0.00    +0.000 HD
ENDROOT
BRANCH   2  15
ATOM     15  C   UNL     1       0.675   9.623  21.004  0.00  0.00    +0.000 A 
ATOM     16  C   UNL     1       0.705  10.956  20.603  0.00  0.00    +0.000 A 
ATOM     17  C   UNL     1      -0.023  11.916  21.315  0.00  0.00    +0.000 A 
ATOM     18  C   UNL     1      -0.791  11.580  22.439  0.00  0.00    +0.000 A 
ATOM     19  C   UNL     1      -0.759  10.241  22.854  0.00  0.00    +0.000 A 
ATOM     20  C   UNL     1      -0.038   9.268  22.153  0.00  0.00    +0.000 A 
BRANCH  18  21
ATOM     21  N   UNL     1      -1.598  12.519  23.049  0.00  0.00    +0.000 N 
ATOM     22  C   UNL     1      -1.186  13.923  23.199  0.00  0.00    +0.000 C 
ATOM     23  C   UNL     1      -1.746  14.458  24.527  0.00  0.00    +0.000 C 
ATOM     24  O   UNL     1      -3.175  14.318  24.595  0.00  0.00    +0.000 OA
ATOM     25  C   UNL     1      -3.549  12.933  24.468  0.00  0.00    +0.000 C 
ATOM     26  C   UNL     1      -3.057  12.332  23.141  0.00  0.00    +0.000 C 
ENDBRANCH  18  21
ENDBRANCH   2  15
TORSDOF 2
ENDMDL
MODEL 2
REMARK VINA RESULT:      -8.0      0.427      1.051
REMARK  Name = 
REMARK  2 active torsions:
REMARK  status: ('A' for Active; 'I' for Inactive)
REMARK    1  A    between atoms: C_2  and  C_14
REMARK    2  A    between atoms: C_17  and  N_18
REMARK                            x       y       z     vdW  Elec       q    Type
REMARK                         _______ _______ _______ _____ _____    ______ ____
ROOT
ATOM      1  O   UNL     1       1.705   8.875  18.980  0.00  0.00    +0.000 OA
ATOM      2  C   UNL     1       1.371   8.578  20.119  0.00  0.00    +0.000 C 
ATOM      3  N   UNL     1       1.507   7.357  20.742  0.00  0.00    +0.000 N 
ATOM      4  C   UNL     1       2.128   6.304  20.133  0.00  0.00    +0.000 A 
ATOM      5  N   UNL     1       2.873   6.294  19.063  0.00  0.00    +0.000 NA
ATOM      6  C   UNL     1       3.231   4.989  18.749  0.00  0.00    +0.000 A 
ATOM      7  C   UNL     1       4.004   4.533  17.660  0.00  0.00    +0.000 A 
ATOM      8 CL   UNL     1       4.638   5.730  16.617  0.00  0.00    +0.000 Cl
ATOM      9  C   UNL     1       4.238   3.177  17.444  0.00  0.00    +0.000 A 
ATOM     10  C   UNL     1       3.707   2.241  18.324  0.00  0.00    +0.000 A 
ATOM     11  C   UNL     1       2.960   2.645  19.436  0.00  0.00    +0.000 A 
ATOM     12  C   UNL     1       2.736   4.021  19.632  0.00  0.00    +0.000 A 
ATOM     13  S   UNL     1       1.872   4.807  20.903  0.00  0.00    +0.000 S 
ATOM     14  H   UNL     1       1.012   7.156  21.596  0.00  0.00    +0.000 HD
ENDROOT
BRANCH   2  15
ATOM     15  C   UNL     1       0.648   9.594  20.926  0.00  0.00    +0.000 A 
ATOM     16  C   UNL     1       0.469  10.871  20.400  0.00  0.00    +0.000 A 
ATOM     17  C   UNL     1      -0.275  11.820  21.110  0.00  0.00    +0.000 A 
ATOM     18  C   UNL     1      -0.853  11.528  22.353  0.00  0.00    +0.000 A 
ATOM     19  C   UNL     1      -0.611  10.254  22.885  0.00  0.00    +0.000 A 
ATOM     20  C   UNL     1       0.129   9.293  22.188  0.00  0.00    +0.000 A 
BRANCH  18  21
ATOM     21  N   UNL     1      -1.685  12.437  22.975  0.00  0.00    +0.000 N 
ATOM     22  C   UNL     1      -2.932  12.028  23.638  0.00  0.00    +0.000 C 
ATOM     23  C   UNL     1      -3.974  13.143  23.452  0.00  0.00    +0.000 C 
ATOM     24  O   UNL     1      -3.499  14.403  23.955  0.00  0.00    +0.000 OA
ATOM     25  C   UNL     1      -2.291  14.791  23.275  0.00  0.00    +0.000 C 
ATOM     26  C   UNL     1      -1.181  13.740  23.447  0.00  0.00    +0.000 C 
ENDBRANCH  18  21
ENDBRANCH   2  15
TORSDOF 2
ENDMDL
MODEL 3
REMARK VINA RESULT:      -7.7      1.703      2.108
REMARK  Name = 
REMARK  2 active torsions:
REMARK  status: ('A' for Active; 'I' for Inactive)
REMARK    1  A    between atoms: C_2  and  C_14
REMARK    2  A    between atoms: C_17  and  N_18
REMARK                            x       y       z     vdW  Elec       q    Type
REMARK                         _______ _______ _______ _____ _____    ______ ____
ROOT
ATOM      1  O   UNL     1       1.209   6.935  21.259  0.00  0.00    +0.000 OA
ATOM      2  C   UNL     1       1.226   8.008  20.672  0.00  0.00    +0.000 C 
ATOM      3  N   UNL     1       1.858   8.306  19.485  0.00  0.00    +0.000 N 
ATOM      4  C   UNL     1       2.520   7.354  18.765  0.00  0.00    +0.000 A 
ATOM      5  N   UNL     1       2.485   6.056  18.886  0.00  0.00    +0.000 NA
ATOM      6  C   UNL     1       3.382   5.475  17.999  0.00  0.00    +0.000 A 
ATOM      7  C   UNL     1       3.674   4.105  17.825  0.00  0.00    +0.000 A 
ATOM      8 CL   UNL     1       2.778   3.003  18.778  0.00  0.00    +0.000 Cl
ATOM      9  C   UNL     1       4.645   3.672  16.925  0.00  0.00    +0.000 A 
ATOM     10  C   UNL     1       5.344   4.605  16.168  0.00  0.00    +0.000 A 
ATOM     11  C   UNL     1       5.068   5.972  16.282  0.00  0.00    +0.000 A 
ATOM     12  C   UNL     1       4.083   6.386  17.199  0.00  0.00    +0.000 A 
ATOM     13  S   UNL     1       3.528   7.983  17.545  0.00  0.00    +0.000 S 
ATOM     14  H   UNL     1       1.989   9.263  19.197  0.00  0.00    +0.000 HD
ENDROOT
BRANCH   2  15
ATOM     15  C   UNL     1       0.579   9.175  21.325  0.00  0.00    +0.000 A 
ATOM     16  C   UNL     1       0.628  10.415  20.693  0.00  0.00    +0.000 A 
ATOM     17  C   UNL     1      -0.039  11.511  21.252  0.00  0.00    +0.000 A 
ATOM     18  C   UNL     1      -0.765  11.404  22.447  0.00  0.00    +0.000 A 
ATOM     19  C   UNL     1      -0.752  10.159  23.091  0.00  0.00    +0.000 A 
ATOM     20  C   UNL     1      -0.091   9.054  22.545  0.00  0.00    +0.000 A 
BRANCH  18  21
ATOM     21  N   UNL     1      -1.517  12.464  22.912  0.00  0.00    +0.000 N 
ATOM     22  C   UNL     1      -0.990  13.837  22.954  0.00  0.00    +0.000 C 
ATOM     23  C   UNL     1      -1.572  14.547  24.187  0.00  0.00    +0.000 C 
ATOM     24  O   UNL     1      -3.010  14.535  24.177  0.00  0.00    +0.000 OA
ATOM     25  C   UNL     1      -3.499  13.181  24.159  0.00  0.00    +0.000 C 
ATOM     26  C   UNL     1      -2.990  12.411  22.929  0.00  0.00    +0.000 C 
ENDBRANCH  18  21
ENDBRANCH   2  15
TORSDOF 2
ENDMDL
MODEL 4
REMARK VINA RESULT:      -7.6      0.818      1.572
REMARK  Name = 
REMARK  2 active torsions:
REMARK  status: ('A' for Active; 'I' for Inactive)
REMARK    1  A    between atoms: C_2  and  C_14
REMARK    2  A    between atoms: C_17  and  N_18
REMARK                            x       y       z     vdW  Elec       q    Type
REMARK                         _______ _______ _______ _____ _____    ______ ____
ROOT
ATOM      1  O   UNL     1       1.440   9.490  18.697  0.00  0.00    +0.000 OA
ATOM      2  C   UNL     1       1.099   9.132  19.817  0.00  0.00    +0.000 C 
ATOM      3  N   UNL     1       1.364   7.928  20.430  0.00  0.00    +0.000 N 
ATOM      4  C   UNL     1       2.139   6.973  19.836  0.00  0.00    +0.000 A 
ATOM      5  N   UNL     1       2.922   7.076  18.799  0.00  0.00    +0.000 NA
ATOM      6  C   UNL     1       3.456   5.833  18.486  0.00  0.00    +0.000 A 
ATOM      7  C   UNL     1       4.326   5.498  17.426  0.00  0.00    +0.000 A 
ATOM      8 CL   UNL     1       4.846   6.784  16.426  0.00  0.00    +0.000 Cl
ATOM      9  C   UNL     1       4.739   4.186  17.203  0.00  0.00    +0.000 A 
ATOM     10  C   UNL     1       4.295   3.175  18.048  0.00  0.00    +0.000 A 
ATOM     11  C   UNL     1       3.457   3.462  19.131  0.00  0.00    +0.000 A 
ATOM     12  C   UNL     1       3.052   4.795  19.334  0.00  0.00    +0.000 A 
ATOM     13  S   UNL     1       2.043   5.442  20.575  0.00  0.00    +0.000 S 
ATOM     14  H   UNL     1       0.863   7.650  21.259  0.00  0.00    +0.000 HD
ENDROOT
BRANCH   2  15
ATOM     15  C   UNL     1       0.220  10.034  20.604  0.00  0.00    +0.000 A 
ATOM     16  C   UNL     1      -0.012   9.747  21.947  0.00  0.00    +0.000 A 
ATOM     17  C   UNL     1      -0.774  10.625  22.727  0.00  0.00    +0.000 A 
ATOM     18  C   UNL     1      -1.325  11.799  22.195  0.00  0.00    +0.000 A 
ATOM     19  C   UNL     1      -1.123  12.036  20.828  0.00  0.00    +0.000 A 
ATOM     20  C   UNL     1      -0.362  11.170  20.035  0.00  0.00    +0.000 A 
BRANCH  18  21
ATOM     21  N   UNL     1      -1.966  12.710  23.011  0.00  0.00    +0.000 N 
ATOM     22  C   UNL     1      -3.181  12.364  23.764  0.00  0.00    +0.000 C 
ATOM     23  C   UNL     1      -4.086  13.605  23.831  0.00  0.00    +0.000 C 
ATOM     24  O   UNL     1      -3.405  14.727  24.417  0.00  0.00    +0.000 OA
ATOM     25  C   UNL     1      -2.233  15.059  23.648  0.00  0.00    +0.000 C 
ATOM     26  C   UNL     1      -1.255  13.875  23.567  0.00  0.00    +0.000 C 
ENDBRANCH  18  21
ENDBRANCH   2  15
TORSDOF 2
ENDMDL
MODEL 5
REMARK VINA RESULT:      -7.5      1.769      2.385
REMARK  Name = 
REMARK  2 active torsions:
REMARK  status: ('A' for Active; 'I' for Inactive)
REMARK    1  A    between atoms: C_2  and  C_14
REMARK    2  A    between atoms: C_17  and  N_18
REMARK                            x       y       z     vdW  Elec       q    Type
REMARK                         _______ _______ _______ _____ _____    ______ ____
ROOT
ATOM      1  O   UNL     1       1.238   7.011  21.302  0.00  0.00    +0.000 OA
ATOM      2  C   UNL     1       1.193   8.072  20.695  0.00  0.00    +0.000 C 
ATOM      3  N   UNL     1       1.785   8.374  19.488  0.00  0.00    +0.000 N 
ATOM      4  C   UNL     1       2.474   7.438  18.771  0.00  0.00    +0.000 A 
ATOM      5  N   UNL     1       2.500   6.143  18.917  0.00  0.00    +0.000 NA
ATOM      6  C   UNL     1       3.402   5.585  18.021  0.00  0.00    +0.000 A 
ATOM      7  C   UNL     1       3.752   4.227  17.866  0.00  0.00    +0.000 A 
ATOM      8 CL   UNL     1       2.927   3.105  18.859  0.00  0.00    +0.000 Cl
ATOM      9  C   UNL     1       4.722   3.819  16.953  0.00  0.00    +0.000 A 
ATOM     10  C   UNL     1       5.361   4.767  16.162  0.00  0.00    +0.000 A 
ATOM     11  C   UNL     1       5.026   6.122  16.257  0.00  0.00    +0.000 A 
ATOM     12  C   UNL     1       4.044   6.510  17.188  0.00  0.00    +0.000 A 
ATOM     13  S   UNL     1       3.425   8.087  17.517  0.00  0.00    +0.000 S 
ATOM     14  H   UNL     1       1.867   9.330  19.179  0.00  0.00    +0.000 HD
ENDROOT
BRANCH   2  15
ATOM     15  C   UNL     1       0.509   9.222  21.340  0.00  0.00    +0.000 A 
ATOM     16  C   UNL     1       0.453  10.439  20.665  0.00  0.00    +0.000 A 
ATOM     17  C   UNL     1      -0.253  11.513  21.220  0.00  0.00    +0.000 A 
ATOM     18  C   UNL     1      -0.912  11.407  22.453  0.00  0.00    +0.000 A 
ATOM     19  C   UNL     1      -0.793  10.189  23.137  0.00  0.00    +0.000 A 
ATOM     20  C   UNL     1      -0.093   9.105  22.595  0.00  0.00    +0.000 A 
BRANCH  18  21
ATOM     21  N   UNL     1      -1.704  12.437  22.920  0.00  0.00    +0.000 N 
ATOM     22  C   UNL     1      -3.008  12.193  23.555  0.00  0.00    +0.000 C 
ATOM     23  C   UNL     1      -3.955  13.346  23.186  0.00  0.00    +0.000 C 
ATOM     24  O   UNL     1      -3.413  14.622  23.567  0.00  0.00    +0.000 OA
ATOM     25  C   UNL     1      -2.150  14.844  22.914  0.00  0.00    +0.000 C 
ATOM     26  C   UNL     1      -1.129  13.750  23.267  0.00  0.00    +0.000 C 
ENDBRANCH  18  21
ENDBRANCH   2  15
TORSDOF 2
ENDMDL
MODEL 6
REMARK VINA RESULT:      -7.5      4.103      9.935
REMARK  Name = 
REMARK  2 active torsions:
REMARK  status: ('A' for Active; 'I' for Inactive)
REMARK    1  A    between atoms: C_2  and  C_14
REMARK    2  A    between atoms: C_17  and  N_18
REMARK                            x       y       z     vdW  Elec       q    Type
REMARK                         _______ _______ _______ _____ _____    ______ ____
ROOT
ATOM      1  O   UNL     1       1.254   9.143  20.558  0.00  0.00    +0.000 OA
ATOM      2  C   UNL     1       1.242   8.877  19.364  0.00  0.00    +0.000 C 
ATOM      3  N   UNL     1       0.335   9.301  18.418  0.00  0.00    +0.000 N 
ATOM      4  C   UNL     1      -0.674  10.168  18.728  0.00  0.00    +0.000 A 
ATOM      5  N   UNL     1      -0.829  10.907  19.791  0.00  0.00    +0.000 NA
ATOM      6  C   UNL     1      -2.043  11.577  19.728  0.00  0.00    +0.000 A 
ATOM      7  C   UNL     1      -2.608  12.452  20.679  0.00  0.00    +0.000 A 
ATOM      8 CL   UNL     1      -1.666  12.787  22.067  0.00  0.00    +0.000 Cl
ATOM      9  C   UNL     1      -3.870  13.014  20.500  0.00  0.00    +0.000 A 
ATOM     10  C   UNL     1      -4.596  12.717  19.353  0.00  0.00    +0.000 A 
ATOM     11  C   UNL     1      -4.066  11.880  18.366  0.00  0.00    +0.000 A 
ATOM     12  C   UNL     1      -2.789  11.323  18.569  0.00  0.00    +0.000 A 
ATOM     13  S   UNL     1      -1.886  10.277  17.536  0.00  0.00    +0.000 S 
ATOM     14  H   UNL     1       0.288   8.859  17.514  0.00  0.00    +0.000 HD
ENDROOT
BRANCH   2  15
ATOM     15  C   UNL     1       2.252   7.918  18.849  0.00  0.00    +0.000 A 
ATOM     16  C   UNL     1       2.947   8.230  17.683  0.00  0.00    +0.000 A 
ATOM     17  C   UNL     1       3.956   7.376  17.222  0.00  0.00    +0.000 A 
ATOM     18  C   UNL     1       4.296   6.198  17.901  0.00  0.00    +0.000 A 
ATOM     19  C   UNL     1       3.544   5.879  19.041  0.00  0.00    +0.000 A 
ATOM     20  C   UNL     1       2.533   6.722  19.516  0.00  0.00    +0.000 A 
BRANCH  18  21
ATOM     21  N   UNL     1       5.376   5.438  17.499  0.00  0.00    +0.000 N 
ATOM     22  C   UNL     1       6.255   4.758  18.462  0.00  0.00    +0.000 C 
ATOM     23  C   UNL     1       7.689   4.767  17.907  0.00  0.00    +0.000 C 
ATOM     24  O   UNL     1       7.759   4.157  16.608  0.00  0.00    +0.000 OA
ATOM     25  C   UNL     1       6.908   4.855  15.680  0.00  0.00    +0.000 C 
ATOM     26  C   UNL     1       5.442   4.856  16.145  0.00  0.00    +0.000 C 
ENDBRANCH  18  21
ENDBRANCH   2  15
TORSDOF 2
ENDMDL
MODEL 7
REMARK VINA RESULT:      -7.5      0.663      1.086
REMARK  Name = 
REMARK  2 active torsions:
REMARK  status: ('A' for Active; 'I' for Inactive)
REMARK    1  A    between atoms: C_2  and  C_14
REMARK    2  A    between atoms: C_17  and  N_18
REMARK                            x       y       z     vdW  Elec       q    Type
REMARK                         _______ _______ _______ _____ _____    ______ ____
ROOT
ATOM      1  O   UNL     1       1.489   9.350  18.875  0.00  0.00    +0.000 OA
ATOM      2  C   UNL     1       1.077   9.002  19.974  0.00  0.00    +0.000 C 
ATOM      3  N   UNL     1       1.259   7.785  20.592  0.00  0.00    +0.000 N 
ATOM      4  C   UNL     1       2.024   6.801  20.032  0.00  0.00    +0.000 A 
ATOM      5  N   UNL     1       2.864   6.876  19.038  0.00  0.00    +0.000 NA
ATOM      6  C   UNL     1       3.361   5.614  18.744  0.00  0.00    +0.000 A 
ATOM      7  C   UNL     1       4.269   5.247  17.728  0.00  0.00    +0.000 A 
ATOM      8 CL   UNL     1       4.893   6.515  16.764  0.00  0.00    +0.000 Cl
ATOM      9  C   UNL     1       4.639   3.920  17.518  0.00  0.00    +0.000 A 
ATOM     10  C   UNL     1       4.111   2.925  18.332  0.00  0.00    +0.000 A 
ATOM     11  C   UNL     1       3.231   3.242  19.373  0.00  0.00    +0.000 A 
ATOM     12  C   UNL     1       2.871   4.589  19.564  0.00  0.00    +0.000 A 
ATOM     13  S   UNL     1       1.827   5.273  20.756  0.00  0.00    +0.000 S 
ATOM     14  H   UNL     1       0.705   7.525  21.393  0.00  0.00    +0.000 HD
ENDROOT
BRANCH   2  15
ATOM     15  C   UNL     1       0.196   9.936  20.721  0.00  0.00    +0.000 A 
ATOM     16  C   UNL     1       0.083   9.798  22.102  0.00  0.00    +0.000 A 
ATOM     17  C   UNL     1      -0.680  10.714  22.835  0.00  0.00    +0.000 A 
ATOM     18  C   UNL     1      -1.349  11.781  22.218  0.00  0.00    +0.000 A 
ATOM     19  C   UNL     1      -1.264  11.864  20.821  0.00  0.00    +0.000 A 
ATOM     20  C   UNL     1      -0.504  10.958  20.074  0.00  0.00    +0.000 A 
BRANCH  18  21
ATOM     21  N   UNL     1      -1.991  12.742  22.973  0.00  0.00    +0.000 N 
ATOM     22  C   UNL     1      -1.453  14.102  23.128  0.00  0.00    +0.000 C 
ATOM     23  C   UNL     1      -1.789  14.603  24.542  0.00  0.00    +0.000 C 
ATOM     24  O   UNL     1      -3.203  14.563  24.798  0.00  0.00    +0.000 OA
ATOM     25  C   UNL     1      -3.699  13.219  24.662  0.00  0.00    +0.000 C 
ATOM     26  C   UNL     1      -3.436  12.657  23.255  0.00  0.00    +0.000 C 
ENDBRANCH  18  21
ENDBRANCH   2  15
TORSDOF 2
ENDMDL
MODEL 8
REMARK VINA RESULT:      -7.5      3.410      9.752
REMARK  Name = 
REMARK  2 active torsions:
REMARK  status: ('A' for Active; 'I' for Inactive)
REMARK    1  A    between atoms: C_2  and  C_14
REMARK    2  A    between atoms: C_17  and  N_18
REMARK                            x       y       z     vdW  Elec       q    Type
REMARK                         _______ _______ _______ _____ _____    ______ ____
ROOT
ATOM      1  O   UNL     1       1.629  10.476  18.859  0.00  0.00    +0.000 OA
ATOM      2  C   UNL     1       1.298   9.564  19.605  0.00  0.00    +0.000 C 
ATOM      3  N   UNL     1       0.501   9.644  20.725  0.00  0.00    +0.000 N 
ATOM      4  C   UNL     1      -0.089  10.815  21.107  0.00  0.00    +0.000 A 
ATOM      5  N   UNL     1      -0.230  11.923  20.435  0.00  0.00    +0.000 NA
ATOM      6  C   UNL     1      -0.818  12.891  21.239  0.00  0.00    +0.000 A 
ATOM      7  C   UNL     1      -1.122  14.230  20.913  0.00  0.00    +0.000 A 
ATOM      8 CL   UNL     1      -0.784  14.725  19.311  0.00  0.00    +0.000 Cl
ATOM      9  C   UNL     1      -1.667  15.107  21.849  0.00  0.00    +0.000 A 
ATOM     10  C   UNL     1      -1.930  14.657  23.138  0.00  0.00    +0.000 A 
ATOM     11  C   UNL     1      -1.675  13.329  23.500  0.00  0.00    +0.000 A 
ATOM     12  C   UNL     1      -1.123  12.463  22.537  0.00  0.00    +0.000 A 
ATOM     13  S   UNL     1      -0.717  10.793  22.689  0.00  0.00    +0.000 S 
ATOM     14  H   UNL     1       0.463   8.884  21.386  0.00  0.00    +0.000 HD
ENDROOT
BRANCH   2  15
ATOM     15  C   UNL     1       1.871   8.216  19.362  0.00  0.00    +0.000 A 
ATOM     16  C   UNL     1       1.767   7.249  20.359  0.00  0.00    +0.000 A 
ATOM     17  C   UNL     1       2.232   5.950  20.123  0.00  0.00    +0.000 A 
ATOM     18  C   UNL     1       2.811   5.582  18.900  0.00  0.00    +0.000 A 
ATOM     19  C   UNL     1       2.954   6.588  17.934  0.00  0.00    +0.000 A 
ATOM     20  C   UNL     1       2.493   7.891  18.153  0.00  0.00    +0.000 A 
BRANCH  18  21
ATOM     21  N   UNL     1       3.147   4.268  18.646  0.00  0.00    +0.000 N 
ATOM     22  C   UNL     1       2.669   3.556  17.451  0.00  0.00    +0.000 C 
ATOM     23  C   UNL     1       2.434   2.082  17.820  0.00  0.00    +0.000 C 
ATOM     24  O   UNL     1       3.621   1.473  18.356  0.00  0.00    +0.000 OA
ATOM     25  C   UNL     1       4.054   2.175  19.536  0.00  0.00    +0.000 C 
ATOM     26  C   UNL     1       4.349   3.655  19.240  0.00  0.00    +0.000 C 
ENDBRANCH  18  21
ENDBRANCH   2  15
TORSDOF 2
ENDMDL
MODEL 9
REMARK VINA RESULT:      -7.4      1.552      1.844
REMARK  Name = 
REMARK  2 active torsions:
REMARK  status: ('A' for Active; 'I' for Inactive)
REMARK    1  A    between atoms: C_2  and  C_14
REMARK    2  A    between atoms: C_17  and  N_18
REMARK                            x       y       z     vdW  Elec       q    Type
REMARK                         _______ _______ _______ _____ _____    ______ ____
ROOT
ATOM      1  O   UNL     1       1.760   9.436  17.606  0.00  0.00    +0.000 OA
ATOM      2  C   UNL     1       1.476   9.136  18.757  0.00  0.00    +0.000 C 
ATOM      3  N   UNL     1       1.815   7.985  19.434  0.00  0.00    +0.000 N 
ATOM      4  C   UNL     1       2.609   7.027  18.870  0.00  0.00    +0.000 A 
ATOM      5  N   UNL     1       3.349   7.097  17.799  0.00  0.00    +0.000 NA
ATOM      6  C   UNL     1       3.926   5.860  17.543  0.00  0.00    +0.000 A 
ATOM      7  C   UNL     1       4.770   5.494  16.473  0.00  0.00    +0.000 A 
ATOM      8 CL   UNL     1       5.197   6.734  15.376  0.00  0.00    +0.000 Cl
ATOM      9  C   UNL     1       5.232   4.189  16.317  0.00  0.00    +0.000 A 
ATOM     10  C   UNL     1       4.864   3.216  17.238  0.00  0.00    +0.000 A 
ATOM     11  C   UNL     1       4.053   3.536  18.333  0.00  0.00    +0.000 A 
ATOM     12  C   UNL     1       3.598   4.861  18.469  0.00  0.00    +0.000 A 
ATOM     13  S   UNL     1       2.607   5.544  19.706  0.00  0.00    +0.000 S 
ATOM     14  H   UNL     1       1.356   7.740  20.297  0.00  0.00    +0.000 HD
ENDROOT
BRANCH   2  15
ATOM     15  C   UNL     1       0.587  10.049  19.521  0.00  0.00    +0.000 A 
ATOM     16  C   UNL     1      -0.431  10.720  18.847  0.00  0.00    +0.000 A 
ATOM     17  C   UNL     1      -1.327  11.524  19.559  0.00  0.00    +0.000 A 
ATOM     18  C   UNL     1      -1.235  11.685  20.949  0.00  0.00    +0.000 A 
ATOM     19  C   UNL     1      -0.168  11.043  21.595  0.00  0.00    +0.000 A 
ATOM     20  C   UNL     1       0.735  10.234  20.898  0.00  0.00    +0.000 A 
BRANCH  18  21
ATOM     21  N   UNL     1      -2.202  12.381  21.644  0.00  0.00    +0.000 N 
ATOM     22  C   UNL     1      -2.024  12.772  23.051  0.00  0.00    +0.000 C 
ATOM     23  C   UNL     1      -3.390  12.706  23.754  0.00  0.00    +0.000 C 
ATOM     24  O   UNL     1      -4.365  13.532  23.098  0.00  0.00    +0.000 OA
ATOM     25  C   UNL     1      -4.537  13.115  21.731  0.00  0.00    +0.000 C 
ATOM     26  C   UNL     1      -3.217  13.191  20.945  0.00  0.00    +0.000 C 
ENDBRANCH  18  21
ENDBRANCH   2  15
TORSDOF 2
ENDMDL
