MODEL 1
REMARK VINA RESULT:      -9.1      0.000      0.000
REMARK  Name = 
REMARK  5 active torsions:
REMARK  status: ('A' for Active; 'I' for Inactive)
REMARK    1  A    between atoms: C_1  and  C_2
REMARK    2  A    between atoms: C_5  and  C_6
REMARK    3  A    between atoms: C_12  and  C_13
REMARK    4  A    between atoms: C_13  and  C_15
REMARK    5  A    between atoms: C_21  and  C_23
REMARK                            x       y       z     vdW  Elec       q    Type
REMARK                         _______ _______ _______ _____ _____    ______ ____
ROOT
ATOM      1  C   UNL     1       3.984   5.602  17.835  0.00  0.00    +0.000 A 
ATOM      2  C   UNL     1       3.798   4.560  18.751  0.00  0.00    +0.000 A 
ATOM      3  C   UNL     1       2.922   4.698  19.827  0.00  0.00    +0.000 A 
ATOM      4  C   UNL     1       2.219   5.890  20.021  0.00  0.00    +0.000 A 
ATOM      5  F   UNL     1       1.346   5.943  21.036  0.00  0.00    +0.000 F 
ATOM      6  C   UNL     1       2.404   6.991  19.160  0.00  0.00    +0.000 A 
ATOM      7  C   UNL     1       1.895   8.339  19.083  0.00  0.00    +0.000 A 
ATOM      8  C   UNL     1       2.478   8.898  17.951  0.00  0.00    +0.000 A 
ATOM      9  N   UNL     1       3.301   7.982  17.365  0.00  0.00    +0.000 N 
ATOM     10  C   UNL     1       3.286   6.805  18.081  0.00  0.00    +0.000 A 
ATOM     11  H   UNL     1       3.865   8.126  16.534  0.00  0.00    +0.000 HD
ENDROOT
BRANCH   1  16
ATOM     12  C   UNL     1       6.130   3.739  13.753  0.00  0.00    +0.000 C 
ATOM     13  C   UNL     1       5.789   4.693  14.831  0.00  0.00    +0.000 A 
ATOM     14  N   UNL     1       6.198   5.930  14.985  0.00  0.00    +0.000 NA
ATOM     15  N   UNL     1       5.601   6.434  16.120  0.00  0.00    +0.000 NA
ATOM     16  C   UNL     1       4.833   5.495  16.653  0.00  0.00    +0.000 A 
ATOM     17  N   UNL     1       4.944   4.379  15.859  0.00  0.00    +0.000 N 
ATOM     18  H   UNL     1       4.469   3.501  15.992  0.00  0.00    +0.000 HD
ENDBRANCH   1  16
BRANCH   7  19
ATOM     19  C   UNL     1       0.980   9.129  19.912  0.00  0.00    +0.000 C 
ATOM     20  O   UNL     1       1.046   9.079  21.143  0.00  0.00    +0.000 OA
BRANCH  19  21
ATOM     21  C   UNL     1      -0.111  10.059  19.374  0.00  0.00    +0.000 C 
ATOM     22  O   UNL     1      -1.216   9.587  19.134  0.00  0.00    +0.000 OA
ATOM     23  N   UNL     1       0.191  11.425  19.304  0.00  0.00    +0.000 N 
ATOM     24  C   UNL     1       1.493  12.014  19.666  0.00  0.00    +0.000 C 
ATOM     25  C   UNL     1       1.852  13.198  18.752  0.00  0.00    +0.000 C 
ATOM     26  N   UNL     1       0.739  14.152  18.648  0.00  0.00    +0.000 N 
ATOM     27  C   UNL     1       0.989  15.499  18.907  0.00  0.00    +0.000 C 
ATOM     28  O   UNL     1       2.122  15.913  19.155  0.00  0.00    +0.000 OA
ATOM     29  C   UNL     1      -0.513  13.517  18.194  0.00  0.00    +0.000 C 
ATOM     30  C   UNL     1      -0.907  12.395  19.166  0.00  0.00    +0.000 C 
BRANCH  27  31
ATOM     31  C   UNL     1      -0.101  16.511  18.871  0.00  0.00    +0.000 A 
ATOM     32  C   UNL     1      -1.067  16.616  19.879  0.00  0.00    +0.000 A 
ATOM     33  C   UNL     1      -2.122  17.521  19.750  0.00  0.00    +0.000 A 
ATOM     34  C   UNL     1      -2.164  18.395  18.666  0.00  0.00    +0.000 A 
ATOM     35  C   UNL     1      -1.144  18.377  17.716  0.00  0.00    +0.000 A 
ATOM     36  C   UNL     1      -0.118  17.432  17.816  0.00  0.00    +0.000 A 
ENDBRANCH  27  31
ENDBRANCH  19  21
ENDBRANCH   7  19
TORSDOF 4
ENDMDL
MODEL 2
REMARK VINA RESULT:      -8.2      3.591     10.219
REMARK  Name = 
REMARK  5 active torsions:
REMARK  status: ('A' for Active; 'I' for Inactive)
REMARK    1  A    between atoms: C_1  and  C_2
REMARK    2  A    between atoms: C_5  and  C_6
REMARK    3  A    between atoms: C_12  and  C_13
REMARK    4  A    between atoms: C_13  and  C_15
REMARK    5  A    between atoms: C_21  and  C_23
REMARK                            x       y       z     vdW  Elec       q    Type
REMARK                         _______ _______ _______ _____ _____    ______ ____
ROOT
ATOM      1  C   UNL     1       0.718  10.435  19.852  0.00  0.00    +0.000 A 
ATOM      2  C   UNL     1       1.286  10.682  18.596  0.00  0.00    +0.000 A 
ATOM      3  C   UNL     1       1.923   9.665  17.885  0.00  0.00    +0.000 A 
ATOM      4  C   UNL     1       2.020   8.378  18.420  0.00  0.00    +0.000 A 
ATOM      5  F   UNL     1       2.589   7.428  17.665  0.00  0.00    +0.000 F 
ATOM      6  C   UNL     1       1.511   8.083  19.702  0.00  0.00    +0.000 A 
ATOM      7  C   UNL     1       1.470   6.920  20.554  0.00  0.00    +0.000 A 
ATOM      8  C   UNL     1       0.785   7.316  21.698  0.00  0.00    +0.000 A 
ATOM      9  N   UNL     1       0.432   8.628  21.585  0.00  0.00    +0.000 N 
ATOM     10  C   UNL     1       0.865   9.133  20.378  0.00  0.00    +0.000 A 
ATOM     11  H   UNL     1      -0.063   9.179  22.278  0.00  0.00    +0.000 HD
ENDROOT
BRANCH   1  16
ATOM     12  C   UNL     1      -2.818  13.690  21.130  0.00  0.00    +0.000 C 
ATOM     13  C   UNL     1      -1.584  12.879  21.207  0.00  0.00    +0.000 A 
ATOM     14  N   UNL     1      -0.719  12.801  22.191  0.00  0.00    +0.000 NA
ATOM     15  N   UNL     1       0.257  11.900  21.823  0.00  0.00    +0.000 NA
ATOM     16  C   UNL     1      -0.020  11.437  20.614  0.00  0.00    +0.000 A 
ATOM     17  N   UNL     1      -1.177  12.051  20.198  0.00  0.00    +0.000 N 
ATOM     18  H   UNL     1      -1.655  11.898  19.325  0.00  0.00    +0.000 HD
ENDBRANCH   1  16
BRANCH   7  19
ATOM     19  C   UNL     1       1.982   5.552  20.433  0.00  0.00    +0.000 C 
ATOM     20  O   UNL     1       2.395   4.947  21.425  0.00  0.00    +0.000 OA
BRANCH  19  21
ATOM     21  C   UNL     1       2.062   4.757  19.127  0.00  0.00    +0.000 C 
ATOM     22  O   UNL     1       1.062   4.164  18.741  0.00  0.00    +0.000 OA
ATOM     23  N   UNL     1       3.249   4.857  18.389  0.00  0.00    +0.000 N 
ATOM     24  C   UNL     1       4.431   5.634  18.807  0.00  0.00    +0.000 C 
ATOM     25  C   UNL     1       5.739   4.940  18.391  0.00  0.00    +0.000 C 
ATOM     26  N   UNL     1       5.713   4.552  16.973  0.00  0.00    +0.000 N 
ATOM     27  C   UNL     1       6.769   4.948  16.153  0.00  0.00    +0.000 C 
ATOM     28  O   UNL     1       7.744   5.554  16.598  0.00  0.00    +0.000 OA
ATOM     29  C   UNL     1       4.554   3.701  16.640  0.00  0.00    +0.000 C 
ATOM     30  C   UNL     1       3.252   4.442  16.978  0.00  0.00    +0.000 C 
BRANCH  27  31
ATOM     31  C   UNL     1       6.780   4.633  14.699  0.00  0.00    +0.000 A 
ATOM     32  C   UNL     1       5.900   3.713  14.119  0.00  0.00    +0.000 A 
ATOM     33  C   UNL     1       6.015   3.386  12.766  0.00  0.00    +0.000 A 
ATOM     34  C   UNL     1       6.940   4.050  11.964  0.00  0.00    +0.000 A 
ATOM     35  C   UNL     1       7.742   5.052  12.508  0.00  0.00    +0.000 A 
ATOM     36  C   UNL     1       7.667   5.338  13.874  0.00  0.00    +0.000 A 
ENDBRANCH  27  31
ENDBRANCH  19  21
ENDBRANCH   7  19
TORSDOF 4
ENDMDL
MODEL 3
REMARK VINA RESULT:      -8.0      2.136      2.760
REMARK  Name = 
REMARK  5 active torsions:
REMARK  status: ('A' for Active; 'I' for Inactive)
REMARK    1  A    between atoms: C_1  and  C_2
REMARK    2  A    between atoms: C_5  and  C_6
REMARK    3  A    between atoms: C_12  and  C_13
REMARK    4  A    between atoms: C_13  and  C_15
REMARK    5  A    between atoms: C_21  and  C_23
REMARK                            x       y       z     vdW  Elec       q    Type
REMARK                         _______ _______ _______ _____ _____    ______ ____
ROOT
ATOM      1  C   UNL     1       3.440   6.288  18.639  0.00  0.00    +0.000 A 
ATOM      2  C   UNL     1       3.700   6.983  17.451  0.00  0.00    +0.000 A 
ATOM      3  C   UNL     1       3.110   8.221  17.202  0.00  0.00    +0.000 A 
ATOM      4  C   UNL     1       2.235   8.790  18.129  0.00  0.00    +0.000 A 
ATOM      5  F   UNL     1       1.747  10.009  17.864  0.00  0.00    +0.000 F 
ATOM      6  C   UNL     1       1.897   8.114  19.320  0.00  0.00    +0.000 A 
ATOM      7  C   UNL     1       1.032   8.372  20.445  0.00  0.00    +0.000 A 
ATOM      8  C   UNL     1       1.189   7.286  21.299  0.00  0.00    +0.000 A 
ATOM      9  N   UNL     1       2.074   6.404  20.753  0.00  0.00    +0.000 N 
ATOM     10  C   UNL     1       2.524   6.874  19.539  0.00  0.00    +0.000 A 
ATOM     11  H   UNL     1       2.363   5.518  21.153  0.00  0.00    +0.000 HD
ENDROOT
BRANCH   1  16
ATOM     12  C   UNL     1       4.012   1.482  19.787  0.00  0.00    +0.000 C 
ATOM     13  C   UNL     1       4.356   2.890  19.489  0.00  0.00    +0.000 A 
ATOM     14  N   UNL     1       5.545   3.434  19.387  0.00  0.00    +0.000 NA
ATOM     15  N   UNL     1       5.374   4.765  19.073  0.00  0.00    +0.000 NA
ATOM     16  C   UNL     1       4.078   5.022  18.989  0.00  0.00    +0.000 A 
ATOM     17  N   UNL     1       3.412   3.851  19.258  0.00  0.00    +0.000 N 
ATOM     18  H   UNL     1       2.414   3.716  19.258  0.00  0.00    +0.000 HD
ENDBRANCH   1  16
BRANCH   7  19
ATOM     19  C   UNL     1       0.110   9.459  20.790  0.00  0.00    +0.000 C 
ATOM     20  O   UNL     1      -0.177   9.687  21.968  0.00  0.00    +0.000 OA
BRANCH  19  21
ATOM     21  C   UNL     1      -0.570  10.388  19.782  0.00  0.00    +0.000 C 
ATOM     22  O   UNL     1      -1.605  10.012  19.246  0.00  0.00    +0.000 OA
ATOM     23  N   UNL     1      -0.025  11.669  19.624  0.00  0.00    +0.000 N 
ATOM     24  C   UNL     1       1.176  12.160  20.325  0.00  0.00    +0.000 C 
ATOM     25  C   UNL     1       2.011  13.092  19.430  0.00  0.00    +0.000 C 
ATOM     26  N   UNL     1       1.175  14.133  18.813  0.00  0.00    +0.000 N 
ATOM     27  C   UNL     1       1.564  15.466  18.946  0.00  0.00    +0.000 C 
ATOM     28  O   UNL     1       2.613  15.783  19.507  0.00  0.00    +0.000 OA
ATOM     29  C   UNL     1       0.042  13.573  18.052  0.00  0.00    +0.000 C 
ATOM     30  C   UNL     1      -0.832  12.716  18.979  0.00  0.00    +0.000 C 
BRANCH  27  31
ATOM     31  C   UNL     1       0.738  16.572  18.391  0.00  0.00    +0.000 A 
ATOM     32  C   UNL     1      -0.573  16.820  18.812  0.00  0.00    +0.000 A 
ATOM     33  C   UNL     1      -1.336  17.812  18.193  0.00  0.00    +0.000 A 
ATOM     34  C   UNL     1      -0.761  18.629  17.221  0.00  0.00    +0.000 A 
ATOM     35  C   UNL     1       0.580  18.465  16.878  0.00  0.00    +0.000 A 
ATOM     36  C   UNL     1       1.326  17.435  17.457  0.00  0.00    +0.000 A 
ENDBRANCH  27  31
ENDBRANCH  19  21
ENDBRANCH   7  19
TORSDOF 4
ENDMDL
MODEL 4
REMARK VINA RESULT:      -8.0      3.888      4.923
REMARK  Name = 
REMARK  5 active torsions:
REMARK  status: ('A' for Active; 'I' for Inactive)
REMARK    1  A    between atoms: C_1  and  C_2
REMARK    2  A    between atoms: C_5  and  C_6
REMARK    3  A    between atoms: C_12  and  C_13
REMARK    4  A    between atoms: C_13  and  C_15
REMARK    5  A    between atoms: C_21  and  C_23
REMARK                            x       y       z     vdW  Elec       q    Type
REMARK                         _______ _______ _______ _____ _____    ______ ____
ROOT
ATOM      1  C   UNL     1       2.107   7.222  19.544  0.00  0.00    +0.000 A 
ATOM      2  C   UNL     1       1.556   6.921  20.795  0.00  0.00    +0.000 A 
ATOM      3  C   UNL     1       0.776   7.853  21.478  0.00  0.00    +0.000 A 
ATOM      4  C   UNL     1       0.539   9.117  20.932  0.00  0.00    +0.000 A 
ATOM      5  F   UNL     1      -0.267   9.948  21.605  0.00  0.00    +0.000 F 
ATOM      6  C   UNL     1       1.110   9.494  19.698  0.00  0.00    +0.000 A 
ATOM      7  C   UNL     1       1.112  10.683  18.883  0.00  0.00    +0.000 A 
ATOM      8  C   UNL     1       1.866  10.367  17.758  0.00  0.00    +0.000 A 
ATOM      9  N   UNL     1       2.316   9.084  17.859  0.00  0.00    +0.000 N 
ATOM     10  C   UNL     1       1.878   8.520  19.037  0.00  0.00    +0.000 A 
ATOM     11  H   UNL     1       2.902   8.598  17.188  0.00  0.00    +0.000 HD
ENDROOT
BRANCH   1  16
ATOM     12  C   UNL     1       3.652   2.919  17.586  0.00  0.00    +0.000 C 
ATOM     13  C   UNL     1       3.569   4.370  17.859  0.00  0.00    +0.000 A 
ATOM     14  N   UNL     1       4.251   5.344  17.305  0.00  0.00    +0.000 NA
ATOM     15  N   UNL     1       3.817   6.530  17.858  0.00  0.00    +0.000 NA
ATOM     16  C   UNL     1       2.874   6.267  18.749  0.00  0.00    +0.000 A 
ATOM     17  N   UNL     1       2.706   4.904  18.775  0.00  0.00    +0.000 N 
ATOM     18  H   UNL     1       2.050   4.392  19.342  0.00  0.00    +0.000 HD
ENDBRANCH   1  16
BRANCH   7  19
ATOM     19  C   UNL     1       0.529  12.020  19.032  0.00  0.00    +0.000 C 
ATOM     20  O   UNL     1       1.251  13.001  19.228  0.00  0.00    +0.000 OA
BRANCH  19  21
ATOM     21  C   UNL     1      -0.967  12.337  18.968  0.00  0.00    +0.000 C 
ATOM     22  O   UNL     1      -1.572  12.096  17.931  0.00  0.00    +0.000 OA
ATOM     23  N   UNL     1      -1.579  12.776  20.150  0.00  0.00    +0.000 N 
ATOM     24  C   UNL     1      -0.873  12.993  21.426  0.00  0.00    +0.000 C 
ATOM     25  C   UNL     1      -1.454  14.192  22.196  0.00  0.00    +0.000 C 
ATOM     26  N   UNL     1      -2.918  14.107  22.295  0.00  0.00    +0.000 N 
ATOM     27  C   UNL     1      -3.509  14.221  23.553  0.00  0.00    +0.000 C 
ATOM     28  O   UNL     1      -2.845  14.453  24.564  0.00  0.00    +0.000 OA
ATOM     29  C   UNL     1      -3.570  13.981  20.977  0.00  0.00    +0.000 C 
ATOM     30  C   UNL     1      -3.045  12.730  20.257  0.00  0.00    +0.000 C 
BRANCH  27  31
ATOM     31  C   UNL     1      -4.981  14.093  23.732  0.00  0.00    +0.000 A 
ATOM     32  C   UNL     1      -5.852  15.183  23.627  0.00  0.00    +0.000 A 
ATOM     33  C   UNL     1      -7.213  15.025  23.895  0.00  0.00    +0.000 A 
ATOM     34  C   UNL     1      -7.728  13.760  24.170  0.00  0.00    +0.000 A 
ATOM     35  C   UNL     1      -6.886  12.648  24.163  0.00  0.00    +0.000 A 
ATOM     36  C   UNL     1      -5.515  12.816  23.950  0.00  0.00    +0.000 A 
ENDBRANCH  27  31
ENDBRANCH  19  21
ENDBRANCH   7  19
TORSDOF 4
ENDMDL
MODEL 5
REMARK VINA RESULT:      -8.0      3.865     10.694
REMARK  Name = 
REMARK  5 active torsions:
REMARK  status: ('A' for Active; 'I' for Inactive)
REMARK    1  A    between atoms: C_1  and  C_2
REMARK    2  A    between atoms: C_5  and  C_6
REMARK    3  A    between atoms: C_12  and  C_13
REMARK    4  A    between atoms: C_13  and  C_15
REMARK    5  A    between atoms: C_21  and  C_23
REMARK                            x       y       z     vdW  Elec       q    Type
REMARK                         _______ _______ _______ _____ _____    ______ ____
ROOT
ATOM      1  C   UNL     1      -4.634  13.050  20.395  0.00  0.00    +0.000 A 
ATOM      2  C   UNL     1      -5.085  13.103  21.720  0.00  0.00    +0.000 A 
ATOM      3  C   UNL     1      -4.216  12.856  22.783  0.00  0.00    +0.000 A 
ATOM      4  C   UNL     1      -2.877  12.538  22.546  0.00  0.00    +0.000 A 
ATOM      5  F   UNL     1      -2.076  12.372  23.607  0.00  0.00    +0.000 F 
ATOM      6  C   UNL     1      -2.379  12.422  21.231  0.00  0.00    +0.000 A 
ATOM      7  C   UNL     1      -1.110  12.085  20.634  0.00  0.00    +0.000 A 
ATOM      8  C   UNL     1      -1.302  12.184  19.260  0.00  0.00    +0.000 A 
ATOM      9  N   UNL     1      -2.593  12.542  19.007  0.00  0.00    +0.000 N 
ATOM     10  C   UNL     1      -3.284  12.692  20.190  0.00  0.00    +0.000 A 
ATOM     11  H   UNL     1      -3.012  12.672  18.092  0.00  0.00    +0.000 HD
ENDROOT
BRANCH   1  16
ATOM     12  C   UNL     1      -7.471  15.620  17.219  0.00  0.00    +0.000 C 
ATOM     13  C   UNL     1      -6.727  14.489  17.815  0.00  0.00    +0.000 A 
ATOM     14  N   UNL     1      -6.561  13.280  17.334  0.00  0.00    +0.000 NA
ATOM     15  N   UNL     1      -5.777  12.577  18.224  0.00  0.00    +0.000 NA
ATOM     16  C   UNL     1      -5.475  13.365  19.244  0.00  0.00    +0.000 A 
ATOM     17  N   UNL     1      -6.075  14.579  19.013  0.00  0.00    +0.000 N 
ATOM     18  H   UNL     1      -6.021  15.395  19.601  0.00  0.00    +0.000 HD
ENDBRANCH   1  16
BRANCH   7  19
ATOM     19  C   UNL     1       0.194  11.689  21.173  0.00  0.00    +0.000 C 
ATOM     20  O   UNL     1       1.154  12.463  21.126  0.00  0.00    +0.000 OA
BRANCH  19  21
ATOM     21  C   UNL     1       0.503  10.336  21.820  0.00  0.00    +0.000 C 
ATOM     22  O   UNL     1       0.297  10.202  23.020  0.00  0.00    +0.000 OA
ATOM     23  N   UNL     1       0.892   9.293  20.969  0.00  0.00    +0.000 N 
ATOM     24  C   UNL     1       1.066   9.425  19.511  0.00  0.00    +0.000 C 
ATOM     25  C   UNL     1       2.230   8.558  19.000  0.00  0.00    +0.000 C 
ATOM     26  N   UNL     1       2.131   7.179  19.499  0.00  0.00    +0.000 N 
ATOM     27  C   UNL     1       2.192   6.132  18.580  0.00  0.00    +0.000 C 
ATOM     28  O   UNL     1       2.390   6.331  17.382  0.00  0.00    +0.000 OA
ATOM     29  C   UNL     1       2.050   7.112  20.971  0.00  0.00    +0.000 C 
ATOM     30  C   UNL     1       0.832   7.908  21.460  0.00  0.00    +0.000 C 
BRANCH  27  31
ATOM     31  C   UNL     1       2.046   4.715  19.010  0.00  0.00    +0.000 A 
ATOM     32  C   UNL     1       1.169   4.321  20.026  0.00  0.00    +0.000 A 
ATOM     33  C   UNL     1       1.138   2.992  20.454  0.00  0.00    +0.000 A 
ATOM     34  C   UNL     1       1.909   2.031  19.802  0.00  0.00    +0.000 A 
ATOM     35  C   UNL     1       2.700   2.394  18.713  0.00  0.00    +0.000 A 
ATOM     36  C   UNL     1       2.773   3.734  18.322  0.00  0.00    +0.000 A 
ENDBRANCH  27  31
ENDBRANCH  19  21
ENDBRANCH   7  19
TORSDOF 4
ENDMDL
MODEL 6
REMARK VINA RESULT:      -7.9      2.214      2.892
REMARK  Name = 
REMARK  5 active torsions:
REMARK  status: ('A' for Active; 'I' for Inactive)
REMARK    1  A    between atoms: C_1  and  C_2
REMARK    2  A    between atoms: C_5  and  C_6
REMARK    3  A    between atoms: C_12  and  C_13
REMARK    4  A    between atoms: C_13  and  C_15
REMARK    5  A    between atoms: C_21  and  C_23
REMARK                            x       y       z     vdW  Elec       q    Type
REMARK                         _______ _______ _______ _____ _____    ______ ____
ROOT
ATOM      1  C   UNL     1       3.071   5.586  18.587  0.00  0.00    +0.000 A 
ATOM      2  C   UNL     1       3.530   6.193  17.411  0.00  0.00    +0.000 A 
ATOM      3  C   UNL     1       3.342   7.556  17.187  0.00  0.00    +0.000 A 
ATOM      4  C   UNL     1       2.678   8.345  18.130  0.00  0.00    +0.000 A 
ATOM      5  F   UNL     1       2.581   9.659  17.889  0.00  0.00    +0.000 F 
ATOM      6  C   UNL     1       2.151   7.779  19.309  0.00  0.00    +0.000 A 
ATOM      7  C   UNL     1       1.402   8.266  20.442  0.00  0.00    +0.000 A 
ATOM      8  C   UNL     1       1.224   7.166  21.275  0.00  0.00    +0.000 A 
ATOM      9  N   UNL     1       1.801   6.069  20.709  0.00  0.00    +0.000 N 
ATOM     10  C   UNL     1       2.374   6.404  19.502  0.00  0.00    +0.000 A 
ATOM     11  H   UNL     1       1.809   5.129  21.092  0.00  0.00    +0.000 HD
ENDROOT
BRANCH   1  16
ATOM     12  C   UNL     1       5.024   1.499  20.643  0.00  0.00    +0.000 C 
ATOM     13  C   UNL     1       4.140   2.354  19.820  0.00  0.00    +0.000 A 
ATOM     14  N   UNL     1       3.112   1.997  19.088  0.00  0.00    +0.000 NA
ATOM     15  N   UNL     1       2.583   3.136  18.520  0.00  0.00    +0.000 NA
ATOM     16  C   UNL     1       3.297   4.181  18.910  0.00  0.00    +0.000 A 
ATOM     17  N   UNL     1       4.297   3.709  19.726  0.00  0.00    +0.000 N 
ATOM     18  H   UNL     1       4.998   4.261  20.194  0.00  0.00    +0.000 HD
ENDBRANCH   1  16
BRANCH   7  19
ATOM     19  C   UNL     1       0.851   9.572  20.812  0.00  0.00    +0.000 C 
ATOM     20  O   UNL     1       1.095  10.066  21.917  0.00  0.00    +0.000 OA
BRANCH  19  21
ATOM     21  C   UNL     1      -0.047  10.432  19.919  0.00  0.00    +0.000 C 
ATOM     22  O   UNL     1      -1.073   9.935  19.471  0.00  0.00    +0.000 OA
ATOM     23  N   UNL     1       0.303  11.780  19.768  0.00  0.00    +0.000 N 
ATOM     24  C   UNL     1       1.495  12.407  20.370  0.00  0.00    +0.000 C 
ATOM     25  C   UNL     1       2.101  13.474  19.441  0.00  0.00    +0.000 C 
ATOM     26  N   UNL     1       1.076  14.409  18.957  0.00  0.00    +0.000 N 
ATOM     27  C   UNL     1       1.295  15.778  19.113  0.00  0.00    +0.000 C 
ATOM     28  O   UNL     1       2.345  16.217  19.582  0.00  0.00    +0.000 OA
ATOM     29  C   UNL     1      -0.045  13.725  18.286  0.00  0.00    +0.000 C 
ATOM     30  C   UNL     1      -0.698  12.727  19.253  0.00  0.00    +0.000 C 
BRANCH  27  31
ATOM     31  C   UNL     1       0.277  16.778  18.693  0.00  0.00    +0.000 A 
ATOM     32  C   UNL     1      -0.877  17.039  19.439  0.00  0.00    +0.000 A 
ATOM     33  C   UNL     1      -1.846  17.920  18.953  0.00  0.00    +0.000 A 
ATOM     34  C   UNL     1      -1.620  18.621  17.770  0.00  0.00    +0.000 A 
ATOM     35  C   UNL     1      -0.421  18.455  17.079  0.00  0.00    +0.000 A 
ATOM     36  C   UNL     1       0.523  17.531  17.536  0.00  0.00    +0.000 A 
ENDBRANCH  27  31
ENDBRANCH  19  21
ENDBRANCH   7  19
TORSDOF 4
ENDMDL
MODEL 7
REMARK VINA RESULT:      -7.9      2.911      3.474
REMARK  Name = 
REMARK  5 active torsions:
REMARK  status: ('A' for Active; 'I' for Inactive)
REMARK    1  A    between atoms: C_1  and  C_2
REMARK    2  A    between atoms: C_5  and  C_6
REMARK    3  A    between atoms: C_12  and  C_13
REMARK    4  A    between atoms: C_13  and  C_15
REMARK    5  A    between atoms: C_21  and  C_23
REMARK                            x       y       z     vdW  Elec       q    Type
REMARK                         _______ _______ _______ _____ _____    ______ ____
ROOT
ATOM      1  C   UNL     1       4.582   4.844  17.806  0.00  0.00    +0.000 A 
ATOM      2  C   UNL     1       4.319   3.808  18.711  0.00  0.00    +0.000 A 
ATOM      3  C   UNL     1       3.378   3.966  19.728  0.00  0.00    +0.000 A 
ATOM      4  C   UNL     1       2.686   5.171  19.874  0.00  0.00    +0.000 A 
ATOM      5  F   UNL     1       1.751   5.243  20.830  0.00  0.00    +0.000 F 
ATOM      6  C   UNL     1       2.946   6.266  19.023  0.00  0.00    +0.000 A 
ATOM      7  C   UNL     1       2.468   7.622  18.912  0.00  0.00    +0.000 A 
ATOM      8  C   UNL     1       3.133   8.166  17.818  0.00  0.00    +0.000 A 
ATOM      9  N   UNL     1       3.975   7.234  17.288  0.00  0.00    +0.000 N 
ATOM     10  C   UNL     1       3.892   6.059  18.004  0.00  0.00    +0.000 A 
ATOM     11  H   UNL     1       4.593   7.365  16.494  0.00  0.00    +0.000 HD
ENDROOT
BRANCH   1  16
ATOM     12  C   UNL     1       6.337   3.770  13.278  0.00  0.00    +0.000 C 
ATOM     13  C   UNL     1       6.300   4.260  14.673  0.00  0.00    +0.000 A 
ATOM     14  N   UNL     1       7.245   4.870  15.348  0.00  0.00    +0.000 NA
ATOM     15  N   UNL     1       6.749   5.158  16.601  0.00  0.00    +0.000 NA
ATOM     16  C   UNL     1       5.503   4.717  16.681  0.00  0.00    +0.000 A 
ATOM     17  N   UNL     1       5.199   4.134  15.474  0.00  0.00    +0.000 N 
ATOM     18  H   UNL     1       4.319   3.718  15.215  0.00  0.00    +0.000 HD
ENDBRANCH   1  16
BRANCH   7  19
ATOM     19  C   UNL     1       1.516   8.431  19.678  0.00  0.00    +0.000 C 
ATOM     20  O   UNL     1       1.296   8.184  20.867  0.00  0.00    +0.000 OA
BRANCH  19  21
ATOM     21  C   UNL     1       0.723   9.616  19.121  0.00  0.00    +0.000 C 
ATOM     22  O   UNL     1       0.825   9.880  17.930  0.00  0.00    +0.000 OA
ATOM     23  N   UNL     1      -0.170  10.254  19.993  0.00  0.00    +0.000 N 
ATOM     24  C   UNL     1      -0.359   9.892  21.409  0.00  0.00    +0.000 C 
ATOM     25  C   UNL     1      -0.630  11.133  22.278  0.00  0.00    +0.000 C 
ATOM     26  N   UNL     1      -1.688  11.972  21.699  0.00  0.00    +0.000 N 
ATOM     27  C   UNL     1      -2.765  12.339  22.505  0.00  0.00    +0.000 C 
ATOM     28  O   UNL     1      -2.817  12.034  23.697  0.00  0.00    +0.000 OA
ATOM     29  C   UNL     1      -1.396  12.375  20.309  0.00  0.00    +0.000 C 
ATOM     30  C   UNL     1      -1.216  11.125  19.435  0.00  0.00    +0.000 C 
BRANCH  27  31
ATOM     31  C   UNL     1      -3.896  13.144  21.969  0.00  0.00    +0.000 A 
ATOM     32  C   UNL     1      -3.990  14.528  22.150  0.00  0.00    +0.000 A 
ATOM     33  C   UNL     1      -5.117  15.222  21.707  0.00  0.00    +0.000 A 
ATOM     34  C   UNL     1      -6.109  14.555  20.990  0.00  0.00    +0.000 A 
ATOM     35  C   UNL     1      -5.968  13.198  20.703  0.00  0.00    +0.000 A 
ATOM     36  C   UNL     1      -4.867  12.493  21.197  0.00  0.00    +0.000 A 
ENDBRANCH  27  31
ENDBRANCH  19  21
ENDBRANCH   7  19
TORSDOF 4
ENDMDL
MODEL 8
REMARK VINA RESULT:      -7.9      5.522      7.363
REMARK  Name = 
REMARK  5 active torsions:
REMARK  status: ('A' for Active; 'I' for Inactive)
REMARK    1  A    between atoms: C_1  and  C_2
REMARK    2  A    between atoms: C_5  and  C_6
REMARK    3  A    between atoms: C_12  and  C_13
REMARK    4  A    between atoms: C_13  and  C_15
REMARK    5  A    between atoms: C_21  and  C_23
REMARK                            x       y       z     vdW  Elec       q    Type
REMARK                         _______ _______ _______ _____ _____    ______ ____
ROOT
ATOM      1  C   UNL     1      -3.837  11.008  16.423  0.00  0.00    +0.000 A 
ATOM      2  C   UNL     1      -5.078  11.495  16.851  0.00  0.00    +0.000 A 
ATOM      3  C   UNL     1      -5.227  12.066  18.114  0.00  0.00    +0.000 A 
ATOM      4  C   UNL     1      -4.140  12.152  18.987  0.00  0.00    +0.000 A 
ATOM      5  F   UNL     1      -4.328  12.766  20.162  0.00  0.00    +0.000 F 
ATOM      6  C   UNL     1      -2.878  11.632  18.629  0.00  0.00    +0.000 A 
ATOM      7  C   UNL     1      -1.591  11.516  19.270  0.00  0.00    +0.000 A 
ATOM      8  C   UNL     1      -0.758  10.912  18.333  0.00  0.00    +0.000 A 
ATOM      9  N   UNL     1      -1.465  10.655  17.196  0.00  0.00    +0.000 N 
ATOM     10  C   UNL     1      -2.768  11.077  17.342  0.00  0.00    +0.000 A 
ATOM     11  H   UNL     1      -1.111  10.207  16.357  0.00  0.00    +0.000 HD
ENDROOT
BRANCH   1  16
ATOM     12  C   UNL     1      -4.627   9.631  11.708  0.00  0.00    +0.000 C 
ATOM     13  C   UNL     1      -3.926   9.853  12.992  0.00  0.00    +0.000 A 
ATOM     14  N   UNL     1      -2.667   9.627  13.283  0.00  0.00    +0.000 NA
ATOM     15  N   UNL     1      -2.461  10.008  14.591  0.00  0.00    +0.000 NA
ATOM     16  C   UNL     1      -3.601  10.462  15.089  0.00  0.00    +0.000 A 
ATOM     17  N   UNL     1      -4.547  10.364  14.098  0.00  0.00    +0.000 N 
ATOM     18  H   UNL     1      -5.513  10.643  14.162  0.00  0.00    +0.000 HD
ENDBRANCH   1  16
BRANCH   7  19
ATOM     19  C   UNL     1      -1.078  11.875  20.594  0.00  0.00    +0.000 C 
ATOM     20  O   UNL     1      -1.852  12.090  21.531  0.00  0.00    +0.000 OA
BRANCH  19  21
ATOM     21  C   UNL     1       0.403  12.021  20.952  0.00  0.00    +0.000 C 
ATOM     22  O   UNL     1       0.915  11.179  21.680  0.00  0.00    +0.000 OA
ATOM     23  N   UNL     1       1.115  13.051  20.323  0.00  0.00    +0.000 N 
ATOM     24  C   UNL     1       0.525  14.022  19.383  0.00  0.00    +0.000 C 
ATOM     25  C   UNL     1       1.161  15.415  19.536  0.00  0.00    +0.000 C 
ATOM     26  N   UNL     1       2.629  15.338  19.520  0.00  0.00    +0.000 N 
ATOM     27  C   UNL     1       3.330  16.155  18.633  0.00  0.00    +0.000 C 
ATOM     28  O   UNL     1       2.757  16.977  17.917  0.00  0.00    +0.000 OA
ATOM     29  C   UNL     1       3.160  14.418  20.544  0.00  0.00    +0.000 C 
ATOM     30  C   UNL     1       2.585  13.011  20.325  0.00  0.00    +0.000 C 
BRANCH  27  31
ATOM     31  C   UNL     1       4.813  16.092  18.529  0.00  0.00    +0.000 A 
ATOM     32  C   UNL     1       5.477  15.077  17.831  0.00  0.00    +0.000 A 
ATOM     33  C   UNL     1       6.872  15.012  17.842  0.00  0.00    +0.000 A 
ATOM     34  C   UNL     1       7.612  16.016  18.463  0.00  0.00    +0.000 A 
ATOM     35  C   UNL     1       6.961  17.094  19.061  0.00  0.00    +0.000 A 
ATOM     36  C   UNL     1       5.564  17.128  19.099  0.00  0.00    +0.000 A 
ENDBRANCH  27  31
ENDBRANCH  19  21
ENDBRANCH   7  19
TORSDOF 4
ENDMDL
MODEL 9
REMARK VINA RESULT:      -7.8      3.423      4.495
REMARK  Name = 
REMARK  5 active torsions:
REMARK  status: ('A' for Active; 'I' for Inactive)
REMARK    1  A    between atoms: C_1  and  C_2
REMARK    2  A    between atoms: C_5  and  C_6
REMARK    3  A    between atoms: C_12  and  C_13
REMARK    4  A    between atoms: C_13  and  C_15
REMARK    5  A    between atoms: C_21  and  C_23
REMARK                            x       y       z     vdW  Elec       q    Type
REMARK                         _______ _______ _______ _____ _____    ______ ____
ROOT
ATOM      1  C   UNL     1       4.047   4.598  18.662  0.00  0.00    +0.000 A 
ATOM      2  C   UNL     1       4.790   4.532  17.477  0.00  0.00    +0.000 A 
ATOM      3  C   UNL     1       4.818   5.604  16.587  0.00  0.00    +0.000 A 
ATOM      4  C   UNL     1       4.091   6.767  16.854  0.00  0.00    +0.000 A 
ATOM      5  F   UNL     1       4.205   7.788  15.993  0.00  0.00    +0.000 F 
ATOM      6  C   UNL     1       3.285   6.872  18.007  0.00  0.00    +0.000 A 
ATOM      7  C   UNL     1       2.402   7.868  18.561  0.00  0.00    +0.000 A 
ATOM      8  C   UNL     1       1.935   7.333  19.757  0.00  0.00    +0.000 A 
ATOM      9  N   UNL     1       2.468   6.092  19.938  0.00  0.00    +0.000 N 
ATOM     10  C   UNL     1       3.296   5.773  18.884  0.00  0.00    +0.000 A 
ATOM     11  H   UNL     1       2.288   5.468  20.718  0.00  0.00    +0.000 HD
ENDROOT
BRANCH   1  16
ATOM     12  C   UNL     1       5.505   0.716  21.409  0.00  0.00    +0.000 C 
ATOM     13  C   UNL     1       4.663   1.823  20.905  0.00  0.00    +0.000 A 
ATOM     14  N   UNL     1       3.505   2.239  21.360  0.00  0.00    +0.000 NA
ATOM     15  N   UNL     1       3.109   3.311  20.588  0.00  0.00    +0.000 NA
ATOM     16  C   UNL     1       4.031   3.538  19.665  0.00  0.00    +0.000 A 
ATOM     17  N   UNL     1       5.021   2.601  19.839  0.00  0.00    +0.000 N 
ATOM     18  H   UNL     1       5.868   2.519  19.301  0.00  0.00    +0.000 HD
ENDBRANCH   1  16
BRANCH   7  19
ATOM     19  C   UNL     1       1.957   9.193  18.119  0.00  0.00    +0.000 C 
ATOM     20  O   UNL     1       2.760   9.996  17.636  0.00  0.00    +0.000 OA
BRANCH  19  21
ATOM     21  C   UNL     1       0.519   9.710  18.203  0.00  0.00    +0.000 C 
ATOM     22  O   UNL     1      -0.303   9.284  17.401  0.00  0.00    +0.000 OA
ATOM     23  N   UNL     1       0.204  10.554  19.277  0.00  0.00    +0.000 N 
ATOM     24  C   UNL     1       1.170  11.009  20.294  0.00  0.00    +0.000 C 
ATOM     25  C   UNL     1       0.880  12.452  20.743  0.00  0.00    +0.000 C 
ATOM     26  N   UNL     1      -0.536  12.628  21.098  0.00  0.00    +0.000 N 
ATOM     27  C   UNL     1      -0.848  13.183  22.338  0.00  0.00    +0.000 C 
ATOM     28  O   UNL     1       0.025  13.584  23.108  0.00  0.00    +0.000 OA
ATOM     29  C   UNL     1      -1.448  12.240  20.004  0.00  0.00    +0.000 C 
ATOM     30  C   UNL     1      -1.208  10.770  19.627  0.00  0.00    +0.000 C 
BRANCH  27  31
ATOM     31  C   UNL     1      -2.259  13.343  22.782  0.00  0.00    +0.000 A 
ATOM     32  C   UNL     1      -2.946  12.348  23.487  0.00  0.00    +0.000 A 
ATOM     33  C   UNL     1      -4.297  12.511  23.799  0.00  0.00    +0.000 A 
ATOM     34  C   UNL     1      -4.942  13.709  23.499  0.00  0.00    +0.000 A 
ATOM     35  C   UNL     1      -4.235  14.751  22.901  0.00  0.00    +0.000 A 
ATOM     36  C   UNL     1      -2.898  14.565  22.538  0.00  0.00    +0.000 A 
ENDBRANCH  27  31
ENDBRANCH  19  21
ENDBRANCH   7  19
TORSDOF 4
ENDMDL
