MODEL 1
REMARK VINA RESULT:      -7.8      0.000      0.000
REMARK  Name = 
REMARK  6 active torsions:
REMARK  status: ('A' for Active; 'I' for Inactive)
REMARK    1  A    between atoms: C_1  and  C_2
REMARK    2  A    between atoms: C_2  and  C_3
REMARK    3  A    between atoms: C_2  and  O_4
REMARK    4  A    between atoms: O_4  and  C_5
REMARK    5  A    between atoms: C_12  and  C_13
REMARK    6  A    between atoms: C_20  and  O_21
REMARK                            x       y       z     vdW  Elec       q    Type
REMARK                         _______ _______ _______ _____ _____    ______ ____
ROOT
ATOM      1  C   UNL     1       6.279   5.084  14.816  0.00  0.00    +0.000 C 
ATOM      2  C   UNL     1       5.637   6.220  15.649  0.00  0.00    +0.000 C 
ATOM      3  N   UNL     1       5.334   5.634  16.959  0.00  0.00    +0.000 N 
ATOM      4  C   UNL     1       4.224   6.131  17.610  0.00  0.00    +0.000 A 
ATOM      5  N   UNL     1       3.844   7.388  17.333  0.00  0.00    +0.000 NA
ATOM      6  C   UNL     1       2.759   7.869  17.965  0.00  0.00    +0.000 A 
ATOM      7  C   UNL     1       2.030   7.144  18.873  0.00  0.00    +0.000 A 
ATOM      8  C   UNL     1       2.488   5.867  19.125  0.00  0.00    +0.000 A 
ATOM      9  N   UNL     1       3.576   5.358  18.499  0.00  0.00    +0.000 NA
ATOM     10  C   UNL     1       5.526   4.188  16.928  0.00  0.00    +0.000 C 
ATOM     11  C   UNL     1       6.634   4.029  15.877  0.00  0.00    +0.000 C 
ENDROOT
BRANCH   8  12
ATOM     12  C   UNL     1       1.775   5.004  20.139  0.00  0.00    +0.000 C 
ATOM     13  C   UNL     1       1.130   3.755  19.539  0.00  0.00    +0.000 C 
ATOM     14  C   UNL     1       0.864   2.873  20.753  0.00  0.00    +0.000 C 
ATOM     15  C   UNL     1       1.954   3.217  21.768  0.00  0.00    +0.000 C 
ATOM     16  C   UNL     1       2.696   4.433  21.216  0.00  0.00    +0.000 C 
ENDBRANCH   8  12
BRANCH  11  17
ATOM     17  O   UNL     1       7.916   4.330  16.454  0.00  0.00    +0.000 OA
ATOM     18  H   UNL     1       8.456   4.706  15.732  0.00  0.00    +0.000 HD
ENDBRANCH  11  17
BRANCH   1  19
ATOM     19  O   UNL     1       5.396   4.502  13.845  0.00  0.00    +0.000 OA
BRANCH  19  21
ATOM     20  C   UNL     1       5.015   3.105  11.834  0.00  0.00    +0.000 C 
ATOM     21  C   UNL     1       5.990   3.601  12.899  0.00  0.00    +0.000 C 
ATOM     22  C   UNL     1       7.144   4.346  12.236  0.00  0.00    +0.000 C 
ENDBRANCH  19  21
ENDBRANCH   1  19
TORSDOF 4
ENDMDL
MODEL 2
REMARK VINA RESULT:      -6.9      2.476      6.991
REMARK  Name = 
REMARK  6 active torsions:
REMARK  status: ('A' for Active; 'I' for Inactive)
REMARK    1  A    between atoms: C_1  and  C_2
REMARK    2  A    between atoms: C_2  and  C_3
REMARK    3  A    between atoms: C_2  and  O_4
REMARK    4  A    between atoms: O_4  and  C_5
REMARK    5  A    between atoms: C_12  and  C_13
REMARK    6  A    between atoms: C_20  and  O_21
REMARK                            x       y       z     vdW  Elec       q    Type
REMARK                         _______ _______ _______ _____ _____    ______ ____
ROOT
ATOM      1  C   UNL     1       2.531   5.573  19.970  0.00  0.00    +0.000 C 
ATOM      2  C   UNL     1       4.058   5.528  19.718  0.00  0.00    +0.000 C 
ATOM      3  N   UNL     1       4.254   6.027  18.353  0.00  0.00    +0.000 N 
ATOM      4  C   UNL     1       5.315   5.490  17.652  0.00  0.00    +0.000 A 
ATOM      5  N   UNL     1       6.361   5.026  18.353  0.00  0.00    +0.000 NA
ATOM      6  C   UNL     1       7.391   4.500  17.669  0.00  0.00    +0.000 A 
ATOM      7  C   UNL     1       7.426   4.418  16.300  0.00  0.00    +0.000 A 
ATOM      8  C   UNL     1       6.328   4.932  15.642  0.00  0.00    +0.000 A 
ATOM      9  N   UNL     1       5.276   5.464  16.308  0.00  0.00    +0.000 NA
ATOM     10  C   UNL     1       2.972   6.160  17.669  0.00  0.00    +0.000 C 
ATOM     11  C   UNL     1       2.014   6.466  18.830  0.00  0.00    +0.000 C 
ENDROOT
BRANCH   8  12
ATOM     12  C   UNL     1       6.290   4.922  14.132  0.00  0.00    +0.000 C 
ATOM     13  C   UNL     1       7.658   5.121  13.480  0.00  0.00    +0.000 C 
ATOM     14  C   UNL     1       7.438   4.661  12.043  0.00  0.00    +0.000 C 
ATOM     15  C   UNL     1       6.352   3.589  12.107  0.00  0.00    +0.000 C 
ATOM     16  C   UNL     1       5.813   3.598  13.538  0.00  0.00    +0.000 C 
ENDBRANCH   8  12
BRANCH  11  17
ATOM     17  O   UNL     1       2.117   7.849  19.208  0.00  0.00    +0.000 OA
ATOM     18  H   UNL     1       1.225   8.230  19.085  0.00  0.00    +0.000 HD
ENDBRANCH  11  17
BRANCH   1  19
ATOM     19  O   UNL     1       1.890   4.291  19.896  0.00  0.00    +0.000 OA
BRANCH  19  21
ATOM     20  C   UNL     1       2.323   2.596  21.652  0.00  0.00    +0.000 C 
ATOM     21  C   UNL     1       2.682   3.157  20.278  0.00  0.00    +0.000 C 
ATOM     22  C   UNL     1       2.471   2.086  19.212  0.00  0.00    +0.000 C 
ENDBRANCH  19  21
ENDBRANCH   1  19
TORSDOF 4
ENDMDL
MODEL 3
REMARK VINA RESULT:      -6.8      1.964      4.551
REMARK  Name = 
REMARK  6 active torsions:
REMARK  status: ('A' for Active; 'I' for Inactive)
REMARK    1  A    between atoms: C_1  and  C_2
REMARK    2  A    between atoms: C_2  and  C_3
REMARK    3  A    between atoms: C_2  and  O_4
REMARK    4  A    between atoms: O_4  and  C_5
REMARK    5  A    between atoms: C_12  and  C_13
REMARK    6  A    between atoms: C_20  and  O_21
REMARK                            x       y       z     vdW  Elec       q    Type
REMARK                         _______ _______ _______ _____ _____    ______ ____
ROOT
ATOM      1  C   UNL     1       6.725   4.544  16.447  0.00  0.00    +0.000 C 
ATOM      2  C   UNL     1       5.569   4.235  17.430  0.00  0.00    +0.000 C 
ATOM      3  N   UNL     1       4.470   5.128  17.049  0.00  0.00    +0.000 N 
ATOM      4  C   UNL     1       3.649   5.559  18.071  0.00  0.00    +0.000 A 
ATOM      5  N   UNL     1       3.533   4.776  19.155  0.00  0.00    +0.000 NA
ATOM      6  C   UNL     1       2.736   5.199  20.152  0.00  0.00    +0.000 A 
ATOM      7  C   UNL     1       2.040   6.381  20.113  0.00  0.00    +0.000 A 
ATOM      8  C   UNL     1       2.189   7.126  18.962  0.00  0.00    +0.000 A 
ATOM      9  N   UNL     1       2.989   6.723  17.946  0.00  0.00    +0.000 NA
ATOM     10  C   UNL     1       4.926   6.110  16.071  0.00  0.00    +0.000 C 
ATOM     11  C   UNL     1       6.032   5.343  15.331  0.00  0.00    +0.000 C 
ENDROOT
BRANCH   8  12
ATOM     12  C   UNL     1       1.434   8.424  18.809  0.00  0.00    +0.000 C 
ATOM     13  C   UNL     1       1.171   9.144  20.131  0.00  0.00    +0.000 C 
ATOM     14  C   UNL     1       0.802  10.559  19.700  0.00  0.00    +0.000 C 
ATOM     15  C   UNL     1       1.559  10.811  18.397  0.00  0.00    +0.000 C 
ATOM     16  C   UNL     1       2.178   9.475  17.985  0.00  0.00    +0.000 C 
ENDBRANCH   8  12
BRANCH  11  17
ATOM     17  O   UNL     1       5.457   4.442  14.371  0.00  0.00    +0.000 OA
ATOM     18  H   UNL     1       5.743   3.545  14.636  0.00  0.00    +0.000 HD
ENDBRANCH  11  17
BRANCH   1  19
ATOM     19  O   UNL     1       7.777   5.338  17.017  0.00  0.00    +0.000 OA
BRANCH  19  21
ATOM     20  C   UNL     1       8.097   5.777  19.435  0.00  0.00    +0.000 C 
ATOM     21  C   UNL     1       7.419   6.175  18.126  0.00  0.00    +0.000 C 
ATOM     22  C   UNL     1       7.811   7.601  17.753  0.00  0.00    +0.000 C 
ENDBRANCH  19  21
ENDBRANCH   1  19
TORSDOF 4
ENDMDL
MODEL 4
REMARK VINA RESULT:      -6.8      2.087      4.503
REMARK  Name = 
REMARK  6 active torsions:
REMARK  status: ('A' for Active; 'I' for Inactive)
REMARK    1  A    between atoms: C_1  and  C_2
REMARK    2  A    between atoms: C_2  and  C_3
REMARK    3  A    between atoms: C_2  and  O_4
REMARK    4  A    between atoms: O_4  and  C_5
REMARK    5  A    between atoms: C_12  and  C_13
REMARK    6  A    between atoms: C_20  and  O_21
REMARK                            x       y       z     vdW  Elec       q    Type
REMARK                         _______ _______ _______ _____ _____    ______ ____
ROOT
ATOM      1  C   UNL     1       6.555   4.561  16.481  0.00  0.00    +0.000 C 
ATOM      2  C   UNL     1       5.359   4.329  17.437  0.00  0.00    +0.000 C 
ATOM      3  N   UNL     1       4.372   5.362  17.103  0.00  0.00    +0.000 N 
ATOM      4  C   UNL     1       3.592   5.822  18.144  0.00  0.00    +0.000 A 
ATOM      5  N   UNL     1       3.374   4.995  19.178  0.00  0.00    +0.000 NA
ATOM      6  C   UNL     1       2.617   5.447  20.193  0.00  0.00    +0.000 A 
ATOM      7  C   UNL     1       2.060   6.700  20.221  0.00  0.00    +0.000 A 
ATOM      8  C   UNL     1       2.308   7.490  19.118  0.00  0.00    +0.000 A 
ATOM      9  N   UNL     1       3.070   7.060  18.084  0.00  0.00    +0.000 NA
ATOM     10  C   UNL     1       4.949   6.341  16.188  0.00  0.00    +0.000 C 
ATOM     11  C   UNL     1       5.971   5.499  15.411  0.00  0.00    +0.000 C 
ENDROOT
BRANCH   8  12
ATOM     12  C   UNL     1       1.706   8.872  19.038  0.00  0.00    +0.000 C 
ATOM     13  C   UNL     1       0.778   9.072  17.840  0.00  0.00    +0.000 C 
ATOM     14  C   UNL     1      -0.003  10.330  18.199  0.00  0.00    +0.000 C 
ATOM     15  C   UNL     1      -0.093  10.347  19.724  0.00  0.00    +0.000 C 
ATOM     16  C   UNL     1       0.813   9.223  20.228  0.00  0.00    +0.000 C 
ENDBRANCH   8  12
BRANCH  11  17
ATOM     17  O   UNL     1       5.311   4.727  14.395  0.00  0.00    +0.000 OA
ATOM     18  H   UNL     1       4.352   4.847  14.545  0.00  0.00    +0.000 HD
ENDBRANCH  11  17
BRANCH   1  19
ATOM     19  O   UNL     1       7.682   5.196  17.104  0.00  0.00    +0.000 OA
BRANCH  19  21
ATOM     20  C   UNL     1       8.089   5.554  19.522  0.00  0.00    +0.000 C 
ATOM     21  C   UNL     1       7.403   6.024  18.242  0.00  0.00    +0.000 C 
ATOM     22  C   UNL     1       7.870   7.434  17.893  0.00  0.00    +0.000 C 
ENDBRANCH  19  21
ENDBRANCH   1  19
TORSDOF 4
ENDMDL
MODEL 5
REMARK VINA RESULT:      -6.8      2.379      7.119
REMARK  Name = 
REMARK  6 active torsions:
REMARK  status: ('A' for Active; 'I' for Inactive)
REMARK    1  A    between atoms: C_1  and  C_2
REMARK    2  A    between atoms: C_2  and  C_3
REMARK    3  A    between atoms: C_2  and  O_4
REMARK    4  A    between atoms: O_4  and  C_5
REMARK    5  A    between atoms: C_12  and  C_13
REMARK    6  A    between atoms: C_20  and  O_21
REMARK                            x       y       z     vdW  Elec       q    Type
REMARK                         _______ _______ _______ _____ _____    ______ ____
ROOT
ATOM      1  C   UNL     1       2.997   5.017  20.150  0.00  0.00    +0.000 C 
ATOM      2  C   UNL     1       4.475   5.237  19.743  0.00  0.00    +0.000 C 
ATOM      3  N   UNL     1       4.442   5.707  18.354  0.00  0.00    +0.000 N 
ATOM      4  C   UNL     1       5.509   5.343  17.559  0.00  0.00    +0.000 A 
ATOM      5  N   UNL     1       6.686   5.104  18.159  0.00  0.00    +0.000 NA
ATOM      6  C   UNL     1       7.723   4.744  17.383  0.00  0.00    +0.000 A 
ATOM      7  C   UNL     1       7.639   4.614  16.020  0.00  0.00    +0.000 A 
ATOM      8  C   UNL     1       6.406   4.894  15.467  0.00  0.00    +0.000 A 
ATOM      9  N   UNL     1       5.345   5.255  16.227  0.00  0.00    +0.000 NA
ATOM     10  C   UNL     1       3.097   5.579  17.803  0.00  0.00    +0.000 C 
ATOM     11  C   UNL     1       2.217   5.755  19.050  0.00  0.00    +0.000 C 
ENDROOT
BRANCH   8  12
ATOM     12  C   UNL     1       6.223   4.817  13.971  0.00  0.00    +0.000 C 
ATOM     13  C   UNL     1       7.535   4.839  13.187  0.00  0.00    +0.000 C 
ATOM     14  C   UNL     1       7.135   4.337  11.805  0.00  0.00    +0.000 C 
ATOM     15  C   UNL     1       5.957   3.389  12.028  0.00  0.00    +0.000 C 
ATOM     16  C   UNL     1       5.561   3.523  13.499  0.00  0.00    +0.000 C 
ENDBRANCH   8  12
BRANCH  11  17
ATOM     17  O   UNL     1       2.101   7.148  19.384  0.00  0.00    +0.000 OA
ATOM     18  H   UNL     1       2.795   7.608  18.872  0.00  0.00    +0.000 HD
ENDBRANCH  11  17
BRANCH   1  19
ATOM     19  O   UNL     1       2.598   3.638  20.171  0.00  0.00    +0.000 OA
BRANCH  19  21
ATOM     20  C   UNL     1       0.503   2.596  19.355  0.00  0.00    +0.000 C 
ATOM     21  C   UNL     1       1.216   3.376  20.456  0.00  0.00    +0.000 C 
ATOM     22  C   UNL     1       1.172   2.585  21.761  0.00  0.00    +0.000 C 
ENDBRANCH  19  21
ENDBRANCH   1  19
TORSDOF 4
ENDMDL
MODEL 6
REMARK VINA RESULT:      -6.7      3.197      4.950
REMARK  Name = 
REMARK  6 active torsions:
REMARK  status: ('A' for Active; 'I' for Inactive)
REMARK    1  A    between atoms: C_1  and  C_2
REMARK    2  A    between atoms: C_2  and  C_3
REMARK    3  A    between atoms: C_2  and  O_4
REMARK    4  A    between atoms: O_4  and  C_5
REMARK    5  A    between atoms: C_12  and  C_13
REMARK    6  A    between atoms: C_20  and  O_21
REMARK                            x       y       z     vdW  Elec       q    Type
REMARK                         _______ _______ _______ _____ _____    ______ ____
ROOT
ATOM      1  C   UNL     1       4.309   4.632  17.809  0.00  0.00    +0.000 C 
ATOM      2  C   UNL     1       3.952   6.112  17.527  0.00  0.00    +0.000 C 
ATOM      3  N   UNL     1       3.589   6.691  18.825  0.00  0.00    +0.000 N 
ATOM      4  C   UNL     1       2.634   7.687  18.805  0.00  0.00    +0.000 A 
ATOM      5  N   UNL     1       2.514   8.419  17.686  0.00  0.00    +0.000 NA
ATOM      6  C   UNL     1       1.580   9.387  17.667  0.00  0.00    +0.000 A 
ATOM      7  C   UNL     1       0.754   9.661  18.728  0.00  0.00    +0.000 A 
ATOM      8  C   UNL     1       0.945   8.884  19.851  0.00  0.00    +0.000 A 
ATOM      9  N   UNL     1       1.876   7.901  19.895  0.00  0.00    +0.000 NA
ATOM     10  C   UNL     1       3.473   5.645  19.835  0.00  0.00    +0.000 C 
ATOM     11  C   UNL     1       4.479   4.597  19.337  0.00  0.00    +0.000 C 
ENDROOT
BRANCH   8  12
ATOM     12  C   UNL     1       0.110   9.135  21.084  0.00  0.00    +0.000 C 
ATOM     13  C   UNL     1       0.875   8.952  22.394  0.00  0.00    +0.000 C 
ATOM     14  C   UNL     1      -0.008   9.647  23.424  0.00  0.00    +0.000 C 
ATOM     15  C   UNL     1      -0.728  10.765  22.672  0.00  0.00    +0.000 C 
ATOM     16  C   UNL     1      -0.416  10.566  21.189  0.00  0.00    +0.000 C 
ENDBRANCH   8  12
BRANCH  11  17
ATOM     17  O   UNL     1       5.817   4.986  19.687  0.00  0.00    +0.000 OA
ATOM     18  H   UNL     1       5.769   5.324  20.604  0.00  0.00    +0.000 HD
ENDBRANCH  11  17
BRANCH   1  19
ATOM     19  O   UNL     1       3.284   3.703  17.424  0.00  0.00    +0.000 OA
BRANCH  19  21
ATOM     20  C   UNL     1       1.317   2.634  18.487  0.00  0.00    +0.000 C 
ATOM     21  C   UNL     1       2.835   2.791  18.437  0.00  0.00    +0.000 C 
ATOM     22  C   UNL     1       3.484   1.442  18.142  0.00  0.00    +0.000 C 
ENDBRANCH  19  21
ENDBRANCH   1  19
TORSDOF 4
ENDMDL
MODEL 7
REMARK VINA RESULT:      -6.6      2.538      6.780
REMARK  Name = 
REMARK  6 active torsions:
REMARK  status: ('A' for Active; 'I' for Inactive)
REMARK    1  A    between atoms: C_1  and  C_2
REMARK    2  A    between atoms: C_2  and  C_3
REMARK    3  A    between atoms: C_2  and  O_4
REMARK    4  A    between atoms: O_4  and  C_5
REMARK    5  A    between atoms: C_12  and  C_13
REMARK    6  A    between atoms: C_20  and  O_21
REMARK                            x       y       z     vdW  Elec       q    Type
REMARK                         _______ _______ _______ _____ _____    ______ ____
ROOT
ATOM      1  C   UNL     1       2.813   4.727  20.227  0.00  0.00    +0.000 C 
ATOM      2  C   UNL     1       4.313   4.931  19.898  0.00  0.00    +0.000 C 
ATOM      3  N   UNL     1       4.352   5.503  18.548  0.00  0.00    +0.000 N 
ATOM      4  C   UNL     1       5.443   5.166  17.772  0.00  0.00    +0.000 A 
ATOM      5  N   UNL     1       6.585   4.847  18.400  0.00  0.00    +0.000 NA
ATOM      6  C   UNL     1       7.645   4.514  17.642  0.00  0.00    +0.000 A 
ATOM      7  C   UNL     1       7.615   4.488  16.271  0.00  0.00    +0.000 A 
ATOM      8  C   UNL     1       6.416   4.846  15.691  0.00  0.00    +0.000 A 
ATOM      9  N   UNL     1       5.333   5.182  16.432  0.00  0.00    +0.000 NA
ATOM     10  C   UNL     1       3.029   5.458  17.935  0.00  0.00    +0.000 C 
ATOM     11  C   UNL     1       2.102   5.568  19.154  0.00  0.00    +0.000 C 
ENDROOT
BRANCH   8  12
ATOM     12  C   UNL     1       6.295   4.886  14.187  0.00  0.00    +0.000 C 
ATOM     13  C   UNL     1       7.638   4.980  13.463  0.00  0.00    +0.000 C 
ATOM     14  C   UNL     1       7.300   4.586  12.030  0.00  0.00    +0.000 C 
ATOM     15  C   UNL     1       6.126   3.614  12.129  0.00  0.00    +0.000 C 
ATOM     16  C   UNL     1       5.668   3.628  13.587  0.00  0.00    +0.000 C 
ENDBRANCH   8  12
BRANCH  11  17
ATOM     17  O   UNL     1       2.010   6.936  19.588  0.00  0.00    +0.000 OA
ATOM     18  H   UNL     1       2.066   7.481  18.778  0.00  0.00    +0.000 HD
ENDBRANCH  11  17
BRANCH   1  19
ATOM     19  O   UNL     1       2.376   3.363  20.128  0.00  0.00    +0.000 OA
BRANCH  19  21
ATOM     20  C   UNL     1       3.149   1.762  18.401  0.00  0.00    +0.000 C 
ATOM     21  C   UNL     1       2.161   2.855  18.803  0.00  0.00    +0.000 C 
ATOM     22  C   UNL     1       0.738   2.306  18.761  0.00  0.00    +0.000 C 
ENDBRANCH  19  21
ENDBRANCH   1  19
TORSDOF 4
ENDMDL
MODEL 8
REMARK VINA RESULT:      -6.5      4.310      7.578
REMARK  Name = 
REMARK  6 active torsions:
REMARK  status: ('A' for Active; 'I' for Inactive)
REMARK    1  A    between atoms: C_1  and  C_2
REMARK    2  A    between atoms: C_2  and  C_3
REMARK    3  A    between atoms: C_2  and  O_4
REMARK    4  A    between atoms: O_4  and  C_5
REMARK    5  A    between atoms: C_12  and  C_13
REMARK    6  A    between atoms: C_20  and  O_21
REMARK                            x       y       z     vdW  Elec       q    Type
REMARK                         _______ _______ _______ _____ _____    ______ ____
ROOT
ATOM      1  C   UNL     1      -0.294  10.431  19.706  0.00  0.00    +0.000 C 
ATOM      2  C   UNL     1       0.454   9.261  20.391  0.00  0.00    +0.000 C 
ATOM      3  N   UNL     1       1.610   8.969  19.536  0.00  0.00    +0.000 N 
ATOM      4  C   UNL     1       2.024   7.654  19.495  0.00  0.00    +0.000 A 
ATOM      5  N   UNL     1       1.765   6.880  20.560  0.00  0.00    +0.000 NA
ATOM      6  C   UNL     1       2.166   5.597  20.516  0.00  0.00    +0.000 A 
ATOM      7  C   UNL     1       2.823   5.047  19.445  0.00  0.00    +0.000 A 
ATOM      8  C   UNL     1       3.073   5.903  18.393  0.00  0.00    +0.000 A 
ATOM      9  N   UNL     1       2.677   7.198  18.411  0.00  0.00    +0.000 NA
ATOM     10  C   UNL     1       1.512   9.702  18.278  0.00  0.00    +0.000 C 
ATOM     11  C   UNL     1       0.735  10.960  18.693  0.00  0.00    +0.000 C 
ENDROOT
BRANCH   8  12
ATOM     12  C   UNL     1       3.825   5.401  17.183  0.00  0.00    +0.000 C 
ATOM     13  C   UNL     1       4.840   6.400  16.629  0.00  0.00    +0.000 C 
ATOM     14  C   UNL     1       5.730   5.547  15.734  0.00  0.00    +0.000 C 
ATOM     15  C   UNL     1       5.728   4.149  16.350  0.00  0.00    +0.000 C 
ATOM     16  C   UNL     1       4.676   4.162  17.459  0.00  0.00    +0.000 C 
ENDBRANCH   8  12
BRANCH  11  17
ATOM     17  O   UNL     1       1.614  11.898  19.336  0.00  0.00    +0.000 OA
ATOM     18  H   UNL     1       2.136  12.313  18.620  0.00  0.00    +0.000 HD
ENDBRANCH  11  17
BRANCH   1  19
ATOM     19  O   UNL     1      -1.485  10.033  19.009  0.00  0.00    +0.000 OA
BRANCH  19  21
ATOM     20  C   UNL     1      -2.240  10.100  16.650  0.00  0.00    +0.000 C 
ATOM     21  C   UNL     1      -1.901  10.872  17.922  0.00  0.00    +0.000 C 
ATOM     22  C   UNL     1      -3.126  11.646  18.400  0.00  0.00    +0.000 C 
ENDBRANCH  19  21
ENDBRANCH   1  19
TORSDOF 4
ENDMDL
MODEL 9
REMARK VINA RESULT:      -6.4      1.520      2.065
REMARK  Name = 
REMARK  6 active torsions:
REMARK  status: ('A' for Active; 'I' for Inactive)
REMARK    1  A    between atoms: C_1  and  C_2
REMARK    2  A    between atoms: C_2  and  C_3
REMARK    3  A    between atoms: C_2  and  O_4
REMARK    4  A    between atoms: O_4  and  C_5
REMARK    5  A    between atoms: C_12  and  C_13
REMARK    6  A    between atoms: C_20  and  O_21
REMARK                            x       y       z     vdW  Elec       q    Type
REMARK                         _______ _______ _______ _____ _____    ______ ____
ROOT
ATOM      1  C   UNL     1       7.700   5.985  17.120  0.00  0.00    +0.000 C 
ATOM      2  C   UNL     1       6.394   6.809  17.227  0.00  0.00    +0.000 C 
ATOM      3  N   UNL     1       5.709   6.320  18.428  0.00  0.00    +0.000 N 
ATOM      4  C   UNL     1       4.329   6.346  18.400  0.00  0.00    +0.000 A 
ATOM      5  N   UNL     1       3.735   7.255  17.612  0.00  0.00    +0.000 NA
ATOM      6  C   UNL     1       2.391   7.276  17.582  0.00  0.00    +0.000 A 
ATOM      7  C   UNL     1       1.605   6.422  18.314  0.00  0.00    +0.000 A 
ATOM      8  C   UNL     1       2.281   5.527  19.117  0.00  0.00    +0.000 A 
ATOM      9  N   UNL     1       3.634   5.484  19.162  0.00  0.00    +0.000 NA
ATOM     10  C   UNL     1       6.365   5.121  18.938  0.00  0.00    +0.000 C 
ATOM     11  C   UNL     1       7.824   5.342  18.511  0.00  0.00    +0.000 C 
ENDROOT
BRANCH   8  12
ATOM     12  C   UNL     1       1.504   4.572  19.990  0.00  0.00    +0.000 C 
ATOM     13  C   UNL     1       1.234   3.218  19.334  0.00  0.00    +0.000 C 
ATOM     14  C   UNL     1       0.841   2.325  20.505  0.00  0.00    +0.000 C 
ATOM     15  C   UNL     1       1.589   2.874  21.720  0.00  0.00    +0.000 C 
ATOM     16  C   UNL     1       2.228   4.191  21.281  0.00  0.00    +0.000 C 
ENDBRANCH   8  12
BRANCH  11  17
ATOM     17  O   UNL     1       8.473   6.253  19.414  0.00  0.00    +0.000 OA
ATOM     18  H   UNL     1       9.155   6.716  18.887  0.00  0.00    +0.000 HD
ENDBRANCH  11  17
BRANCH   1  19
ATOM     19  O   UNL     1       7.658   4.953  16.123  0.00  0.00    +0.000 OA
BRANCH  19  21
ATOM     20  C   UNL     1       7.040   4.936  13.723  0.00  0.00    +0.000 C 
ATOM     21  C   UNL     1       6.581   5.022  15.176  0.00  0.00    +0.000 C 
ATOM     22  C   UNL     1       5.638   3.864  15.490  0.00  0.00    +0.000 C 
ENDBRANCH  19  21
ENDBRANCH   1  19
TORSDOF 4
ENDMDL
