MODEL 1
REMARK VINA RESULT:      -6.5      0.000      0.000
REMARK  Name = 
REMARK  2 active torsions:
REMARK  status: ('A' for Active; 'I' for Inactive)
REMARK    1  A    between atoms: C_9  and  O_10
REMARK    2  A    between atoms: C_11  and  O_12
REMARK                            x       y       z     vdW  Elec       q    Type
REMARK                         _______ _______ _______ _____ _____    ______ ____
ROOT
ATOM      1  O   UNL     1       2.956   7.446  17.910  0.00  0.00    +0.000 OA
ATOM      2  N   UNL     1       3.354   6.315  18.355  0.00  0.00    +0.000 N 
ATOM      3  C   UNL     1       2.467   5.583  19.130  0.00  0.00    +0.000 A 
ATOM      4  C   UNL     1       2.817   4.352  19.650  0.00  0.00    +0.000 A 
ATOM      5  I   UNL     1       1.455   3.298  20.803  0.00  0.00    +0.000 I 
ATOM      6  C   UNL     1       4.077   3.830  19.398  0.00  0.00    +0.000 A 
ATOM      7  C   UNL     1       4.995   4.527  18.630  0.00  0.00    +0.000 A 
ATOM      8  N   UNL     1       6.212   3.982  18.411  0.00  0.00    +0.000 NA
ATOM      9  C   UNL     1       7.044   4.722  17.658  0.00  0.00    +0.000 A 
ATOM     10  C   UNL     1       6.712   5.959  17.127  0.00  0.00    +0.000 A 
ATOM     11  N   UNL     1       5.512   6.519  17.330  0.00  0.00    +0.000 NA
ATOM     12  C   UNL     1       4.637   5.795  18.093  0.00  0.00    +0.000 A 
ENDROOT
BRANCH   9  13
ATOM     13  O   UNL     1       8.269   4.172  17.440  0.00  0.00    +0.000 OA
ATOM     14  H   UNL     1       8.810   4.971  17.300  0.00  0.00    +0.000 HD
ENDBRANCH   9  13
BRANCH  10  15
ATOM     15  O   UNL     1       7.597   6.670  16.369  0.00  0.00    +0.000 OA
ATOM     16  H   UNL     1       8.153   6.007  15.925  0.00  0.00    +0.000 HD
ENDBRANCH  10  15
TORSDOF 2
ENDMDL
MODEL 2
REMARK VINA RESULT:      -6.2      3.712      5.328
REMARK  Name = 
REMARK  2 active torsions:
REMARK  status: ('A' for Active; 'I' for Inactive)
REMARK    1  A    between atoms: C_9  and  O_10
REMARK    2  A    between atoms: C_11  and  O_12
REMARK                            x       y       z     vdW  Elec       q    Type
REMARK                         _______ _______ _______ _____ _____    ______ ____
ROOT
ATOM      1  O   UNL     1       5.866   4.696  19.921  0.00  0.00    +0.000 OA
ATOM      2  N   UNL     1       5.275   4.371  18.834  0.00  0.00    +0.000 N 
ATOM      3  C   UNL     1       5.957   4.582  17.646  0.00  0.00    +0.000 A 
ATOM      4  C   UNL     1       5.391   4.258  16.427  0.00  0.00    +0.000 A 
ATOM      5  I   UNL     1       6.452   4.596  14.679  0.00  0.00    +0.000 I 
ATOM      6  C   UNL     1       4.118   3.710  16.383  0.00  0.00    +0.000 A 
ATOM      7  C   UNL     1       3.400   3.482  17.545  0.00  0.00    +0.000 A 
ATOM      8  N   UNL     1       2.162   2.948  17.455  0.00  0.00    +0.000 NA
ATOM      9  C   UNL     1       1.533   2.760  18.628  0.00  0.00    +0.000 A 
ATOM     10  C   UNL     1       2.082   3.078  19.860  0.00  0.00    +0.000 A 
ATOM     11  N   UNL     1       3.307   3.607  19.974  0.00  0.00    +0.000 NA
ATOM     12  C   UNL     1       3.980   3.815  18.801  0.00  0.00    +0.000 A 
ENDROOT
BRANCH   9  13
ATOM     13  O   UNL     1       0.287   2.223  18.535  0.00  0.00    +0.000 OA
ATOM     14  H   UNL     1       0.143   1.924  19.452  0.00  0.00    +0.000 HD
ENDBRANCH   9  13
BRANCH  10  15
ATOM     15  O   UNL     1       1.399   2.867  21.022  0.00  0.00    +0.000 OA
ATOM     16  H   UNL     1       0.470   2.742  20.760  0.00  0.00    +0.000 HD
ENDBRANCH  10  15
TORSDOF 2
ENDMDL
MODEL 3
REMARK VINA RESULT:      -6.0      2.652      3.335
REMARK  Name = 
REMARK  2 active torsions:
REMARK  status: ('A' for Active; 'I' for Inactive)
REMARK    1  A    between atoms: C_9  and  O_10
REMARK    2  A    between atoms: C_11  and  O_12
REMARK                            x       y       z     vdW  Elec       q    Type
REMARK                         _______ _______ _______ _____ _____    ______ ____
ROOT
ATOM      1  O   UNL     1       7.452   6.457  18.240  0.00  0.00    +0.000 OA
ATOM      2  N   UNL     1       6.606   5.610  17.789  0.00  0.00    +0.000 N 
ATOM      3  C   UNL     1       5.662   5.114  18.675  0.00  0.00    +0.000 A 
ATOM      4  C   UNL     1       4.711   4.196  18.271  0.00  0.00    +0.000 A 
ATOM      5  I   UNL     1       3.323   3.484  19.635  0.00  0.00    +0.000 I 
ATOM      6  C   UNL     1       4.693   3.758  16.955  0.00  0.00    +0.000 A 
ATOM      7  C   UNL     1       5.618   4.226  16.036  0.00  0.00    +0.000 A 
ATOM      8  N   UNL     1       5.565   3.771  14.765  0.00  0.00    +0.000 NA
ATOM      9  C   UNL     1       6.497   4.273  13.936  0.00  0.00    +0.000 A 
ATOM     10  C   UNL     1       7.458   5.194  14.323  0.00  0.00    +0.000 A 
ATOM     11  N   UNL     1       7.530   5.661  15.577  0.00  0.00    +0.000 NA
ATOM     12  C   UNL     1       6.598   5.171  16.450  0.00  0.00    +0.000 A 
ENDROOT
BRANCH   9  13
ATOM     13  O   UNL     1       6.442   3.813  12.658  0.00  0.00    +0.000 OA
ATOM     14  H   UNL     1       7.114   4.374  12.229  0.00  0.00    +0.000 HD
ENDBRANCH   9  13
BRANCH  10  15
ATOM     15  O   UNL     1       8.383   5.672  13.441  0.00  0.00    +0.000 OA
ATOM     16  H   UNL     1       7.896   5.840  12.616  0.00  0.00    +0.000 HD
ENDBRANCH  10  15
TORSDOF 2
ENDMDL
MODEL 4
REMARK VINA RESULT:      -5.9      3.551      4.972
REMARK  Name = 
REMARK  2 active torsions:
REMARK  status: ('A' for Active; 'I' for Inactive)
REMARK    1  A    between atoms: C_9  and  O_10
REMARK    2  A    between atoms: C_11  and  O_12
REMARK                            x       y       z     vdW  Elec       q    Type
REMARK                         _______ _______ _______ _____ _____    ______ ____
ROOT
ATOM      1  O   UNL     1       3.390   7.173  18.196  0.00  0.00    +0.000 OA
ATOM      2  N   UNL     1       3.692   6.030  17.708  0.00  0.00    +0.000 N 
ATOM      3  C   UNL     1       4.709   5.984  16.767  0.00  0.00    +0.000 A 
ATOM      4  C   UNL     1       5.099   4.790  16.190  0.00  0.00    +0.000 A 
ATOM      5  I   UNL     1       6.624   4.774  14.787  0.00  0.00    +0.000 I 
ATOM      6  C   UNL     1       4.467   3.610  16.555  0.00  0.00    +0.000 A 
ATOM      7  C   UNL     1       3.445   3.610  17.490  0.00  0.00    +0.000 A 
ATOM      8  N   UNL     1       2.855   2.438  17.814  0.00  0.00    +0.000 NA
ATOM      9  C   UNL     1       1.873   2.524  18.728  0.00  0.00    +0.000 A 
ATOM     10  C   UNL     1       1.468   3.712  19.318  0.00  0.00    +0.000 A 
ATOM     11  N   UNL     1       2.038   4.885  19.013  0.00  0.00    +0.000 NA
ATOM     12  C   UNL     1       3.042   4.838  18.085  0.00  0.00    +0.000 A 
ENDROOT
BRANCH   9  13
ATOM     13  O   UNL     1       1.281   1.344  19.052  0.00  0.00    +0.000 OA
ATOM     14  H   UNL     1       0.383   1.482  18.697  0.00  0.00    +0.000 HD
ENDBRANCH   9  13
BRANCH  10  15
ATOM     15  O   UNL     1       0.463   3.743  20.241  0.00  0.00    +0.000 OA
ATOM     16  H   UNL     1      -0.221   4.322  19.862  0.00  0.00    +0.000 HD
ENDBRANCH  10  15
TORSDOF 2
ENDMDL
MODEL 5
REMARK VINA RESULT:      -5.9      3.135      4.316
REMARK  Name = 
REMARK  2 active torsions:
REMARK  status: ('A' for Active; 'I' for Inactive)
REMARK    1  A    between atoms: C_9  and  O_10
REMARK    2  A    between atoms: C_11  and  O_12
REMARK                            x       y       z     vdW  Elec       q    Type
REMARK                         _______ _______ _______ _____ _____    ______ ____
ROOT
ATOM      1  O   UNL     1       5.312   5.481  16.858  0.00  0.00    +0.000 OA
ATOM      2  N   UNL     1       4.388   5.746  17.701  0.00  0.00    +0.000 N 
ATOM      3  C   UNL     1       3.719   6.952  17.560  0.00  0.00    +0.000 A 
ATOM      4  C   UNL     1       2.707   7.317  18.427  0.00  0.00    +0.000 A 
ATOM      5  I   UNL     1       1.740   9.132  18.174  0.00  0.00    +0.000 I 
ATOM      6  C   UNL     1       2.346   6.466  19.462  0.00  0.00    +0.000 A 
ATOM      7  C   UNL     1       2.988   5.252  19.641  0.00  0.00    +0.000 A 
ATOM      8  N   UNL     1       2.605   4.455  20.663  0.00  0.00    +0.000 NA
ATOM      9  C   UNL     1       3.278   3.295  20.768  0.00  0.00    +0.000 A 
ATOM     10  C   UNL     1       4.296   2.911  19.908  0.00  0.00    +0.000 A 
ATOM     11  N   UNL     1       4.691   3.684  18.888  0.00  0.00    +0.000 NA
ATOM     12  C   UNL     1       4.030   4.874  18.749  0.00  0.00    +0.000 A 
ENDROOT
BRANCH   9  13
ATOM     13  O   UNL     1       2.892   2.495  21.798  0.00  0.00    +0.000 OA
ATOM     14  H   UNL     1       3.742   2.087  22.046  0.00  0.00    +0.000 HD
ENDBRANCH   9  13
BRANCH  10  15
ATOM     15  O   UNL     1       4.948   1.722  20.061  0.00  0.00    +0.000 OA
ATOM     16  H   UNL     1       5.601   1.871  20.766  0.00  0.00    +0.000 HD
ENDBRANCH  10  15
TORSDOF 2
ENDMDL
MODEL 6
REMARK VINA RESULT:      -5.9      2.204      2.621
REMARK  Name = 
REMARK  2 active torsions:
REMARK  status: ('A' for Active; 'I' for Inactive)
REMARK    1  A    between atoms: C_9  and  O_10
REMARK    2  A    between atoms: C_11  and  O_12
REMARK                            x       y       z     vdW  Elec       q    Type
REMARK                         _______ _______ _______ _____ _____    ______ ____
ROOT
ATOM      1  O   UNL     1       6.617   5.435  19.697  0.00  0.00    +0.000 OA
ATOM      2  N   UNL     1       5.656   4.891  19.051  0.00  0.00    +0.000 N 
ATOM      3  C   UNL     1       4.548   4.481  19.776  0.00  0.00    +0.000 A 
ATOM      4  C   UNL     1       3.466   3.884  19.156  0.00  0.00    +0.000 A 
ATOM      5  I   UNL     1       1.834   3.287  20.285  0.00  0.00    +0.000 I 
ATOM      6  C   UNL     1       3.480   3.690  17.782  0.00  0.00    +0.000 A 
ATOM      7  C   UNL     1       4.567   4.083  17.019  0.00  0.00    +0.000 A 
ATOM      8  N   UNL     1       4.540   3.873  15.685  0.00  0.00    +0.000 NA
ATOM      9  C   UNL     1       5.633   4.283  15.017  0.00  0.00    +0.000 A 
ATOM     10  C   UNL     1       6.727   4.882  15.620  0.00  0.00    +0.000 A 
ATOM     11  N   UNL     1       6.777   5.102  16.941  0.00  0.00    +0.000 NA
ATOM     12  C   UNL     1       5.682   4.698  17.655  0.00  0.00    +0.000 A 
ENDROOT
BRANCH   9  13
ATOM     13  O   UNL     1       5.603   4.069  13.674  0.00  0.00    +0.000 OA
ATOM     14  H   UNL     1       4.642   4.053  13.510  0.00  0.00    +0.000 HD
ENDBRANCH   9  13
BRANCH  10  15
ATOM     15  O   UNL     1       7.813   5.279  14.895  0.00  0.00    +0.000 OA
ATOM     16  H   UNL     1       7.833   4.697  14.116  0.00  0.00    +0.000 HD
ENDBRANCH  10  15
TORSDOF 2
ENDMDL
MODEL 7
REMARK VINA RESULT:      -5.9      3.273      4.506
REMARK  Name = 
REMARK  2 active torsions:
REMARK  status: ('A' for Active; 'I' for Inactive)
REMARK    1  A    between atoms: C_9  and  O_10
REMARK    2  A    between atoms: C_11  and  O_12
REMARK                            x       y       z     vdW  Elec       q    Type
REMARK                         _______ _______ _______ _____ _____    ______ ____
ROOT
ATOM      1  O   UNL     1       5.899   5.404  17.235  0.00  0.00    +0.000 OA
ATOM      2  N   UNL     1       4.669   5.504  17.573  0.00  0.00    +0.000 N 
ATOM      3  C   UNL     1       4.118   6.776  17.615  0.00  0.00    +0.000 A 
ATOM      4  C   UNL     1       2.797   6.973  17.969  0.00  0.00    +0.000 A 
ATOM      5  I   UNL     1       2.021   8.894  18.018  0.00  0.00    +0.000 I 
ATOM      6  C   UNL     1       1.999   5.884  18.290  0.00  0.00    +0.000 A 
ATOM      7  C   UNL     1       2.509   4.596  18.262  0.00  0.00    +0.000 A 
ATOM      8  N   UNL     1       1.697   3.565  18.583  0.00  0.00    +0.000 NA
ATOM      9  C   UNL     1       2.269   2.348  18.532  0.00  0.00    +0.000 A 
ATOM     10  C   UNL     1       3.591   2.130  18.179  0.00  0.00    +0.000 A 
ATOM     11  N   UNL     1       4.414   3.136  17.856  0.00  0.00    +0.000 NA
ATOM     12  C   UNL     1       3.869   4.390  17.897  0.00  0.00    +0.000 A 
ENDROOT
BRANCH   9  13
ATOM     13  O   UNL     1       1.450   1.312  18.857  0.00  0.00    +0.000 OA
ATOM     14  H   UNL     1       0.664   1.520  18.317  0.00  0.00    +0.000 HD
ENDBRANCH   9  13
BRANCH  10  15
ATOM     15  O   UNL     1       4.122   0.873  18.145  0.00  0.00    +0.000 OA
ATOM     16  H   UNL     1       3.592   0.384  17.491  0.00  0.00    +0.000 HD
ENDBRANCH  10  15
TORSDOF 2
ENDMDL
MODEL 8
REMARK VINA RESULT:      -5.9      1.058      1.058
REMARK  Name = 
REMARK  2 active torsions:
REMARK  status: ('A' for Active; 'I' for Inactive)
REMARK    1  A    between atoms: C_9  and  O_10
REMARK    2  A    between atoms: C_11  and  O_12
REMARK                            x       y       z     vdW  Elec       q    Type
REMARK                         _______ _______ _______ _____ _____    ______ ____
ROOT
ATOM      1  O   UNL     1       2.838   7.467  18.570  0.00  0.00    +0.000 OA
ATOM      2  N   UNL     1       3.151   6.246  18.356  0.00  0.00    +0.000 N 
ATOM      3  C   UNL     1       2.213   5.277  18.681  0.00  0.00    +0.000 A 
ATOM      4  C   UNL     1       2.470   3.934  18.482  0.00  0.00    +0.000 A 
ATOM      5  I   UNL     1       1.035   2.527  18.985  0.00  0.00    +0.000 I 
ATOM      6  C   UNL     1       3.687   3.538  17.946  0.00  0.00    +0.000 A 
ATOM      7  C   UNL     1       4.653   4.471  17.608  0.00  0.00    +0.000 A 
ATOM      8  N   UNL     1       5.825   4.040  17.091  0.00  0.00    +0.000 NA
ATOM      9  C   UNL     1       6.709   5.008  16.791  0.00  0.00    +0.000 A 
ATOM     10  C   UNL     1       6.470   6.360  16.983  0.00  0.00    +0.000 A 
ATOM     11  N   UNL     1       5.316   6.810  17.493  0.00  0.00    +0.000 NA
ATOM     12  C   UNL     1       4.391   5.854  17.812  0.00  0.00    +0.000 A 
ENDROOT
BRANCH   9  13
ATOM     13  O   UNL     1       7.888   4.572  16.272  0.00  0.00    +0.000 OA
ATOM     14  H   UNL     1       7.875   3.635  16.542  0.00  0.00    +0.000 HD
ENDBRANCH   9  13
BRANCH  10  15
ATOM     15  O   UNL     1       7.403   7.302  16.662  0.00  0.00    +0.000 OA
ATOM     16  H   UNL     1       7.069   8.137  17.031  0.00  0.00    +0.000 HD
ENDBRANCH  10  15
TORSDOF 2
ENDMDL
MODEL 9
REMARK VINA RESULT:      -5.8      2.070      2.140
REMARK  Name = 
REMARK  2 active torsions:
REMARK  status: ('A' for Active; 'I' for Inactive)
REMARK    1  A    between atoms: C_9  and  O_10
REMARK    2  A    between atoms: C_11  and  O_12
REMARK                            x       y       z     vdW  Elec       q    Type
REMARK                         _______ _______ _______ _____ _____    ______ ____
ROOT
ATOM      1  O   UNL     1       2.241   3.182  16.247  0.00  0.00    +0.000 OA
ATOM      2  N   UNL     1       2.878   3.344  17.344  0.00  0.00    +0.000 N 
ATOM      3  C   UNL     1       2.190   3.111  18.525  0.00  0.00    +0.000 A 
ATOM      4  C   UNL     1       2.803   3.263  19.754  0.00  0.00    +0.000 A 
ATOM      5  I   UNL     1       1.730   2.903  21.490  0.00  0.00    +0.000 I 
ATOM      6  C   UNL     1       4.132   3.654  19.817  0.00  0.00    +0.000 A 
ATOM      7  C   UNL     1       4.858   3.899  18.663  0.00  0.00    +0.000 A 
ATOM      8  N   UNL     1       6.150   4.280  18.771  0.00  0.00    +0.000 NA
ATOM      9  C   UNL     1       6.782   4.498  17.604  0.00  0.00    +0.000 A 
ATOM     10  C   UNL     1       6.185   4.352  16.362  0.00  0.00    +0.000 A 
ATOM     11  N   UNL     1       4.907   3.974  16.230  0.00  0.00    +0.000 NA
ATOM     12  C   UNL     1       4.229   3.743  17.396  0.00  0.00    +0.000 A 
ENDROOT
BRANCH   9  13
ATOM     13  O   UNL     1       8.082   4.882  17.716  0.00  0.00    +0.000 OA
ATOM     14  H   UNL     1       8.043   5.782  17.343  0.00  0.00    +0.000 HD
ENDBRANCH   9  13
BRANCH  10  15
ATOM     15  O   UNL     1       6.874   4.587  15.208  0.00  0.00    +0.000 OA
ATOM     16  H   UNL     1       6.198   4.667  14.512  0.00  0.00    +0.000 HD
ENDBRANCH  10  15
TORSDOF 2
ENDMDL
