MODEL 1
REMARK VINA RESULT:      -7.9      0.000      0.000
REMARK  Name = 
REMARK  11 active torsions:
REMARK  status: ('A' for Active; 'I' for Inactive)
REMARK    1  A    between atoms: C_1  and  O_2
REMARK    2  A    between atoms: O_2  and  C_3
REMARK    3  A    between atoms: C_6  and  C_7
REMARK    4  A    between atoms: N_9  and  C_10
REMARK    5  A    between atoms: N_9  and  C_16
REMARK    6  A    between atoms: C_10  and  C_11
REMARK    7  A    between atoms: C_16  and  C_17
REMARK    8  A    between atoms: C_21  and  C_22
REMARK    9  A    between atoms: C_27  and  O_28
REMARK   10  A    between atoms: C_30  and  O_31
REMARK   11  A    between atoms: O_31  and  C_32
REMARK                            x       y       z     vdW  Elec       q    Type
REMARK                         _______ _______ _______ _____ _____    ______ ____
ROOT
ATOM      1  C   UNL     1       4.122   6.635  18.292  0.00  0.00    +0.000 C 
ATOM      2  O   UNL     1       5.182   7.286  18.232  0.00  0.00    +0.000 OA
ATOM      3  N   UNL     1       4.175   5.246  18.099  0.00  0.00    +0.000 N 
ENDROOT
BRANCH   1   7
ATOM      4  C   UNL     1       0.752   9.310  19.060  0.00  0.00    +0.000 A 
ATOM      5  C   UNL     1       1.452   9.291  17.852  0.00  0.00    +0.000 A 
ATOM      6  C   UNL     1       2.512   8.404  17.658  0.00  0.00    +0.000 A 
ATOM      7  C   UNL     1       2.920   7.479  18.645  0.00  0.00    +0.000 A 
ATOM      8  C   UNL     1       2.191   7.503  19.835  0.00  0.00    +0.000 A 
ATOM      9  C   UNL     1       1.157   8.430  20.072  0.00  0.00    +0.000 A 
BRANCH   4  11
ATOM     10  C   UNL     1       0.015  11.551  19.366  0.00  0.00    +0.000 C 
ATOM     11  O   UNL     1      -0.287  10.164  19.299  0.00  0.00    +0.000 OA
ENDBRANCH   4  11
BRANCH   9  12
ATOM     12  O   UNL     1       0.623   8.305  21.335  0.00  0.00    +0.000 OA
ATOM     13  C   UNL     1       1.030   9.205  22.355  0.00  0.00    +0.000 C 
ENDBRANCH   9  12
ENDBRANCH   1   7
BRANCH   3  14
ATOM     14  C   UNL     1       3.024   4.342  17.947  0.00  0.00    +0.000 C 
BRANCH  14  15
ATOM     15  C   UNL     1       2.459   3.890  19.229  0.00  0.00    +0.000 A 
ATOM     16  C   UNL     1       1.207   3.899  19.813  0.00  0.00    +0.000 A 
ATOM     17  C   UNL     1       1.320   3.189  21.029  0.00  0.00    +0.000 A 
ATOM     18  C   UNL     1       2.631   2.790  21.115  0.00  0.00    +0.000 A 
ATOM     19  O   UNL     1       3.328   3.215  20.034  0.00  0.00    +0.000 OA
ENDBRANCH  14  15
ENDBRANCH   3  14
BRANCH   3  20
ATOM     20  C   UNL     1       5.478   4.647  17.757  0.00  0.00    +0.000 C 
BRANCH  20  21
ATOM     21  C   UNL     1       5.820   4.498  16.296  0.00  0.00    +0.000 A 
ATOM     22  C   UNL     1       5.592   3.383  15.510  0.00  0.00    +0.000 A 
ATOM     23  C   UNL     1       5.828   3.503  14.133  0.00  0.00    +0.000 A 
ATOM     24  C   UNL     1       4.915   3.117  13.144  0.00  0.00    +0.000 A 
ATOM     25  C   UNL     1       5.178   3.464  11.813  0.00  0.00    +0.000 A 
ATOM     26  C   UNL     1       4.068   3.673  10.826  0.00  0.00    +0.000 C 
ATOM     27  C   UNL     1       6.484   3.805  11.455  0.00  0.00    +0.000 A 
ATOM     28  C   UNL     1       7.340   4.256  12.449  0.00  0.00    +0.000 A 
ATOM     29  C   UNL     1       6.849   4.356  13.738  0.00  0.00    +0.000 A 
ATOM     30  N   UNL     1       7.129   5.422  14.489  0.00  0.00    +0.000 NA
ATOM     31  C   UNL     1       6.408   5.561  15.617  0.00  0.00    +0.000 A 
BRANCH  31  32
ATOM     32  O   UNL     1       5.562   6.660  15.527  0.00  0.00    +0.000 OA
ATOM     33  H   UNL     1       5.498   6.744  14.556  0.00  0.00    +0.000 HD
ENDBRANCH  31  32
ENDBRANCH  20  21
ENDBRANCH   3  20
TORSDOF 8
ENDMDL
MODEL 2
REMARK VINA RESULT:      -7.2      3.165      8.573
REMARK  Name = 
REMARK  11 active torsions:
REMARK  status: ('A' for Active; 'I' for Inactive)
REMARK    1  A    between atoms: C_1  and  O_2
REMARK    2  A    between atoms: O_2  and  C_3
REMARK    3  A    between atoms: C_6  and  C_7
REMARK    4  A    between atoms: N_9  and  C_10
REMARK    5  A    between atoms: N_9  and  C_16
REMARK    6  A    between atoms: C_10  and  C_11
REMARK    7  A    between atoms: C_16  and  C_17
REMARK    8  A    between atoms: C_21  and  C_22
REMARK    9  A    between atoms: C_27  and  O_28
REMARK   10  A    between atoms: C_30  and  O_31
REMARK   11  A    between atoms: O_31  and  C_32
REMARK                            x       y       z     vdW  Elec       q    Type
REMARK                         _______ _______ _______ _____ _____    ______ ____
ROOT
ATOM      1  C   UNL     1       2.331   8.433  18.189  0.00  0.00    +0.000 C 
ATOM      2  O   UNL     1       2.401   9.258  17.259  0.00  0.00    +0.000 OA
ATOM      3  N   UNL     1       1.645   8.795  19.358  0.00  0.00    +0.000 N 
ENDROOT
BRANCH   1   7
ATOM      4  C   UNL     1       4.379   4.759  17.003  0.00  0.00    +0.000 A 
ATOM      5  C   UNL     1       4.954   6.026  16.887  0.00  0.00    +0.000 A 
ATOM      6  C   UNL     1       4.257   7.164  17.296  0.00  0.00    +0.000 A 
ATOM      7  C   UNL     1       2.963   7.101  17.857  0.00  0.00    +0.000 A 
ATOM      8  C   UNL     1       2.418   5.823  17.982  0.00  0.00    +0.000 A 
ATOM      9  C   UNL     1       3.081   4.667  17.521  0.00  0.00    +0.000 A 
BRANCH   4  11
ATOM     10  C   UNL     1       5.864   3.705  15.472  0.00  0.00    +0.000 C 
ATOM     11  O   UNL     1       5.019   3.617  16.611  0.00  0.00    +0.000 OA
ENDBRANCH   4  11
BRANCH   9  12
ATOM     12  O   UNL     1       2.327   3.529  17.696  0.00  0.00    +0.000 OA
ATOM     13  C   UNL     1       1.248   3.542  18.618  0.00  0.00    +0.000 C 
ENDBRANCH   9  12
ENDBRANCH   1   7
BRANCH   3  14
ATOM     14  C   UNL     1       1.614   8.040  20.621  0.00  0.00    +0.000 C 
BRANCH  14  15
ATOM     15  C   UNL     1       0.716   8.622  21.631  0.00  0.00    +0.000 A 
ATOM     16  C   UNL     1      -0.639   8.571  21.892  0.00  0.00    +0.000 A 
ATOM     17  C   UNL     1      -0.847   9.266  23.105  0.00  0.00    +0.000 A 
ATOM     18  C   UNL     1       0.391   9.700  23.510  0.00  0.00    +0.000 A 
ATOM     19  O   UNL     1       1.341   9.320  22.622  0.00  0.00    +0.000 OA
ENDBRANCH  14  15
ENDBRANCH   3  14
BRANCH   3  20
ATOM     20  C   UNL     1       1.114  10.168  19.448  0.00  0.00    +0.000 C 
BRANCH  20  21
ATOM     21  C   UNL     1      -0.162  10.476  18.707  0.00  0.00    +0.000 A 
ATOM     22  C   UNL     1      -1.110   9.559  18.290  0.00  0.00    +0.000 A 
ATOM     23  C   UNL     1      -2.309  10.061  17.765  0.00  0.00    +0.000 A 
ATOM     24  C   UNL     1      -3.582   9.644  18.176  0.00  0.00    +0.000 A 
ATOM     25  C   UNL     1      -4.701  10.353  17.723  0.00  0.00    +0.000 A 
ATOM     26  C   UNL     1      -5.962  10.420  18.532  0.00  0.00    +0.000 C 
ATOM     27  C   UNL     1      -4.569  11.164  16.595  0.00  0.00    +0.000 A 
ATOM     28  C   UNL     1      -3.303  11.621  16.260  0.00  0.00    +0.000 A 
ATOM     29  C   UNL     1      -2.243  11.261  17.070  0.00  0.00    +0.000 A 
ATOM     30  N   UNL     1      -1.317  12.157  17.415  0.00  0.00    +0.000 NA
ATOM     31  C   UNL     1      -0.477  11.796  18.403  0.00  0.00    +0.000 A 
BRANCH  31  32
ATOM     32  O   UNL     1      -0.703  12.559  19.543  0.00  0.00    +0.000 OA
ATOM     33  H   UNL     1       0.188  12.936  19.672  0.00  0.00    +0.000 HD
ENDBRANCH  31  32
ENDBRANCH  20  21
ENDBRANCH   3  20
TORSDOF 8
ENDMDL
MODEL 3
REMARK VINA RESULT:      -7.2      4.510     11.265
REMARK  Name = 
REMARK  11 active torsions:
REMARK  status: ('A' for Active; 'I' for Inactive)
REMARK    1  A    between atoms: C_1  and  O_2
REMARK    2  A    between atoms: O_2  and  C_3
REMARK    3  A    between atoms: C_6  and  C_7
REMARK    4  A    between atoms: N_9  and  C_10
REMARK    5  A    between atoms: N_9  and  C_16
REMARK    6  A    between atoms: C_10  and  C_11
REMARK    7  A    between atoms: C_16  and  C_17
REMARK    8  A    between atoms: C_21  and  C_22
REMARK    9  A    between atoms: C_27  and  O_28
REMARK   10  A    between atoms: C_30  and  O_31
REMARK   11  A    between atoms: O_31  and  C_32
REMARK                            x       y       z     vdW  Elec       q    Type
REMARK                         _______ _______ _______ _____ _____    ______ ____
ROOT
ATOM      1  C   UNL     1       0.607  10.702  19.346  0.00  0.00    +0.000 C 
ATOM      2  O   UNL     1       1.317  11.623  19.793  0.00  0.00    +0.000 OA
ATOM      3  N   UNL     1      -0.728  10.983  19.019  0.00  0.00    +0.000 N 
ENDROOT
BRANCH   1   7
ATOM      4  C   UNL     1       2.742   6.997  18.446  0.00  0.00    +0.000 A 
ATOM      5  C   UNL     1       2.639   8.058  17.544  0.00  0.00    +0.000 A 
ATOM      6  C   UNL     1       1.956   9.224  17.892  0.00  0.00    +0.000 A 
ATOM      7  C   UNL     1       1.357   9.404  19.158  0.00  0.00    +0.000 A 
ATOM      8  C   UNL     1       1.491   8.339  20.049  0.00  0.00    +0.000 A 
ATOM      9  C   UNL     1       2.125   7.131  19.697  0.00  0.00    +0.000 A 
BRANCH   4  11
ATOM     10  C   UNL     1       4.812   5.888  18.066  0.00  0.00    +0.000 C 
ATOM     11  O   UNL     1       3.394   5.833  18.149  0.00  0.00    +0.000 OA
ENDBRANCH   4  11
BRANCH   9  12
ATOM     12  O   UNL     1       2.086   6.204  20.714  0.00  0.00    +0.000 OA
ATOM     13  C   UNL     1       1.410   4.973  20.508  0.00  0.00    +0.000 C 
ENDBRANCH   9  12
ENDBRANCH   1   7
BRANCH   3  14
ATOM     14  C   UNL     1      -1.763  10.000  18.659  0.00  0.00    +0.000 C 
BRANCH  14  15
ATOM     15  C   UNL     1      -2.514  10.356  17.444  0.00  0.00    +0.000 A 
ATOM     16  C   UNL     1      -2.356  10.141  16.089  0.00  0.00    +0.000 A 
ATOM     17  C   UNL     1      -3.514  10.649  15.459  0.00  0.00    +0.000 A 
ATOM     18  C   UNL     1      -4.308  11.143  16.464  0.00  0.00    +0.000 A 
ATOM     19  O   UNL     1      -3.708  10.976  17.668  0.00  0.00    +0.000 OA
ENDBRANCH  14  15
ENDBRANCH   3  14
BRANCH   3  20
ATOM     20  C   UNL     1      -1.237  12.338  19.300  0.00  0.00    +0.000 C 
BRANCH  20  21
ATOM     21  C   UNL     1      -1.907  12.573  20.631  0.00  0.00    +0.000 A 
ATOM     22  C   UNL     1      -1.274  12.747  21.848  0.00  0.00    +0.000 A 
ATOM     23  C   UNL     1      -2.067  13.122  22.942  0.00  0.00    +0.000 A 
ATOM     24  C   UNL     1      -1.769  14.190  23.799  0.00  0.00    +0.000 A 
ATOM     25  C   UNL     1      -2.732  14.590  24.734  0.00  0.00    +0.000 A 
ATOM     26  C   UNL     1      -2.803  16.007  25.222  0.00  0.00    +0.000 C 
ATOM     27  C   UNL     1      -3.754  13.700  25.066  0.00  0.00    +0.000 A 
ATOM     28  C   UNL     1      -4.073  12.700  24.160  0.00  0.00    +0.000 A 
ATOM     29  C   UNL     1      -3.371  12.647  22.971  0.00  0.00    +0.000 A 
ATOM     30  N   UNL     1      -4.004  12.427  21.818  0.00  0.00    +0.000 NA
ATOM     31  C   UNL     1      -3.294  12.650  20.696  0.00  0.00    +0.000 A 
BRANCH  31  32
ATOM     32  O   UNL     1      -3.793  13.750  20.009  0.00  0.00    +0.000 OA
ATOM     33  H   UNL     1      -3.070  14.388  20.166  0.00  0.00    +0.000 HD
ENDBRANCH  31  32
ENDBRANCH  20  21
ENDBRANCH   3  20
TORSDOF 8
ENDMDL
MODEL 4
REMARK VINA RESULT:      -7.2      3.111      8.628
REMARK  Name = 
REMARK  11 active torsions:
REMARK  status: ('A' for Active; 'I' for Inactive)
REMARK    1  A    between atoms: C_1  and  O_2
REMARK    2  A    between atoms: O_2  and  C_3
REMARK    3  A    between atoms: C_6  and  C_7
REMARK    4  A    between atoms: N_9  and  C_10
REMARK    5  A    between atoms: N_9  and  C_16
REMARK    6  A    between atoms: C_10  and  C_11
REMARK    7  A    between atoms: C_16  and  C_17
REMARK    8  A    between atoms: C_21  and  C_22
REMARK    9  A    between atoms: C_27  and  O_28
REMARK   10  A    between atoms: C_30  and  O_31
REMARK   11  A    between atoms: O_31  and  C_32
REMARK                            x       y       z     vdW  Elec       q    Type
REMARK                         _______ _______ _______ _____ _____    ______ ____
ROOT
ATOM      1  C   UNL     1       2.286   8.118  18.182  0.00  0.00    +0.000 C 
ATOM      2  O   UNL     1       2.386   8.866  17.192  0.00  0.00    +0.000 OA
ATOM      3  N   UNL     1       1.678   8.618  19.343  0.00  0.00    +0.000 N 
ENDROOT
BRANCH   1   7
ATOM      4  C   UNL     1       3.451   3.946  17.600  0.00  0.00    +0.000 A 
ATOM      5  C   UNL     1       2.124   4.356  17.746  0.00  0.00    +0.000 A 
ATOM      6  C   UNL     1       1.811   5.705  17.915  0.00  0.00    +0.000 A 
ATOM      7  C   UNL     1       2.795   6.718  17.929  0.00  0.00    +0.000 A 
ATOM      8  C   UNL     1       4.111   6.286  17.760  0.00  0.00    +0.000 A 
ATOM      9  C   UNL     1       4.454   4.924  17.647  0.00  0.00    +0.000 A 
BRANCH   4  11
ATOM     10  C   UNL     1       3.502   1.745  18.501  0.00  0.00    +0.000 C 
ATOM     11  O   UNL     1       3.809   2.637  17.438  0.00  0.00    +0.000 OA
ENDBRANCH   4  11
BRANCH   9  12
ATOM     12  O   UNL     1       5.814   4.734  17.548  0.00  0.00    +0.000 OA
ATOM     13  C   UNL     1       6.400   4.548  16.269  0.00  0.00    +0.000 C 
ENDBRANCH   9  12
ENDBRANCH   1   7
BRANCH   3  14
ATOM     14  C   UNL     1       1.636   7.960  20.659  0.00  0.00    +0.000 C 
BRANCH  14  15
ATOM     15  C   UNL     1       0.729   8.615  21.615  0.00  0.00    +0.000 A 
ATOM     16  C   UNL     1      -0.639   8.660  21.804  0.00  0.00    +0.000 A 
ATOM     17  C   UNL     1      -0.861   9.384  22.997  0.00  0.00    +0.000 A 
ATOM     18  C   UNL     1       0.382   9.738  23.463  0.00  0.00    +0.000 A 
ATOM     19  O   UNL     1       1.348   9.283  22.630  0.00  0.00    +0.000 OA
ENDBRANCH  14  15
ENDBRANCH   3  14
BRANCH   3  20
ATOM     20  C   UNL     1       1.264  10.033  19.349  0.00  0.00    +0.000 C 
BRANCH  20  21
ATOM     21  C   UNL     1      -0.025  10.389  18.652  0.00  0.00    +0.000 A 
ATOM     22  C   UNL     1      -0.966   9.501  18.165  0.00  0.00    +0.000 A 
ATOM     23  C   UNL     1      -2.177  10.033  17.698  0.00  0.00    +0.000 A 
ATOM     24  C   UNL     1      -3.440   9.565  18.084  0.00  0.00    +0.000 A 
ATOM     25  C   UNL     1      -4.573  10.298  17.707  0.00  0.00    +0.000 A 
ATOM     26  C   UNL     1      -5.825  10.278  18.532  0.00  0.00    +0.000 C 
ATOM     27  C   UNL     1      -4.462  11.206  16.653  0.00  0.00    +0.000 A 
ATOM     28  C   UNL     1      -3.205  11.707  16.347  0.00  0.00    +0.000 A 
ATOM     29  C   UNL     1      -2.132  11.290  17.111  0.00  0.00    +0.000 A 
ATOM     30  N   UNL     1      -1.213  12.163  17.523  0.00  0.00    +0.000 NA
ATOM     31  C   UNL     1      -0.358  11.727  18.467  0.00  0.00    +0.000 A 
BRANCH  31  32
ATOM     32  O   UNL     1      -0.579  12.384  19.672  0.00  0.00    +0.000 OA
ATOM     33  H   UNL     1      -1.547  12.273  19.749  0.00  0.00    +0.000 HD
ENDBRANCH  31  32
ENDBRANCH  20  21
ENDBRANCH   3  20
TORSDOF 8
ENDMDL
MODEL 5
REMARK VINA RESULT:      -7.1      1.896      7.985
REMARK  Name = 
REMARK  11 active torsions:
REMARK  status: ('A' for Active; 'I' for Inactive)
REMARK    1  A    between atoms: C_1  and  O_2
REMARK    2  A    between atoms: O_2  and  C_3
REMARK    3  A    between atoms: C_6  and  C_7
REMARK    4  A    between atoms: N_9  and  C_10
REMARK    5  A    between atoms: N_9  and  C_16
REMARK    6  A    between atoms: C_10  and  C_11
REMARK    7  A    between atoms: C_16  and  C_17
REMARK    8  A    between atoms: C_21  and  C_22
REMARK    9  A    between atoms: C_27  and  O_28
REMARK   10  A    between atoms: C_30  and  O_31
REMARK   11  A    between atoms: O_31  and  C_32
REMARK                            x       y       z     vdW  Elec       q    Type
REMARK                         _______ _______ _______ _____ _____    ______ ____
ROOT
ATOM      1  C   UNL     1       5.005   5.732  17.597  0.00  0.00    +0.000 C 
ATOM      2  O   UNL     1       5.873   6.290  18.293  0.00  0.00    +0.000 OA
ATOM      3  N   UNL     1       3.688   5.678  18.079  0.00  0.00    +0.000 N 
ENDROOT
BRANCH   1   7
ATOM      4  C   UNL     1       6.327   4.028  13.795  0.00  0.00    +0.000 A 
ATOM      5  C   UNL     1       5.167   3.616  14.456  0.00  0.00    +0.000 A 
ATOM      6  C   UNL     1       4.787   4.206  15.661  0.00  0.00    +0.000 A 
ATOM      7  C   UNL     1       5.526   5.249  16.264  0.00  0.00    +0.000 A 
ATOM      8  C   UNL     1       6.669   5.657  15.575  0.00  0.00    +0.000 A 
ATOM      9  C   UNL     1       7.102   5.034  14.387  0.00  0.00    +0.000 A 
BRANCH   4  11
ATOM     10  C   UNL     1       5.784   2.743  11.869  0.00  0.00    +0.000 C 
ATOM     11  O   UNL     1       6.744   3.476  12.617  0.00  0.00    +0.000 OA
ENDBRANCH   4  11
BRANCH   9  12
ATOM     12  O   UNL     1       8.283   5.565  13.920  0.00  0.00    +0.000 OA
ATOM     13  C   UNL     1       8.383   5.946  12.556  0.00  0.00    +0.000 C 
ENDBRANCH   9  12
ENDBRANCH   1   7
BRANCH   3  14
ATOM     14  C   UNL     1       2.577   4.909  17.498  0.00  0.00    +0.000 C 
BRANCH  14  15
ATOM     15  C   UNL     1       2.203   3.727  18.291  0.00  0.00    +0.000 A 
ATOM     16  C   UNL     1       1.046   3.263  18.885  0.00  0.00    +0.000 A 
ATOM     17  C   UNL     1       1.338   1.980  19.399  0.00  0.00    +0.000 A 
ATOM     18  C   UNL     1       2.653   1.737  19.088  0.00  0.00    +0.000 A 
ATOM     19  O   UNL     1       3.186   2.791  18.424  0.00  0.00    +0.000 OA
ENDBRANCH  14  15
ENDBRANCH   3  14
BRANCH   3  20
ATOM     20  C   UNL     1       3.425   6.219  19.425  0.00  0.00    +0.000 C 
BRANCH  20  21
ATOM     21  C   UNL     1       2.465   7.376  19.541  0.00  0.00    +0.000 A 
ATOM     22  C   UNL     1       2.223   8.340  18.579  0.00  0.00    +0.000 A 
ATOM     23  C   UNL     1       1.170   9.236  18.812  0.00  0.00    +0.000 A 
ATOM     24  C   UNL     1       0.164   9.524  17.880  0.00  0.00    +0.000 A 
ATOM     25  C   UNL     1      -0.939  10.282  18.294  0.00  0.00    +0.000 A 
ATOM     26  C   UNL     1      -2.282  10.123  17.645  0.00  0.00    +0.000 C 
ATOM     27  C   UNL     1      -0.826  11.053  19.451  0.00  0.00    +0.000 A 
ATOM     28  C   UNL     1       0.132  10.693  20.388  0.00  0.00    +0.000 A 
ATOM     29  C   UNL     1       0.912   9.583  20.131  0.00  0.00    +0.000 A 
ATOM     30  N   UNL     1       1.170   8.696  21.094  0.00  0.00    +0.000 NA
ATOM     31  C   UNL     1       1.710   7.528  20.699  0.00  0.00    +0.000 A 
BRANCH  31  32
ATOM     32  O   UNL     1       0.809   6.485  20.879  0.00  0.00    +0.000 OA
ATOM     33  H   UNL     1       0.861   6.064  19.999  0.00  0.00    +0.000 HD
ENDBRANCH  31  32
ENDBRANCH  20  21
ENDBRANCH   3  20
TORSDOF 8
ENDMDL
MODEL 6
REMARK VINA RESULT:      -7.1      4.320     11.103
REMARK  Name = 
REMARK  11 active torsions:
REMARK  status: ('A' for Active; 'I' for Inactive)
REMARK    1  A    between atoms: C_1  and  O_2
REMARK    2  A    between atoms: O_2  and  C_3
REMARK    3  A    between atoms: C_6  and  C_7
REMARK    4  A    between atoms: N_9  and  C_10
REMARK    5  A    between atoms: N_9  and  C_16
REMARK    6  A    between atoms: C_10  and  C_11
REMARK    7  A    between atoms: C_16  and  C_17
REMARK    8  A    between atoms: C_21  and  C_22
REMARK    9  A    between atoms: C_27  and  O_28
REMARK   10  A    between atoms: C_30  and  O_31
REMARK   11  A    between atoms: O_31  and  C_32
REMARK                            x       y       z     vdW  Elec       q    Type
REMARK                         _______ _______ _______ _____ _____    ______ ____
ROOT
ATOM      1  C   UNL     1       0.821  10.735  19.167  0.00  0.00    +0.000 C 
ATOM      2  O   UNL     1       1.682  11.605  19.396  0.00  0.00    +0.000 OA
ATOM      3  N   UNL     1      -0.477  11.148  18.830  0.00  0.00    +0.000 N 
ENDROOT
BRANCH   1   7
ATOM      4  C   UNL     1       2.400   6.694  19.692  0.00  0.00    +0.000 A 
ATOM      5  C   UNL     1       1.718   7.385  20.696  0.00  0.00    +0.000 A 
ATOM      6  C   UNL     1       1.223   8.669  20.466  0.00  0.00    +0.000 A 
ATOM      7  C   UNL     1       1.363   9.327  19.223  0.00  0.00    +0.000 A 
ATOM      8  C   UNL     1       2.029   8.608  18.230  0.00  0.00    +0.000 A 
ATOM      9  C   UNL     1       2.587   7.335  18.460  0.00  0.00    +0.000 A 
BRANCH   4  11
ATOM     10  C   UNL     1       2.189   4.565  20.731  0.00  0.00    +0.000 C 
ATOM     11  O   UNL     1       2.908   5.439  19.871  0.00  0.00    +0.000 OA
ENDBRANCH   4  11
BRANCH   9  12
ATOM     12  O   UNL     1       3.247   6.846  17.355  0.00  0.00    +0.000 OA
ATOM     13  C   UNL     1       4.666   6.832  17.341  0.00  0.00    +0.000 C 
ENDBRANCH   9  12
ENDBRANCH   1   7
BRANCH   3  14
ATOM     14  C   UNL     1      -1.663  10.285  18.708  0.00  0.00    +0.000 C 
BRANCH  14  15
ATOM     15  C   UNL     1      -2.444  10.529  17.484  0.00  0.00    +0.000 A 
ATOM     16  C   UNL     1      -2.342  10.155  16.159  0.00  0.00    +0.000 A 
ATOM     17  C   UNL     1      -3.503  10.632  15.511  0.00  0.00    +0.000 A 
ATOM     18  C   UNL     1      -4.243  11.268  16.478  0.00  0.00    +0.000 A 
ATOM     19  O   UNL     1      -3.607  11.215  17.673  0.00  0.00    +0.000 OA
ENDBRANCH  14  15
ENDBRANCH   3  14
BRANCH   3  20
ATOM     20  C   UNL     1      -0.767  12.594  18.846  0.00  0.00    +0.000 C 
BRANCH  20  21
ATOM     21  C   UNL     1      -1.420  13.164  20.080  0.00  0.00    +0.000 A 
ATOM     22  C   UNL     1      -2.773  13.164  20.367  0.00  0.00    +0.000 A 
ATOM     23  C   UNL     1      -3.163  13.593  21.643  0.00  0.00    +0.000 A 
ATOM     24  C   UNL     1      -4.035  12.880  22.478  0.00  0.00    +0.000 A 
ATOM     25  C   UNL     1      -4.197  13.307  23.802  0.00  0.00    +0.000 A 
ATOM     26  C   UNL     1      -4.554  12.343  24.894  0.00  0.00    +0.000 C 
ATOM     27  C   UNL     1      -3.832  14.612  24.134  0.00  0.00    +0.000 A 
ATOM     28  C   UNL     1      -2.910  15.262  23.327  0.00  0.00    +0.000 A 
ATOM     29  C   UNL     1      -2.391  14.576  22.246  0.00  0.00    +0.000 A 
ATOM     30  N   UNL     1      -1.088  14.636  21.966  0.00  0.00    +0.000 NA
ATOM     31  C   UNL     1      -0.630  13.743  21.068  0.00  0.00    +0.000 A 
BRANCH  31  32
ATOM     32  O   UNL     1       0.209  12.819  21.679  0.00  0.00    +0.000 OA
ATOM     33  H   UNL     1      -0.456  12.223  22.075  0.00  0.00    +0.000 HD
ENDBRANCH  31  32
ENDBRANCH  20  21
ENDBRANCH   3  20
TORSDOF 8
ENDMDL
MODEL 7
REMARK VINA RESULT:      -7.0      4.088      9.675
REMARK  Name = 
REMARK  11 active torsions:
REMARK  status: ('A' for Active; 'I' for Inactive)
REMARK    1  A    between atoms: C_1  and  O_2
REMARK    2  A    between atoms: O_2  and  C_3
REMARK    3  A    between atoms: C_6  and  C_7
REMARK    4  A    between atoms: N_9  and  C_10
REMARK    5  A    between atoms: N_9  and  C_16
REMARK    6  A    between atoms: C_10  and  C_11
REMARK    7  A    between atoms: C_16  and  C_17
REMARK    8  A    between atoms: C_21  and  C_22
REMARK    9  A    between atoms: C_27  and  O_28
REMARK   10  A    between atoms: C_30  and  O_31
REMARK   11  A    between atoms: O_31  and  C_32
REMARK                            x       y       z     vdW  Elec       q    Type
REMARK                         _______ _______ _______ _____ _____    ______ ____
ROOT
ATOM      1  C   UNL     1       1.196   9.529  18.325  0.00  0.00    +0.000 C 
ATOM      2  O   UNL     1       0.799   9.554  17.145  0.00  0.00    +0.000 OA
ATOM      3  N   UNL     1       0.834  10.584  19.177  0.00  0.00    +0.000 N 
ENDROOT
BRANCH   1   7
ATOM      4  C   UNL     1       3.550   5.905  18.977  0.00  0.00    +0.000 A 
ATOM      5  C   UNL     1       3.795   6.798  17.932  0.00  0.00    +0.000 A 
ATOM      6  C   UNL     1       3.019   7.948  17.781  0.00  0.00    +0.000 A 
ATOM      7  C   UNL     1       1.972   8.280  18.670  0.00  0.00    +0.000 A 
ATOM      8  C   UNL     1       1.760   7.384  19.718  0.00  0.00    +0.000 A 
ATOM      9  C   UNL     1       2.494   6.188  19.853  0.00  0.00    +0.000 A 
BRANCH   4  11
ATOM     10  C   UNL     1       5.678   4.844  18.932  0.00  0.00    +0.000 C 
ATOM     11  O   UNL     1       4.278   4.764  19.162  0.00  0.00    +0.000 OA
ENDBRANCH   4  11
BRANCH   9  12
ATOM     12  O   UNL     1       2.071   5.434  20.925  0.00  0.00    +0.000 OA
ATOM     13  C   UNL     1       1.292   4.270  20.693  0.00  0.00    +0.000 C 
ENDBRANCH   9  12
ENDBRANCH   1   7
BRANCH   3  14
ATOM     14  C   UNL     1       1.353  10.827  20.533  0.00  0.00    +0.000 C 
BRANCH  14  15
ATOM     15  C   UNL     1       0.412  10.444  21.598  0.00  0.00    +0.000 A 
ATOM     16  C   UNL     1       0.059   9.265  22.225  0.00  0.00    +0.000 A 
ATOM     17  C   UNL     1      -0.832   9.608  23.266  0.00  0.00    +0.000 A 
ATOM     18  C   UNL     1      -0.970  10.974  23.213  0.00  0.00    +0.000 A 
ATOM     19  O   UNL     1      -0.226  11.486  22.203  0.00  0.00    +0.000 OA
ENDBRANCH  14  15
ENDBRANCH   3  14
BRANCH   3  20
ATOM     20  C   UNL     1       0.069  11.704  18.600  0.00  0.00    +0.000 C 
BRANCH  20  21
ATOM     21  C   UNL     1      -1.434  11.587  18.573  0.00  0.00    +0.000 A 
ATOM     22  C   UNL     1      -2.303  11.934  19.592  0.00  0.00    +0.000 A 
ATOM     23  C   UNL     1      -3.676  11.907  19.309  0.00  0.00    +0.000 A 
ATOM     24  C   UNL     1      -4.556  12.960  19.592  0.00  0.00    +0.000 A 
ATOM     25  C   UNL     1      -5.862  12.898  19.088  0.00  0.00    +0.000 A 
ATOM     26  C   UNL     1      -6.639  14.144  18.782  0.00  0.00    +0.000 C 
ATOM     27  C   UNL     1      -6.368  11.660  18.688  0.00  0.00    +0.000 A 
ATOM     28  C   UNL     1      -5.467  10.663  18.344  0.00  0.00    +0.000 A 
ATOM     29  C   UNL     1      -4.117  10.954  18.402  0.00  0.00    +0.000 A 
ATOM     30  N   UNL     1      -3.296  10.562  17.426  0.00  0.00    +0.000 NA
ATOM     31  C   UNL     1      -2.064  11.105  17.431  0.00  0.00    +0.000 A 
BRANCH  31  32
ATOM     32  O   UNL     1      -1.897  11.952  16.341  0.00  0.00    +0.000 OA
ATOM     33  H   UNL     1      -2.312  12.763  16.694  0.00  0.00    +0.000 HD
ENDBRANCH  31  32
ENDBRANCH  20  21
ENDBRANCH   3  20
TORSDOF 8
ENDMDL
MODEL 8
REMARK VINA RESULT:      -7.0      4.102     10.744
REMARK  Name = 
REMARK  11 active torsions:
REMARK  status: ('A' for Active; 'I' for Inactive)
REMARK    1  A    between atoms: C_1  and  O_2
REMARK    2  A    between atoms: O_2  and  C_3
REMARK    3  A    between atoms: C_6  and  C_7
REMARK    4  A    between atoms: N_9  and  C_10
REMARK    5  A    between atoms: N_9  and  C_16
REMARK    6  A    between atoms: C_10  and  C_11
REMARK    7  A    between atoms: C_16  and  C_17
REMARK    8  A    between atoms: C_21  and  C_22
REMARK    9  A    between atoms: C_27  and  O_28
REMARK   10  A    between atoms: C_30  and  O_31
REMARK   11  A    between atoms: O_31  and  C_32
REMARK                            x       y       z     vdW  Elec       q    Type
REMARK                         _______ _______ _______ _____ _____    ______ ____
ROOT
ATOM      1  C   UNL     1       1.135  10.566  18.915  0.00  0.00    +0.000 C 
ATOM      2  O   UNL     1       1.980  11.475  19.015  0.00  0.00    +0.000 OA
ATOM      3  N   UNL     1      -0.212  10.918  18.745  0.00  0.00    +0.000 N 
ENDROOT
BRANCH   1   7
ATOM      4  C   UNL     1       2.895   6.580  18.578  0.00  0.00    +0.000 A 
ATOM      5  C   UNL     1       3.011   7.553  17.583  0.00  0.00    +0.000 A 
ATOM      6  C   UNL     1       2.440   8.815  17.752  0.00  0.00    +0.000 A 
ATOM      7  C   UNL     1       1.740   9.182  18.924  0.00  0.00    +0.000 A 
ATOM      8  C   UNL     1       1.656   8.200  19.911  0.00  0.00    +0.000 A 
ATOM      9  C   UNL     1       2.175   6.901  19.736  0.00  0.00    +0.000 A 
BRANCH   4  11
ATOM     10  C   UNL     1       2.827   4.453  17.513  0.00  0.00    +0.000 C 
ATOM     11  O   UNL     1       3.431   5.329  18.456  0.00  0.00    +0.000 OA
ENDBRANCH   4  11
BRANCH   9  12
ATOM     12  O   UNL     1       1.922   6.088  20.817  0.00  0.00    +0.000 OA
ATOM     13  C   UNL     1       1.183   4.890  20.630  0.00  0.00    +0.000 C 
ENDBRANCH   9  12
ENDBRANCH   1   7
BRANCH   3  14
ATOM     14  C   UNL     1      -1.365  10.004  18.795  0.00  0.00    +0.000 C 
BRANCH  14  15
ATOM     15  C   UNL     1      -2.362  10.259  17.743  0.00  0.00    +0.000 A 
ATOM     16  C   UNL     1      -3.648  10.762  17.703  0.00  0.00    +0.000 A 
ATOM     17  C   UNL     1      -4.004  10.861  16.339  0.00  0.00    +0.000 A 
ATOM     18  C   UNL     1      -2.917  10.413  15.629  0.00  0.00    +0.000 A 
ATOM     19  O   UNL     1      -1.922  10.042  16.470  0.00  0.00    +0.000 OA
ENDBRANCH  14  15
ENDBRANCH   3  14
BRANCH   3  20
ATOM     20  C   UNL     1      -0.560  12.350  18.776  0.00  0.00    +0.000 C 
BRANCH  20  21
ATOM     21  C   UNL     1      -1.111  12.911  20.062  0.00  0.00    +0.000 A 
ATOM     22  C   UNL     1      -2.444  13.139  20.353  0.00  0.00    +0.000 A 
ATOM     23  C   UNL     1      -2.766  13.507  21.667  0.00  0.00    +0.000 A 
ATOM     24  C   UNL     1      -3.767  12.894  22.432  0.00  0.00    +0.000 A 
ATOM     25  C   UNL     1      -3.865  13.213  23.792  0.00  0.00    +0.000 A 
ATOM     26  C   UNL     1      -4.413  12.232  24.786  0.00  0.00    +0.000 C 
ATOM     27  C   UNL     1      -3.267  14.388  24.249  0.00  0.00    +0.000 A 
ATOM     28  C   UNL     1      -2.227  14.927  23.505  0.00  0.00    +0.000 A 
ATOM     29  C   UNL     1      -1.831  14.264  22.360  0.00  0.00    +0.000 A 
ATOM     30  N   UNL     1      -0.536  14.104  22.081  0.00  0.00    +0.000 NA
ATOM     31  C   UNL     1      -0.241  13.233  21.099  0.00  0.00    +0.000 A 
BRANCH  31  32
ATOM     32  O   UNL     1       0.401  12.112  21.613  0.00  0.00    +0.000 OA
ATOM     33  H   UNL     1       0.773  12.493  22.432  0.00  0.00    +0.000 HD
ENDBRANCH  31  32
ENDBRANCH  20  21
ENDBRANCH   3  20
TORSDOF 8
ENDMDL
MODEL 9
REMARK VINA RESULT:      -6.9      4.115     10.715
REMARK  Name = 
REMARK  11 active torsions:
REMARK  status: ('A' for Active; 'I' for Inactive)
REMARK    1  A    between atoms: C_1  and  O_2
REMARK    2  A    between atoms: O_2  and  C_3
REMARK    3  A    between atoms: C_6  and  C_7
REMARK    4  A    between atoms: N_9  and  C_10
REMARK    5  A    between atoms: N_9  and  C_16
REMARK    6  A    between atoms: C_10  and  C_11
REMARK    7  A    between atoms: C_16  and  C_17
REMARK    8  A    between atoms: C_21  and  C_22
REMARK    9  A    between atoms: C_27  and  O_28
REMARK   10  A    between atoms: C_30  and  O_31
REMARK   11  A    between atoms: O_31  and  C_32
REMARK                            x       y       z     vdW  Elec       q    Type
REMARK                         _______ _______ _______ _____ _____    ______ ____
ROOT
ATOM      1  C   UNL     1       1.063   9.973  20.996  0.00  0.00    +0.000 C 
ATOM      2  O   UNL     1       1.029   9.892  22.238  0.00  0.00    +0.000 OA
ATOM      3  N   UNL     1       0.806  11.215  20.397  0.00  0.00    +0.000 N 
ENDROOT
BRANCH   1   7
ATOM      4  C   UNL     1       2.228   6.085  19.377  0.00  0.00    +0.000 A 
ATOM      5  C   UNL     1       1.614   6.241  20.621  0.00  0.00    +0.000 A 
ATOM      6  C   UNL     1       1.251   7.508  21.081  0.00  0.00    +0.000 A 
ATOM      7  C   UNL     1       1.461   8.681  20.322  0.00  0.00    +0.000 A 
ATOM      8  C   UNL     1       2.056   8.496  19.074  0.00  0.00    +0.000 A 
ATOM      9  C   UNL     1       2.483   7.234  18.616  0.00  0.00    +0.000 A 
BRANCH   4  11
ATOM     10  C   UNL     1       3.736   4.249  19.488  0.00  0.00    +0.000 C 
ATOM     11  O   UNL     1       2.607   4.867  18.886  0.00  0.00    +0.000 OA
ENDBRANCH   4  11
BRANCH   9  12
ATOM     12  O   UNL     1       3.094   7.304  17.385  0.00  0.00    +0.000 OA
ATOM     13  C   UNL     1       4.494   7.089  17.290  0.00  0.00    +0.000 C 
ENDBRANCH   9  12
ENDBRANCH   1   7
BRANCH   3  14
ATOM     14  C   UNL     1       0.617  11.468  18.959  0.00  0.00    +0.000 C 
BRANCH  14  15
ATOM     15  C   UNL     1      -0.696  11.037  18.455  0.00  0.00    +0.000 A 
ATOM     16  C   UNL     1      -1.519   9.945  18.652  0.00  0.00    +0.000 A 
ATOM     17  C   UNL     1      -2.717  10.206  17.951  0.00  0.00    +0.000 A 
ATOM     18  C   UNL     1      -2.555  11.439  17.368  0.00  0.00    +0.000 A 
ATOM     19  O   UNL     1      -1.334  11.946  17.663  0.00  0.00    +0.000 OA
ENDBRANCH  14  15
ENDBRANCH   3  14
BRANCH   3  20
ATOM     20  C   UNL     1       0.430  12.339  21.274  0.00  0.00    +0.000 C 
BRANCH  20  21
ATOM     21  C   UNL     1      -1.033  12.524  21.590  0.00  0.00    +0.000 A 
ATOM     22  C   UNL     1      -1.982  13.107  20.770  0.00  0.00    +0.000 A 
ATOM     23  C   UNL     1      -3.322  13.033  21.176  0.00  0.00    +0.000 A 
ATOM     24  C   UNL     1      -4.369  12.600  20.351  0.00  0.00    +0.000 A 
ATOM     25  C   UNL     1      -5.629  12.382  20.923  0.00  0.00    +0.000 A 
ATOM     26  C   UNL     1      -6.584  11.380  20.345  0.00  0.00    +0.000 C 
ATOM     27  C   UNL     1      -5.915  12.969  22.156  0.00  0.00    +0.000 A 
ATOM     28  C   UNL     1      -4.855  13.316  22.980  0.00  0.00    +0.000 A 
ATOM     29  C   UNL     1      -3.572  13.049  22.541  0.00  0.00    +0.000 A 
ATOM     30  N   UNL     1      -2.664  12.533  23.370  0.00  0.00    +0.000 NA
ATOM     31  C   UNL     1      -1.536  12.066  22.803  0.00  0.00    +0.000 A 
BRANCH  31  32
ATOM     32  O   UNL     1      -1.468  10.682  22.912  0.00  0.00    +0.000 OA
ATOM     33  H   UNL     1      -0.737  10.501  22.290  0.00  0.00    +0.000 HD
ENDBRANCH  31  32
ENDBRANCH  20  21
ENDBRANCH   3  20
TORSDOF 8
ENDMDL
