MODEL 1
REMARK VINA RESULT:      -7.7      0.000      0.000
REMARK  Name = 
REMARK  6 active torsions:
REMARK  status: ('A' for Active; 'I' for Inactive)
REMARK    1  A    between atoms: C_1  and  O_2
REMARK    2  A    between atoms: O_2  and  C_3
REMARK    3  A    between atoms: C_6  and  N_7
REMARK    4  A    between atoms: N_10  and  C_11
REMARK    5  A    between atoms: C_22  and  O_23
REMARK    6  A    between atoms: O_23  and  C_24
REMARK                            x       y       z     vdW  Elec       q    Type
REMARK                         _______ _______ _______ _____ _____    ______ ____
ROOT
ATOM      1  N   UNL     1       8.854   8.859  19.107  0.00  0.00    +0.000 N 
ATOM      2  C   UNL     1       8.275   7.829  18.327  0.00  0.00    +0.000 C 
ATOM      3  O   UNL     1       7.910   8.032  17.153  0.00  0.00    +0.000 OA
ATOM      4  N   UNL     1       8.149   6.558  18.973  0.00  0.00    +0.000 N 
ATOM      5  H   UNL     1       8.844   8.704  20.104  0.00  0.00    +0.000 HD
ATOM      6  H   UNL     1       8.734   6.357  19.770  0.00  0.00    +0.000 HD
ENDROOT
BRANCH   4   7
ATOM      7  C   UNL     1       7.201   5.476  18.583  0.00  0.00    +0.000 A 
ATOM      8  C   UNL     1       7.702   4.593  17.639  0.00  0.00    +0.000 A 
ATOM      9  C   UNL     1       7.115   4.657  16.394  0.00  0.00    +0.000 A 
ATOM     10  N   UNL     1       5.949   5.274  16.140  0.00  0.00    +0.000 NA
ATOM     11  C   UNL     1       5.217   5.587  17.209  0.00  0.00    +0.000 A 
ATOM     12  C   UNL     1       3.837   5.615  17.008  0.00  0.00    +0.000 A 
ATOM     13  C   UNL     1       2.949   5.442  18.065  0.00  0.00    +0.000 A 
ATOM     14  C   UNL     1       3.471   5.295  19.340  0.00  0.00    +0.000 A 
ATOM     15  C   UNL     1       4.861   5.433  19.573  0.00  0.00    +0.000 A 
ATOM     16  C   UNL     1       5.783   5.636  18.499  0.00  0.00    +0.000 A 
ENDBRANCH   4   7
BRANCH   1  20
ATOM     17  C   UNL     1       9.798  13.003  17.945  0.00  0.00    +0.000 A 
ATOM     18  C   UNL     1      10.728  12.197  18.619  0.00  0.00    +0.000 A 
ATOM     19  C   UNL     1      10.447  10.843  18.982  0.00  0.00    +0.000 A 
ATOM     20  C   UNL     1       9.215  10.230  18.710  0.00  0.00    +0.000 A 
ATOM     21  C   UNL     1       8.281  11.066  18.038  0.00  0.00    +0.000 A 
ATOM     22  C   UNL     1       8.548  12.439  17.660  0.00  0.00    +0.000 A 
BRANCH  17  24
ATOM     23  C   UNL     1      11.303  14.738  17.180  0.00  0.00    +0.000 C 
ATOM     24  O   UNL     1      10.020  14.322  17.625  0.00  0.00    +0.000 OA
ENDBRANCH  17  24
BRANCH  22  25
ATOM     25  O   UNL     1       7.482  13.058  17.038  0.00  0.00    +0.000 OA
ATOM     26  C   UNL     1       6.766  14.107  17.706  0.00  0.00    +0.000 C 
ENDBRANCH  22  25
ENDBRANCH   1  20
TORSDOF 4
ENDMDL
MODEL 2
REMARK VINA RESULT:      -7.7      1.551      1.917
REMARK  Name = 
REMARK  6 active torsions:
REMARK  status: ('A' for Active; 'I' for Inactive)
REMARK    1  A    between atoms: C_1  and  O_2
REMARK    2  A    between atoms: O_2  and  C_3
REMARK    3  A    between atoms: C_6  and  N_7
REMARK    4  A    between atoms: N_10  and  C_11
REMARK    5  A    between atoms: C_22  and  O_23
REMARK    6  A    between atoms: O_23  and  C_24
REMARK                            x       y       z     vdW  Elec       q    Type
REMARK                         _______ _______ _______ _____ _____    ______ ____
ROOT
ATOM      1  N   UNL     1       8.888   8.686  19.181  0.00  0.00    +0.000 N 
ATOM      2  C   UNL     1       8.107   7.911  18.291  0.00  0.00    +0.000 C 
ATOM      3  O   UNL     1       7.518   8.432  17.324  0.00  0.00    +0.000 OA
ATOM      4  N   UNL     1       8.051   6.510  18.574  0.00  0.00    +0.000 N 
ATOM      5  H   UNL     1       9.076   8.259  20.076  0.00  0.00    +0.000 HD
ATOM      6  H   UNL     1       8.776   6.098  19.140  0.00  0.00    +0.000 HD
ENDROOT
BRANCH   4   7
ATOM      7  C   UNL     1       6.988   5.573  18.113  0.00  0.00    +0.000 A 
ATOM      8  C   UNL     1       7.225   5.008  16.870  0.00  0.00    +0.000 A 
ATOM      9  C   UNL     1       6.385   5.420  15.858  0.00  0.00    +0.000 A 
ATOM     10  N   UNL     1       5.225   6.067  16.057  0.00  0.00    +0.000 NA
ATOM     11  C   UNL     1       4.759   6.047  17.306  0.00  0.00    +0.000 A 
ATOM     12  C   UNL     1       3.372   6.111  17.434  0.00  0.00    +0.000 A 
ATOM     13  C   UNL     1       2.728   5.626  18.568  0.00  0.00    +0.000 A 
ATOM     14  C   UNL     1       3.507   5.124  19.599  0.00  0.00    +0.000 A 
ATOM     15  C   UNL     1       4.920   5.210  19.545  0.00  0.00    +0.000 A 
ATOM     16  C   UNL     1       5.595   5.729  18.396  0.00  0.00    +0.000 A 
ENDBRANCH   4   7
BRANCH   1  20
ATOM     17  C   UNL     1       9.982  12.954  19.091  0.00  0.00    +0.000 A 
ATOM     18  C   UNL     1       9.922  12.184  17.919  0.00  0.00    +0.000 A 
ATOM     19  C   UNL     1       9.546  10.805  17.928  0.00  0.00    +0.000 A 
ATOM     20  C   UNL     1       9.230  10.117  19.109  0.00  0.00    +0.000 A 
ATOM     21  C   UNL     1       9.309  10.910  20.287  0.00  0.00    +0.000 A 
ATOM     22  C   UNL     1       9.686  12.308  20.298  0.00  0.00    +0.000 A 
BRANCH  17  24
ATOM     23  C   UNL     1       9.701  15.239  18.343  0.00  0.00    +0.000 C 
ATOM     24  O   UNL     1      10.386  14.268  19.122  0.00  0.00    +0.000 OA
ENDBRANCH  17  24
BRANCH  22  25
ATOM     25  O   UNL     1       9.715  12.863  21.562  0.00  0.00    +0.000 OA
ATOM     26  C   UNL     1       8.838  12.371  22.586  0.00  0.00    +0.000 C 
ENDBRANCH  22  25
ENDBRANCH   1  20
TORSDOF 4
ENDMDL
MODEL 3
REMARK VINA RESULT:      -7.6      1.778      2.303
REMARK  Name = 
REMARK  6 active torsions:
REMARK  status: ('A' for Active; 'I' for Inactive)
REMARK    1  A    between atoms: C_1  and  O_2
REMARK    2  A    between atoms: O_2  and  C_3
REMARK    3  A    between atoms: C_6  and  N_7
REMARK    4  A    between atoms: N_10  and  C_11
REMARK    5  A    between atoms: C_22  and  O_23
REMARK    6  A    between atoms: O_23  and  C_24
REMARK                            x       y       z     vdW  Elec       q    Type
REMARK                         _______ _______ _______ _____ _____    ______ ____
ROOT
ATOM      1  N   UNL     1       8.167   9.279  17.617  0.00  0.00    +0.000 N 
ATOM      2  C   UNL     1       7.867   7.940  17.963  0.00  0.00    +0.000 C 
ATOM      3  O   UNL     1       8.391   7.394  18.954  0.00  0.00    +0.000 OA
ATOM      4  N   UNL     1       6.931   7.274  17.111  0.00  0.00    +0.000 N 
ATOM      5  H   UNL     1       7.946   9.540  16.667  0.00  0.00    +0.000 HD
ATOM      6  H   UNL     1       6.307   7.828  16.545  0.00  0.00    +0.000 HD
ENDROOT
BRANCH   4   7
ATOM      7  C   UNL     1       6.791   5.797  16.961  0.00  0.00    +0.000 A 
ATOM      8  C   UNL     1       7.268   5.299  15.759  0.00  0.00    +0.000 A 
ATOM      9  C   UNL     1       6.312   4.818  14.892  0.00  0.00    +0.000 A 
ATOM     10  N   UNL     1       5.046   4.538  15.245  0.00  0.00    +0.000 NA
ATOM     11  C   UNL     1       4.813   4.469  16.555  0.00  0.00    +0.000 A 
ATOM     12  C   UNL     1       3.786   3.609  16.941  0.00  0.00    +0.000 A 
ATOM     13  C   UNL     1       3.741   3.065  18.221  0.00  0.00    +0.000 A 
ATOM     14  C   UNL     1       4.719   3.446  19.128  0.00  0.00    +0.000 A 
ATOM     15  C   UNL     1       5.665   4.445  18.795  0.00  0.00    +0.000 A 
ATOM     16  C   UNL     1       5.707   5.031  17.490  0.00  0.00    +0.000 A 
ENDBRANCH   4   7
BRANCH   1  20
ATOM     17  C   UNL     1      10.597  12.316  19.688  0.00  0.00    +0.000 A 
ATOM     18  C   UNL     1      10.030  11.232  20.375  0.00  0.00    +0.000 A 
ATOM     19  C   UNL     1       9.259  10.225  19.715  0.00  0.00    +0.000 A 
ATOM     20  C   UNL     1       8.997  10.260  18.338  0.00  0.00    +0.000 A 
ATOM     21  C   UNL     1       9.569  11.372  17.660  0.00  0.00    +0.000 A 
ATOM     22  C   UNL     1      10.354  12.400  18.311  0.00  0.00    +0.000 A 
BRANCH  17  24
ATOM     23  C   UNL     1      10.611  14.425  20.878  0.00  0.00    +0.000 C 
ATOM     24  O   UNL     1      11.302  13.325  20.301  0.00  0.00    +0.000 OA
ENDBRANCH  17  24
BRANCH  22  25
ATOM     25  O   UNL     1      10.785  13.392  17.453  0.00  0.00    +0.000 OA
ATOM     26  C   UNL     1      12.106  13.339  16.895  0.00  0.00    +0.000 C 
ENDBRANCH  22  25
ENDBRANCH   1  20
TORSDOF 4
ENDMDL
MODEL 4
REMARK VINA RESULT:      -7.6      5.311      7.679
REMARK  Name = 
REMARK  6 active torsions:
REMARK  status: ('A' for Active; 'I' for Inactive)
REMARK    1  A    between atoms: C_1  and  O_2
REMARK    2  A    between atoms: O_2  and  C_3
REMARK    3  A    between atoms: C_6  and  N_7
REMARK    4  A    between atoms: N_10  and  C_11
REMARK    5  A    between atoms: C_22  and  O_23
REMARK    6  A    between atoms: O_23  and  C_24
REMARK                            x       y       z     vdW  Elec       q    Type
REMARK                         _______ _______ _______ _____ _____    ______ ____
ROOT
ATOM      1  N   UNL     1       1.478   8.541  19.138  0.00  0.00    +0.000 N 
ATOM      2  C   UNL     1       2.280   7.374  19.136  0.00  0.00    +0.000 C 
ATOM      3  O   UNL     1       2.630   6.827  20.200  0.00  0.00    +0.000 OA
ATOM      4  N   UNL     1       2.646   6.876  17.846  0.00  0.00    +0.000 N 
ATOM      5  H   UNL     1       1.490   9.076  18.282  0.00  0.00    +0.000 HD
ATOM      6  H   UNL     1       2.092   7.142  17.046  0.00  0.00    +0.000 HD
ENDROOT
BRANCH   4   7
ATOM      7  C   UNL     1       3.808   5.989  17.556  0.00  0.00    +0.000 A 
ATOM      8  C   UNL     1       3.502   4.638  17.533  0.00  0.00    +0.000 A 
ATOM      9  C   UNL     1       4.027   3.890  18.564  0.00  0.00    +0.000 A 
ATOM     10  N   UNL     1       5.012   4.311  19.376  0.00  0.00    +0.000 NA
ATOM     11  C   UNL     1       5.679   5.389  18.963  0.00  0.00    +0.000 A 
ATOM     12  C   UNL     1       7.009   5.469  19.373  0.00  0.00    +0.000 A 
ATOM     13  C   UNL     1       7.939   6.224  18.665  0.00  0.00    +0.000 A 
ATOM     14  C   UNL     1       7.497   6.944  17.566  0.00  0.00    +0.000 A 
ATOM     15  C   UNL     1       6.120   7.000  17.245  0.00  0.00    +0.000 A 
ATOM     16  C   UNL     1       5.148   6.249  17.980  0.00  0.00    +0.000 A 
ENDBRANCH   4   7
BRANCH   1  20
ATOM     17  C   UNL     1      -0.437  10.718  22.457  0.00  0.00    +0.000 A 
ATOM     18  C   UNL     1      -0.406   9.315  22.416  0.00  0.00    +0.000 A 
ATOM     19  C   UNL     1       0.232   8.594  21.359  0.00  0.00    +0.000 A 
ATOM     20  C   UNL     1       0.853   9.234  20.278  0.00  0.00    +0.000 A 
ATOM     21  C   UNL     1       0.801  10.655  20.330  0.00  0.00    +0.000 A 
ATOM     22  C   UNL     1       0.163  11.403  21.392  0.00  0.00    +0.000 A 
BRANCH  17  24
ATOM     23  C   UNL     1      -2.400  11.920  23.206  0.00  0.00    +0.000 C 
ATOM     24  O   UNL     1      -1.082  11.440  23.433  0.00  0.00    +0.000 OA
ENDBRANCH  17  24
BRANCH  22  25
ATOM     25  O   UNL     1       0.220  12.771  21.216  0.00  0.00    +0.000 OA
ATOM     26  C   UNL     1       1.459  13.403  20.864  0.00  0.00    +0.000 C 
ENDBRANCH  22  25
ENDBRANCH   1  20
TORSDOF 4
ENDMDL
MODEL 5
REMARK VINA RESULT:      -7.6      5.623      7.851
REMARK  Name = 
REMARK  6 active torsions:
REMARK  status: ('A' for Active; 'I' for Inactive)
REMARK    1  A    between atoms: C_1  and  O_2
REMARK    2  A    between atoms: O_2  and  C_3
REMARK    3  A    between atoms: C_6  and  N_7
REMARK    4  A    between atoms: N_10  and  C_11
REMARK    5  A    between atoms: C_22  and  O_23
REMARK    6  A    between atoms: O_23  and  C_24
REMARK                            x       y       z     vdW  Elec       q    Type
REMARK                         _______ _______ _______ _____ _____    ______ ____
ROOT
ATOM      1  N   UNL     1       1.470   7.790  21.319  0.00  0.00    +0.000 N 
ATOM      2  C   UNL     1       2.103   7.409  20.112  0.00  0.00    +0.000 C 
ATOM      3  O   UNL     1       1.922   8.048  19.056  0.00  0.00    +0.000 OA
ATOM      4  N   UNL     1       2.954   6.263  20.193  0.00  0.00    +0.000 N 
ATOM      5  H   UNL     1       1.427   7.074  22.029  0.00  0.00    +0.000 HD
ATOM      6  H   UNL     1       3.318   5.989  21.092  0.00  0.00    +0.000 HD
ENDROOT
BRANCH   4   7
ATOM      7  C   UNL     1       3.358   5.399  19.047  0.00  0.00    +0.000 A 
ATOM      8  C   UNL     1       3.066   4.055  19.216  0.00  0.00    +0.000 A 
ATOM      9  C   UNL     1       4.154   3.224  19.376  0.00  0.00    +0.000 A 
ATOM     10  N   UNL     1       5.419   3.575  19.089  0.00  0.00    +0.000 NA
ATOM     11  C   UNL     1       5.560   4.680  18.358  0.00  0.00    +0.000 A 
ATOM     12  C   UNL     1       6.688   4.723  17.539  0.00  0.00    +0.000 A 
ATOM     13  C   UNL     1       6.729   5.530  16.407  0.00  0.00    +0.000 A 
ATOM     14  C   UNL     1       5.635   6.339  16.140  0.00  0.00    +0.000 A 
ATOM     15  C   UNL     1       4.559   6.425  17.055  0.00  0.00    +0.000 A 
ATOM     16  C   UNL     1       4.515   5.619  18.237  0.00  0.00    +0.000 A 
ENDBRANCH   4   7
BRANCH   1  20
ATOM     17  C   UNL     1      -1.111  11.294  22.011  0.00  0.00    +0.000 A 
ATOM     18  C   UNL     1      -0.751  10.427  23.054  0.00  0.00    +0.000 A 
ATOM     19  C   UNL     1       0.104   9.299  22.851  0.00  0.00    +0.000 A 
ATOM     20  C   UNL     1       0.628   8.967  21.594  0.00  0.00    +0.000 A 
ATOM     21  C   UNL     1       0.243   9.851  20.548  0.00  0.00    +0.000 A 
ATOM     22  C   UNL     1      -0.620  10.999  20.733  0.00  0.00    +0.000 A 
BRANCH  17  24
ATOM     23  C   UNL     1      -1.527  13.537  22.822  0.00  0.00    +0.000 C 
ATOM     24  O   UNL     1      -1.969  12.359  22.164  0.00  0.00    +0.000 OA
ENDBRANCH  17  24
BRANCH  22  25
ATOM     25  O   UNL     1      -0.872  11.694  19.568  0.00  0.00    +0.000 OA
ATOM     26  C   UNL     1      -1.080  10.989  18.336  0.00  0.00    +0.000 C 
ENDBRANCH  22  25
ENDBRANCH   1  20
TORSDOF 4
ENDMDL
MODEL 6
REMARK VINA RESULT:      -7.5      1.334      1.827
REMARK  Name = 
REMARK  6 active torsions:
REMARK  status: ('A' for Active; 'I' for Inactive)
REMARK    1  A    between atoms: C_1  and  O_2
REMARK    2  A    between atoms: O_2  and  C_3
REMARK    3  A    between atoms: C_6  and  N_7
REMARK    4  A    between atoms: N_10  and  C_11
REMARK    5  A    between atoms: C_22  and  O_23
REMARK    6  A    between atoms: O_23  and  C_24
REMARK                            x       y       z     vdW  Elec       q    Type
REMARK                         _______ _______ _______ _____ _____    ______ ____
ROOT
ATOM      1  N   UNL     1       8.962   8.758  19.102  0.00  0.00    +0.000 N 
ATOM      2  C   UNL     1       8.049   8.148  18.207  0.00  0.00    +0.000 C 
ATOM      3  O   UNL     1       7.322   8.831  17.460  0.00  0.00    +0.000 OA
ATOM      4  N   UNL     1       8.030   6.718  18.220  0.00  0.00    +0.000 N 
ATOM      5  H   UNL     1       9.283   8.171  19.858  0.00  0.00    +0.000 HD
ATOM      6  H   UNL     1       8.832   6.223  18.580  0.00  0.00    +0.000 HD
ENDROOT
BRANCH   4   7
ATOM      7  C   UNL     1       6.904   5.861  17.753  0.00  0.00    +0.000 A 
ATOM      8  C   UNL     1       6.954   5.537  16.407  0.00  0.00    +0.000 A 
ATOM      9  C   UNL     1       5.980   6.110  15.619  0.00  0.00    +0.000 A 
ATOM     10  N   UNL     1       4.866   6.688  16.098  0.00  0.00    +0.000 NA
ATOM     11  C   UNL     1       4.586   6.432  17.375  0.00  0.00    +0.000 A 
ATOM     12  C   UNL     1       3.233   6.446  17.711  0.00  0.00    +0.000 A 
ATOM     13  C   UNL     1       2.755   5.751  18.818  0.00  0.00    +0.000 A 
ATOM     14  C   UNL     1       3.672   5.084  19.616  0.00  0.00    +0.000 A 
ATOM     15  C   UNL     1       5.062   5.204  19.377  0.00  0.00    +0.000 A 
ATOM     16  C   UNL     1       5.568   5.937  18.257  0.00  0.00    +0.000 A 
ENDBRANCH   4   7
BRANCH   1  20
ATOM     17  C   UNL     1       9.905  13.049  19.433  0.00  0.00    +0.000 A 
ATOM     18  C   UNL     1       9.513  12.293  20.548  0.00  0.00    +0.000 A 
ATOM     19  C   UNL     1       9.227  10.895  20.463  0.00  0.00    +0.000 A 
ATOM     20  C   UNL     1       9.296  10.184  19.256  0.00  0.00    +0.000 A 
ATOM     21  C   UNL     1       9.683  10.969  18.135  0.00  0.00    +0.000 A 
ATOM     22  C   UNL     1       9.979  12.385  18.202  0.00  0.00    +0.000 A 
BRANCH  17  24
ATOM     23  C   UNL     1       9.058  15.316  19.361  0.00  0.00    +0.000 C 
ATOM     24  O   UNL     1      10.141  14.404  19.473  0.00  0.00    +0.000 OA
ENDBRANCH  17  24
BRANCH  22  25
ATOM     25  O   UNL     1      10.310  12.939  16.981  0.00  0.00    +0.000 OA
ATOM     26  C   UNL     1      11.677  13.251  16.677  0.00  0.00    +0.000 C 
ENDBRANCH  22  25
ENDBRANCH   1  20
TORSDOF 4
ENDMDL
MODEL 7
REMARK VINA RESULT:      -7.5      5.647      7.061
REMARK  Name = 
REMARK  6 active torsions:
REMARK  status: ('A' for Active; 'I' for Inactive)
REMARK    1  A    between atoms: C_1  and  O_2
REMARK    2  A    between atoms: O_2  and  C_3
REMARK    3  A    between atoms: C_6  and  N_7
REMARK    4  A    between atoms: N_10  and  C_11
REMARK    5  A    between atoms: C_22  and  O_23
REMARK    6  A    between atoms: O_23  and  C_24
REMARK                            x       y       z     vdW  Elec       q    Type
REMARK                         _______ _______ _______ _____ _____    ______ ____
ROOT
ATOM      1  N   UNL     1       1.616   7.685  18.303  0.00  0.00    +0.000 N 
ATOM      2  C   UNL     1       2.473   6.603  18.618  0.00  0.00    +0.000 C 
ATOM      3  O   UNL     1       3.257   6.659  19.586  0.00  0.00    +0.000 OA
ATOM      4  N   UNL     1       2.369   5.461  17.763  0.00  0.00    +0.000 N 
ATOM      5  H   UNL     1       1.246   7.684  17.364  0.00  0.00    +0.000 HD
ATOM      6  H   UNL     1       1.528   5.332  17.222  0.00  0.00    +0.000 HD
ENDROOT
BRANCH   4   7
ATOM      7  C   UNL     1       3.418   4.418  17.576  0.00  0.00    +0.000 A 
ATOM      8  C   UNL     1       3.373   3.392  18.506  0.00  0.00    +0.000 A 
ATOM      9  C   UNL     1       4.421   3.351  19.400  0.00  0.00    +0.000 A 
ATOM     10  N   UNL     1       5.573   4.025  19.243  0.00  0.00    +0.000 NA
ATOM     11  C   UNL     1       5.791   4.520  18.026  0.00  0.00    +0.000 A 
ATOM     12  C   UNL     1       7.129   4.634  17.650  0.00  0.00    +0.000 A 
ATOM     13  C   UNL     1       7.504   4.659  16.311  0.00  0.00    +0.000 A 
ATOM     14  C   UNL     1       6.505   4.626  15.351  0.00  0.00    +0.000 A 
ATOM     15  C   UNL     1       5.140   4.680  15.725  0.00  0.00    +0.000 A 
ATOM     16  C   UNL     1       4.740   4.679  17.099  0.00  0.00    +0.000 A 
ENDBRANCH   4   7
BRANCH   1  20
ATOM     17  C   UNL     1       1.052  11.395  20.612  0.00  0.00    +0.000 A 
ATOM     18  C   UNL     1       1.311  11.418  19.233  0.00  0.00    +0.000 A 
ATOM     19  C   UNL     1       1.472  10.223  18.465  0.00  0.00    +0.000 A 
ATOM     20  C   UNL     1       1.405   8.945  19.036  0.00  0.00    +0.000 A 
ATOM     21  C   UNL     1       1.155   8.942  20.436  0.00  0.00    +0.000 A 
ATOM     22  C   UNL     1       0.986  10.141  21.231  0.00  0.00    +0.000 A 
BRANCH  17  24
ATOM     23  C   UNL     1      -0.142  13.423  21.180  0.00  0.00    +0.000 C 
ATOM     24  O   UNL     1       0.939  12.526  21.387  0.00  0.00    +0.000 OA
ENDBRANCH  17  24
BRANCH  22  25
ATOM     25  O   UNL     1       0.775   9.889  22.572  0.00  0.00    +0.000 OA
ATOM     26  C   UNL     1      -0.558   9.865  23.102  0.00  0.00    +0.000 C 
ENDBRANCH  22  25
ENDBRANCH   1  20
TORSDOF 4
ENDMDL
MODEL 8
REMARK VINA RESULT:      -7.5      5.692      7.729
REMARK  Name = 
REMARK  6 active torsions:
REMARK  status: ('A' for Active; 'I' for Inactive)
REMARK    1  A    between atoms: C_1  and  O_2
REMARK    2  A    between atoms: O_2  and  C_3
REMARK    3  A    between atoms: C_6  and  N_7
REMARK    4  A    between atoms: N_10  and  C_11
REMARK    5  A    between atoms: C_22  and  O_23
REMARK    6  A    between atoms: O_23  and  C_24
REMARK                            x       y       z     vdW  Elec       q    Type
REMARK                         _______ _______ _______ _____ _____    ______ ____
ROOT
ATOM      1  N   UNL     1       1.439   8.187  21.489  0.00  0.00    +0.000 N 
ATOM      2  C   UNL     1       1.915   7.778  20.220  0.00  0.00    +0.000 C 
ATOM      3  O   UNL     1       1.623   8.408  19.185  0.00  0.00    +0.000 OA
ATOM      4  N   UNL     1       2.745   6.613  20.215  0.00  0.00    +0.000 N 
ATOM      5  H   UNL     1       1.466   7.481  22.209  0.00  0.00    +0.000 HD
ATOM      6  H   UNL     1       3.207   6.341  21.068  0.00  0.00    +0.000 HD
ENDROOT
BRANCH   4   7
ATOM      7  C   UNL     1       2.989   5.726  19.042  0.00  0.00    +0.000 A 
ATOM      8  C   UNL     1       2.516   4.433  19.197  0.00  0.00    +0.000 A 
ATOM      9  C   UNL     1       3.480   3.455  19.307  0.00  0.00    +0.000 A 
ATOM     10  N   UNL     1       4.773   3.630  18.986  0.00  0.00    +0.000 NA
ATOM     11  C   UNL     1       5.047   4.721  18.271  0.00  0.00    +0.000 A 
ATOM     12  C   UNL     1       6.146   4.623  17.418  0.00  0.00    +0.000 A 
ATOM     13  C   UNL     1       6.268   5.441  16.299  0.00  0.00    +0.000 A 
ATOM     14  C   UNL     1       5.292   6.401  16.081  0.00  0.00    +0.000 A 
ATOM     15  C   UNL     1       4.265   6.617  17.032  0.00  0.00    +0.000 A 
ATOM     16  C   UNL     1       4.142   5.799  18.200  0.00  0.00    +0.000 A 
ENDBRANCH   4   7
BRANCH   1  20
ATOM     17  C   UNL     1      -0.889  11.813  22.413  0.00  0.00    +0.000 A 
ATOM     18  C   UNL     1      -1.068  10.619  23.129  0.00  0.00    +0.000 A 
ATOM     19  C   UNL     1      -0.305   9.441  22.858  0.00  0.00    +0.000 A 
ATOM     20  C   UNL     1       0.663   9.387  21.845  0.00  0.00    +0.000 A 
ATOM     21  C   UNL     1       0.822  10.602  21.122  0.00  0.00    +0.000 A 
ATOM     22  C   UNL     1       0.060  11.805  21.383  0.00  0.00    +0.000 A 
BRANCH  17  24
ATOM     23  C   UNL     1      -1.161  13.969  23.480  0.00  0.00    +0.000 C 
ATOM     24  O   UNL     1      -1.640  12.947  22.617  0.00  0.00    +0.000 OA
ENDBRANCH  17  24
BRANCH  22  25
ATOM     25  O   UNL     1       0.373  12.851  20.538  0.00  0.00    +0.000 OA
ATOM     26  C   UNL     1       1.608  13.564  20.699  0.00  0.00    +0.000 C 
ENDBRANCH  22  25
ENDBRANCH   1  20
TORSDOF 4
ENDMDL
MODEL 9
REMARK VINA RESULT:      -7.4      2.205      8.346
REMARK  Name = 
REMARK  6 active torsions:
REMARK  status: ('A' for Active; 'I' for Inactive)
REMARK    1  A    between atoms: C_1  and  O_2
REMARK    2  A    between atoms: O_2  and  C_3
REMARK    3  A    between atoms: C_6  and  N_7
REMARK    4  A    between atoms: N_10  and  C_11
REMARK    5  A    between atoms: C_22  and  O_23
REMARK    6  A    between atoms: O_23  and  C_24
REMARK                            x       y       z     vdW  Elec       q    Type
REMARK                         _______ _______ _______ _____ _____    ______ ____
ROOT
ATOM      1  N   UNL     1       8.532   7.768  18.795  0.00  0.00    +0.000 N 
ATOM      2  C   UNL     1       8.537   9.150  18.486  0.00  0.00    +0.000 C 
ATOM      3  O   UNL     1       7.739   9.632  17.659  0.00  0.00    +0.000 OA
ATOM      4  N   UNL     1       9.504   9.937  19.188  0.00  0.00    +0.000 N 
ATOM      5  H   UNL     1       9.373   7.418  19.228  0.00  0.00    +0.000 HD
ATOM      6  H   UNL     1       9.886   9.584  20.051  0.00  0.00    +0.000 HD
ENDROOT
BRANCH   4   7
ATOM      7  C   UNL     1      10.029  11.261  18.747  0.00  0.00    +0.000 A 
ATOM      8  C   UNL     1      11.396  11.415  18.910  0.00  0.00    +0.000 A 
ATOM      9  C   UNL     1      11.784  12.318  19.875  0.00  0.00    +0.000 A 
ATOM     10  N   UNL     1      10.966  13.230  20.427  0.00  0.00    +0.000 NA
ATOM     11  C   UNL     1       9.812  13.430  19.791  0.00  0.00    +0.000 A 
ATOM     12  C   UNL     1       9.270  14.709  19.912  0.00  0.00    +0.000 A 
ATOM     13  C   UNL     1       8.384  15.211  18.964  0.00  0.00    +0.000 A 
ATOM     14  C   UNL     1       8.007  14.383  17.918  0.00  0.00    +0.000 A 
ATOM     15  C   UNL     1       8.422  13.030  17.881  0.00  0.00    +0.000 A 
ATOM     16  C   UNL     1       9.313  12.493  18.864  0.00  0.00    +0.000 A 
ENDBRANCH   4   7
BRANCH   1  20
ATOM     17  C   UNL     1       5.838   4.621  17.291  0.00  0.00    +0.000 A 
ATOM     18  C   UNL     1       6.187   4.706  18.648  0.00  0.00    +0.000 A 
ATOM     19  C   UNL     1       7.040   5.735  19.156  0.00  0.00    +0.000 A 
ATOM     20  C   UNL     1       7.606   6.719  18.333  0.00  0.00    +0.000 A 
ATOM     21  C   UNL     1       7.252   6.609  16.960  0.00  0.00    +0.000 A 
ATOM     22  C   UNL     1       6.388   5.577  16.427  0.00  0.00    +0.000 A 
BRANCH  17  24
ATOM     23  C   UNL     1       3.721   3.449  17.209  0.00  0.00    +0.000 C 
ATOM     24  O   UNL     1       5.060   3.618  16.763  0.00  0.00    +0.000 OA
ENDBRANCH  17  24
BRANCH  22  25
ATOM     25  O   UNL     1       6.205   5.660  15.061  0.00  0.00    +0.000 OA
ATOM     26  C   UNL     1       6.922   4.781  14.182  0.00  0.00    +0.000 C 
ENDBRANCH  22  25
ENDBRANCH   1  20
TORSDOF 4
ENDMDL
