MODEL 1
REMARK VINA RESULT:      -8.0      0.000      0.000
REMARK  Name = 
REMARK  4 active torsions:
REMARK  status: ('A' for Active; 'I' for Inactive)
REMARK    1  A    between atoms: C_5  and  C_6
REMARK    2  A    between atoms: C_6  and  N_7
REMARK    3  A    between atoms: C_9  and  C_10
REMARK    4  A    between atoms: N_11  and  N_12
REMARK                            x       y       z     vdW  Elec       q    Type
REMARK                         _______ _______ _______ _____ _____    ______ ____
ROOT
ATOM      1  N   UNL     1       4.504   4.972  19.210  0.00  0.00    +0.000 N 
ATOM      2  C   UNL     1       4.103   6.263  18.976  0.00  0.00    +0.000 A 
ATOM      3  C   UNL     1       2.801   6.408  19.413  0.00  0.00    +0.000 A 
ATOM      4  C   UNL     1       2.385   5.132  19.908  0.00  0.00    +0.000 A 
ATOM      5  C   UNL     1       1.173   4.637  20.438  0.00  0.00    +0.000 A 
ATOM      6  C   UNL     1       1.076   3.296  20.821  0.00  0.00    +0.000 A 
ATOM      7  C   UNL     1       2.172   2.450  20.705  0.00  0.00    +0.000 A 
ATOM      8  C   UNL     1       3.389   2.915  20.195  0.00  0.00    +0.000 A 
ATOM      9  C   UNL     1       3.471   4.257  19.788  0.00  0.00    +0.000 A 
ENDROOT
BRANCH   3  10
ATOM     10  C   UNL     1       2.012   7.621  19.361  0.00  0.00    +0.000 C 
ATOM     11  N   UNL     1       1.587   8.157  20.455  0.00  0.00    +0.000 NA
BRANCH  11  12
ATOM     12  N   UNL     1       0.788   9.246  20.294  0.00  0.00    +0.000 N 
ATOM     13  C   UNL     1      -0.150   9.806  21.125  0.00  0.00    +0.000 A 
ATOM     14  N   UNL     1      -0.692  10.862  20.560  0.00  0.00    +0.000 NA
ATOM     15  N   UNL     1      -0.070  11.045  19.347  0.00  0.00    +0.000 NA
ATOM     16  C   UNL     1       0.827  10.094  19.219  0.00  0.00    +0.000 A 
ENDBRANCH  11  12
ENDBRANCH   3  10
BRANCH   1  17
ATOM     17  C   UNL     1       5.767   4.412  18.738  0.00  0.00    +0.000 C 
BRANCH  17  22
ATOM     18 CL   UNL     1       6.578   4.113  12.765  0.00  0.00    +0.000 Cl
ATOM     19  C   UNL     1       6.313   4.254  14.459  0.00  0.00    +0.000 A 
ATOM     20  C   UNL     1       7.308   4.791  15.272  0.00  0.00    +0.000 A 
ATOM     21  C   UNL     1       7.109   4.872  16.653  0.00  0.00    +0.000 A 
ATOM     22  C   UNL     1       5.913   4.420  17.234  0.00  0.00    +0.000 A 
ATOM     23  C   UNL     1       4.914   3.899  16.395  0.00  0.00    +0.000 A 
ATOM     24  C   UNL     1       5.114   3.814  15.014  0.00  0.00    +0.000 A 
ENDBRANCH  17  22
ENDBRANCH   1  17
TORSDOF 4
ENDMDL
MODEL 2
REMARK VINA RESULT:      -7.8      2.355      2.904
REMARK  Name = 
REMARK  4 active torsions:
REMARK  status: ('A' for Active; 'I' for Inactive)
REMARK    1  A    between atoms: C_5  and  C_6
REMARK    2  A    between atoms: C_6  and  N_7
REMARK    3  A    between atoms: C_9  and  C_10
REMARK    4  A    between atoms: N_11  and  N_12
REMARK                            x       y       z     vdW  Elec       q    Type
REMARK                         _______ _______ _______ _____ _____    ______ ____
ROOT
ATOM      1  N   UNL     1       4.255   4.478  18.931  0.00  0.00    +0.000 N 
ATOM      2  C   UNL     1       3.903   5.670  19.514  0.00  0.00    +0.000 A 
ATOM      3  C   UNL     1       2.583   5.594  19.914  0.00  0.00    +0.000 A 
ATOM      4  C   UNL     1       2.106   4.302  19.526  0.00  0.00    +0.000 A 
ATOM      5  C   UNL     1       0.854   3.656  19.617  0.00  0.00    +0.000 A 
ATOM      6  C   UNL     1       0.699   2.362  19.109  0.00  0.00    +0.000 A 
ATOM      7  C   UNL     1       1.776   1.698  18.535  0.00  0.00    +0.000 A 
ATOM      8  C   UNL     1       3.031   2.309  18.442  0.00  0.00    +0.000 A 
ATOM      9  C   UNL     1       3.173   3.618  18.931  0.00  0.00    +0.000 A 
ENDROOT
BRANCH   3  10
ATOM     10  C   UNL     1       1.833   6.634  20.585  0.00  0.00    +0.000 C 
ATOM     11  N   UNL     1       1.840   7.835  20.114  0.00  0.00    +0.000 NA
BRANCH  11  12
ATOM     12  N   UNL     1       1.172   8.755  20.862  0.00  0.00    +0.000 N 
ATOM     13  C   UNL     1       0.116   9.576  20.549  0.00  0.00    +0.000 A 
ATOM     14  N   UNL     1      -0.213  10.314  21.586  0.00  0.00    +0.000 NA
ATOM     15  N   UNL     1       0.603   9.946  22.629  0.00  0.00    +0.000 NA
ATOM     16  C   UNL     1       1.399   8.998  22.190  0.00  0.00    +0.000 A 
ENDBRANCH  11  12
ENDBRANCH   3  10
BRANCH   1  17
ATOM     17  C   UNL     1       5.526   4.247  18.251  0.00  0.00    +0.000 C 
BRANCH  17  22
ATOM     18 CL   UNL     1       8.642   9.403  17.890  0.00  0.00    +0.000 Cl
ATOM     19  C   UNL     1       7.798   7.905  17.954  0.00  0.00    +0.000 A 
ATOM     20  C   UNL     1       6.708   7.689  17.116  0.00  0.00    +0.000 A 
ATOM     21  C   UNL     1       5.999   6.487  17.194  0.00  0.00    +0.000 A 
ATOM     22  C   UNL     1       6.375   5.489  18.107  0.00  0.00    +0.000 A 
ATOM     23  C   UNL     1       7.489   5.718  18.930  0.00  0.00    +0.000 A 
ATOM     24  C   UNL     1       8.197   6.922  18.856  0.00  0.00    +0.000 A 
ENDBRANCH  17  22
ENDBRANCH   1  17
TORSDOF 4
ENDMDL
MODEL 3
REMARK VINA RESULT:      -7.7      0.246      1.015
REMARK  Name = 
REMARK  4 active torsions:
REMARK  status: ('A' for Active; 'I' for Inactive)
REMARK    1  A    between atoms: C_5  and  C_6
REMARK    2  A    between atoms: C_6  and  N_7
REMARK    3  A    between atoms: C_9  and  C_10
REMARK    4  A    between atoms: N_11  and  N_12
REMARK                            x       y       z     vdW  Elec       q    Type
REMARK                         _______ _______ _______ _____ _____    ______ ____
ROOT
ATOM      1  N   UNL     1       4.501   5.081  19.369  0.00  0.00    +0.000 N 
ATOM      2  C   UNL     1       4.097   6.362  19.087  0.00  0.00    +0.000 A 
ATOM      3  C   UNL     1       2.758   6.484  19.403  0.00  0.00    +0.000 A 
ATOM      4  C   UNL     1       2.325   5.203  19.871  0.00  0.00    +0.000 A 
ATOM      5  C   UNL     1       1.079   4.688  20.294  0.00  0.00    +0.000 A 
ATOM      6  C   UNL     1       0.975   3.348  20.679  0.00  0.00    +0.000 A 
ATOM      7  C   UNL     1       2.093   2.523  20.670  0.00  0.00    +0.000 A 
ATOM      8  C   UNL     1       3.341   3.009  20.268  0.00  0.00    +0.000 A 
ATOM      9  C   UNL     1       3.434   4.350  19.857  0.00  0.00    +0.000 A 
ENDROOT
BRANCH   3  10
ATOM     10  C   UNL     1       1.954   7.680  19.269  0.00  0.00    +0.000 C 
ATOM     11  N   UNL     1       1.573   8.318  20.323  0.00  0.00    +0.000 NA
BRANCH  11  12
ATOM     12  N   UNL     1       0.754   9.381  20.093  0.00  0.00    +0.000 N 
ATOM     13  C   UNL     1      -0.280   9.899  20.833  0.00  0.00    +0.000 A 
ATOM     14  N   UNL     1      -0.802  10.941  20.226  0.00  0.00    +0.000 NA
ATOM     15  N   UNL     1      -0.072  11.159  19.081  0.00  0.00    +0.000 NA
ATOM     16  C   UNL     1       0.868  10.241  19.034  0.00  0.00    +0.000 A 
ENDBRANCH  11  12
ENDBRANCH   3  10
BRANCH   1  17
ATOM     17  C   UNL     1       5.812   4.544  19.018  0.00  0.00    +0.000 C 
BRANCH  17  22
ATOM     18 CL   UNL     1       6.415   4.140  13.027  0.00  0.00    +0.000 Cl
ATOM     19  C   UNL     1       6.276   4.200  14.741  0.00  0.00    +0.000 A 
ATOM     20  C   UNL     1       5.107   3.758  15.355  0.00  0.00    +0.000 A 
ATOM     21  C   UNL     1       4.979   3.840  16.744  0.00  0.00    +0.000 A 
ATOM     22  C   UNL     1       6.018   4.360  17.532  0.00  0.00    +0.000 A 
ATOM     23  C   UNL     1       7.197   4.782  16.896  0.00  0.00    +0.000 A 
ATOM     24  C   UNL     1       7.325   4.704  15.505  0.00  0.00    +0.000 A 
ENDBRANCH  17  22
ENDBRANCH   1  17
TORSDOF 4
ENDMDL
MODEL 4
REMARK VINA RESULT:      -7.7      0.970      1.131
REMARK  Name = 
REMARK  4 active torsions:
REMARK  status: ('A' for Active; 'I' for Inactive)
REMARK    1  A    between atoms: C_5  and  C_6
REMARK    2  A    between atoms: C_6  and  N_7
REMARK    3  A    between atoms: C_9  and  C_10
REMARK    4  A    between atoms: N_11  and  N_12
REMARK                            x       y       z     vdW  Elec       q    Type
REMARK                         _______ _______ _______ _____ _____    ______ ____
ROOT
ATOM      1  N   UNL     1       4.503   5.110  19.172  0.00  0.00    +0.000 N 
ATOM      2  C   UNL     1       4.105   6.404  18.949  0.00  0.00    +0.000 A 
ATOM      3  C   UNL     1       2.796   6.543  19.365  0.00  0.00    +0.000 A 
ATOM      4  C   UNL     1       2.372   5.260  19.835  0.00  0.00    +0.000 A 
ATOM      5  C   UNL     1       1.151   4.758  20.337  0.00  0.00    +0.000 A 
ATOM      6  C   UNL     1       1.048   3.412  20.700  0.00  0.00    +0.000 A 
ATOM      7  C   UNL     1       2.146   2.567  20.591  0.00  0.00    +0.000 A 
ATOM      8  C   UNL     1       3.371   3.039  20.108  0.00  0.00    +0.000 A 
ATOM      9  C   UNL     1       3.460   4.387  19.721  0.00  0.00    +0.000 A 
ENDROOT
BRANCH   3  10
ATOM     10  C   UNL     1       2.008   7.757  19.317  0.00  0.00    +0.000 C 
ATOM     11  N   UNL     1       2.206   8.613  18.372  0.00  0.00    +0.000 NA
BRANCH  11  12
ATOM     12  N   UNL     1       1.473   9.756  18.463  0.00  0.00    +0.000 N 
ATOM     13  C   UNL     1       1.859  11.072  18.510  0.00  0.00    +0.000 A 
ATOM     14  N   UNL     1       0.807  11.856  18.600  0.00  0.00    +0.000 NA
ATOM     15  N   UNL     1      -0.309  11.053  18.561  0.00  0.00    +0.000 NA
ATOM     16  C   UNL     1       0.105   9.811  18.449  0.00  0.00    +0.000 A 
ENDBRANCH  11  12
ENDBRANCH   3  10
BRANCH   1  17
ATOM     17  C   UNL     1       5.774   4.557  18.713  0.00  0.00    +0.000 C 
BRANCH  17  22
ATOM     18 CL   UNL     1       6.549   4.030  12.751  0.00  0.00    +0.000 Cl
ATOM     19  C   UNL     1       6.294   4.235  14.441  0.00  0.00    +0.000 A 
ATOM     20  C   UNL     1       7.288   4.813  15.225  0.00  0.00    +0.000 A 
ATOM     21  C   UNL     1       7.098   4.946  16.603  0.00  0.00    +0.000 A 
ATOM     22  C   UNL     1       5.910   4.507  17.209  0.00  0.00    +0.000 A 
ATOM     23  C   UNL     1       4.910   3.945  16.398  0.00  0.00    +0.000 A 
ATOM     24  C   UNL     1       5.102   3.807  15.020  0.00  0.00    +0.000 A 
ENDBRANCH  17  22
ENDBRANCH   1  17
TORSDOF 4
ENDMDL
MODEL 5
REMARK VINA RESULT:      -7.6      1.370      1.473
REMARK  Name = 
REMARK  4 active torsions:
REMARK  status: ('A' for Active; 'I' for Inactive)
REMARK    1  A    between atoms: C_5  and  C_6
REMARK    2  A    between atoms: C_6  and  N_7
REMARK    3  A    between atoms: C_9  and  C_10
REMARK    4  A    between atoms: N_11  and  N_12
REMARK                            x       y       z     vdW  Elec       q    Type
REMARK                         _______ _______ _______ _____ _____    ______ ____
ROOT
ATOM      1  N   UNL     1       4.842   4.894  17.846  0.00  0.00    +0.000 N 
ATOM      2  C   UNL     1       4.477   6.215  17.910  0.00  0.00    +0.000 A 
ATOM      3  C   UNL     1       3.128   6.288  18.195  0.00  0.00    +0.000 A 
ATOM      4  C   UNL     1       2.648   4.943  18.278  0.00  0.00    +0.000 A 
ATOM      5  C   UNL     1       1.374   4.372  18.496  0.00  0.00    +0.000 A 
ATOM      6  C   UNL     1       1.225   2.982  18.496  0.00  0.00    +0.000 A 
ATOM      7  C   UNL     1       2.326   2.156  18.305  0.00  0.00    +0.000 A 
ATOM      8  C   UNL     1       3.601   2.693  18.098  0.00  0.00    +0.000 A 
ATOM      9  C   UNL     1       3.739   4.091  18.074  0.00  0.00    +0.000 A 
ENDROOT
BRANCH   3  10
ATOM     10  C   UNL     1       2.354   7.501  18.363  0.00  0.00    +0.000 C 
ATOM     11  N   UNL     1       2.031   7.897  19.547  0.00  0.00    +0.000 NA
BRANCH  11  12
ATOM     12  N   UNL     1       1.236   9.001  19.592  0.00  0.00    +0.000 N 
ATOM     13  C   UNL     1       0.619   9.624  20.648  0.00  0.00    +0.000 A 
ATOM     14  N   UNL     1      -0.061  10.669  20.230  0.00  0.00    +0.000 NA
ATOM     15  N   UNL     1       0.145  10.779  18.875  0.00  0.00    +0.000 NA
ATOM     16  C   UNL     1       0.943   9.798  18.518  0.00  0.00    +0.000 A 
ENDBRANCH  11  12
ENDBRANCH   3  10
BRANCH   1  17
ATOM     17  C   UNL     1       6.156   4.431  17.412  0.00  0.00    +0.000 C 
BRANCH  17  22
ATOM     18 CL   UNL     1       7.236   4.302  11.475  0.00  0.00    +0.000 Cl
ATOM     19  C   UNL     1       6.882   4.383  13.157  0.00  0.00    +0.000 A 
ATOM     20  C   UNL     1       7.671   5.169  13.993  0.00  0.00    +0.000 A 
ATOM     21  C   UNL     1       7.408   5.207  15.365  0.00  0.00    +0.000 A 
ATOM     22  C   UNL     1       6.351   4.463  15.913  0.00  0.00    +0.000 A 
ATOM     23  C   UNL     1       5.553   3.692  15.052  0.00  0.00    +0.000 A 
ATOM     24  C   UNL     1       5.819   3.651  13.680  0.00  0.00    +0.000 A 
ENDBRANCH  17  22
ENDBRANCH   1  17
TORSDOF 4
ENDMDL
MODEL 6
REMARK VINA RESULT:      -7.5      3.545      7.378
REMARK  Name = 
REMARK  4 active torsions:
REMARK  status: ('A' for Active; 'I' for Inactive)
REMARK    1  A    between atoms: C_5  and  C_6
REMARK    2  A    between atoms: C_6  and  N_7
REMARK    3  A    between atoms: C_9  and  C_10
REMARK    4  A    between atoms: N_11  and  N_12
REMARK                            x       y       z     vdW  Elec       q    Type
REMARK                         _______ _______ _______ _____ _____    ______ ____
ROOT
ATOM      1  N   UNL     1       2.289   6.216  19.806  0.00  0.00    +0.000 N 
ATOM      2  C   UNL     1       3.259   6.598  18.913  0.00  0.00    +0.000 A 
ATOM      3  C   UNL     1       3.467   5.567  18.018  0.00  0.00    +0.000 A 
ATOM      4  C   UNL     1       2.600   4.498  18.409  0.00  0.00    +0.000 A 
ATOM      5  C   UNL     1       2.386   3.188  17.925  0.00  0.00    +0.000 A 
ATOM      6  C   UNL     1       1.457   2.355  18.558  0.00  0.00    +0.000 A 
ATOM      7  C   UNL     1       0.727   2.815  19.647  0.00  0.00    +0.000 A 
ATOM      8  C   UNL     1       0.909   4.111  20.140  0.00  0.00    +0.000 A 
ATOM      9  C   UNL     1       1.862   4.934  19.515  0.00  0.00    +0.000 A 
ENDROOT
BRANCH   3  10
ATOM     10  C   UNL     1       4.397   5.573  16.909  0.00  0.00    +0.000 C 
ATOM     11  N   UNL     1       4.794   4.457  16.398  0.00  0.00    +0.000 NA
BRANCH  11  12
ATOM     12  N   UNL     1       5.729   4.569  15.416  0.00  0.00    +0.000 N 
ATOM     13  C   UNL     1       5.753   4.078  14.134  0.00  0.00    +0.000 A 
ATOM     14  N   UNL     1       6.866   4.430  13.529  0.00  0.00    +0.000 NA
ATOM     15  N   UNL     1       7.580   5.215  14.403  0.00  0.00    +0.000 NA
ATOM     16  C   UNL     1       6.876   5.312  15.508  0.00  0.00    +0.000 A 
ENDBRANCH  11  12
ENDBRANCH   3  10
BRANCH   1  17
ATOM     17  C   UNL     1       1.918   6.989  20.987  0.00  0.00    +0.000 C 
BRANCH  17  22
ATOM     18 CL   UNL     1      -1.258  11.909  19.527  0.00  0.00    +0.000 Cl
ATOM     19  C   UNL     1      -0.308  10.545  19.972  0.00  0.00    +0.000 A 
ATOM     20  C   UNL     1       0.553   9.969  19.042  0.00  0.00    +0.000 A 
ATOM     21  C   UNL     1       1.297   8.839  19.390  0.00  0.00    +0.000 A 
ATOM     22  C   UNL     1       1.191   8.276  20.671  0.00  0.00    +0.000 A 
ATOM     23  C   UNL     1       0.332   8.882  21.602  0.00  0.00    +0.000 A 
ATOM     24  C   UNL     1      -0.416  10.011  21.253  0.00  0.00    +0.000 A 
ENDBRANCH  17  22
ENDBRANCH   1  17
TORSDOF 4
ENDMDL
MODEL 7
REMARK VINA RESULT:      -7.5      1.299      1.654
REMARK  Name = 
REMARK  4 active torsions:
REMARK  status: ('A' for Active; 'I' for Inactive)
REMARK    1  A    between atoms: C_5  and  C_6
REMARK    2  A    between atoms: C_6  and  N_7
REMARK    3  A    between atoms: C_9  and  C_10
REMARK    4  A    between atoms: N_11  and  N_12
REMARK                            x       y       z     vdW  Elec       q    Type
REMARK                         _______ _______ _______ _____ _____    ______ ____
ROOT
ATOM      1  N   UNL     1       4.831   4.875  18.095  0.00  0.00    +0.000 N 
ATOM      2  C   UNL     1       4.415   6.183  18.083  0.00  0.00    +0.000 A 
ATOM      3  C   UNL     1       3.045   6.214  18.257  0.00  0.00    +0.000 A 
ATOM      4  C   UNL     1       2.609   4.855  18.348  0.00  0.00    +0.000 A 
ATOM      5  C   UNL     1       1.343   4.243  18.483  0.00  0.00    +0.000 A 
ATOM      6  C   UNL     1       1.244   2.848  18.520  0.00  0.00    +0.000 A 
ATOM      7  C   UNL     1       2.386   2.059  18.447  0.00  0.00    +0.000 A 
ATOM      8  C   UNL     1       3.653   2.638  18.325  0.00  0.00    +0.000 A 
ATOM      9  C   UNL     1       3.743   4.039  18.262  0.00  0.00    +0.000 A 
ENDROOT
BRANCH   3  10
ATOM     10  C   UNL     1       2.218   7.400  18.319  0.00  0.00    +0.000 C 
ATOM     11  N   UNL     1       2.071   8.021  19.440  0.00  0.00    +0.000 NA
BRANCH  11  12
ATOM     12  N   UNL     1       1.210   9.075  19.410  0.00  0.00    +0.000 N 
ATOM     13  C   UNL     1       0.328   9.546  20.351  0.00  0.00    +0.000 A 
ATOM     14  N   UNL     1      -0.312  10.599  19.893  0.00  0.00    +0.000 NA
ATOM     15  N   UNL     1       0.185  10.871  18.641  0.00  0.00    +0.000 NA
ATOM     16  C   UNL     1       1.110   9.974  18.382  0.00  0.00    +0.000 A 
ENDBRANCH  11  12
ENDBRANCH   3  10
BRANCH   1  17
ATOM     17  C   UNL     1       6.192   4.450  17.784  0.00  0.00    +0.000 C 
BRANCH  17  22
ATOM     18 CL   UNL     1       7.055   4.437  11.811  0.00  0.00    +0.000 Cl
ATOM     19  C   UNL     1       6.860   4.401  13.520  0.00  0.00    +0.000 A 
ATOM     20  C   UNL     1       5.923   3.545  14.091  0.00  0.00    +0.000 A 
ATOM     21  C   UNL     1       5.737   3.541  15.476  0.00  0.00    +0.000 A 
ATOM     22  C   UNL     1       6.490   4.390  16.303  0.00  0.00    +0.000 A 
ATOM     23  C   UNL     1       7.444   5.232  15.711  0.00  0.00    +0.000 A 
ATOM     24  C   UNL     1       7.627   5.240  14.324  0.00  0.00    +0.000 A 
ENDBRANCH  17  22
ENDBRANCH   1  17
TORSDOF 4
ENDMDL
MODEL 8
REMARK VINA RESULT:      -7.5      3.563      7.433
REMARK  Name = 
REMARK  4 active torsions:
REMARK  status: ('A' for Active; 'I' for Inactive)
REMARK    1  A    between atoms: C_5  and  C_6
REMARK    2  A    between atoms: C_6  and  N_7
REMARK    3  A    between atoms: C_9  and  C_10
REMARK    4  A    between atoms: N_11  and  N_12
REMARK                            x       y       z     vdW  Elec       q    Type
REMARK                         _______ _______ _______ _____ _____    ______ ____
ROOT
ATOM      1  N   UNL     1       2.254   6.215  19.837  0.00  0.00    +0.000 N 
ATOM      2  C   UNL     1       3.203   6.604  18.926  0.00  0.00    +0.000 A 
ATOM      3  C   UNL     1       3.412   5.569  18.035  0.00  0.00    +0.000 A 
ATOM      4  C   UNL     1       2.568   4.490  18.448  0.00  0.00    +0.000 A 
ATOM      5  C   UNL     1       2.365   3.174  17.978  0.00  0.00    +0.000 A 
ATOM      6  C   UNL     1       1.460   2.332  18.633  0.00  0.00    +0.000 A 
ATOM      7  C   UNL     1       0.741   2.790  19.730  0.00  0.00    +0.000 A 
ATOM      8  C   UNL     1       0.913   4.092  20.210  0.00  0.00    +0.000 A 
ATOM      9  C   UNL     1       1.843   4.924  19.563  0.00  0.00    +0.000 A 
ENDROOT
BRANCH   3  10
ATOM     10  C   UNL     1       4.324   5.580  16.911  0.00  0.00    +0.000 C 
ATOM     11  N   UNL     1       5.015   4.526  16.635  0.00  0.00    +0.000 NA
BRANCH  11  12
ATOM     12  N   UNL     1       5.901   4.666  15.611  0.00  0.00    +0.000 N 
ATOM     13  C   UNL     1       7.112   5.310  15.549  0.00  0.00    +0.000 A 
ATOM     14  N   UNL     1       7.633   5.192  14.348  0.00  0.00    +0.000 NA
ATOM     15  N   UNL     1       6.780   4.410  13.604  0.00  0.00    +0.000 NA
ATOM     16  C   UNL     1       5.772   4.082  14.380  0.00  0.00    +0.000 A 
ENDBRANCH  11  12
ENDBRANCH   3  10
BRANCH   1  17
ATOM     17  C   UNL     1       1.892   6.992  21.019  0.00  0.00    +0.000 C 
BRANCH  17  22
ATOM     18 CL   UNL     1      -0.934  12.226  19.998  0.00  0.00    +0.000 Cl
ATOM     19  C   UNL     1      -0.175  10.703  20.256  0.00  0.00    +0.000 A 
ATOM     20  C   UNL     1      -0.379  10.022  21.452  0.00  0.00    +0.000 A 
ATOM     21  C   UNL     1       0.266   8.803  21.677  0.00  0.00    +0.000 A 
ATOM     22  C   UNL     1       1.118   8.252  20.707  0.00  0.00    +0.000 A 
ATOM     23  C   UNL     1       1.296   8.944  19.498  0.00  0.00    +0.000 A 
ATOM     24  C   UNL     1       0.654  10.166  19.274  0.00  0.00    +0.000 A 
ENDBRANCH  17  22
ENDBRANCH   1  17
TORSDOF 4
ENDMDL
MODEL 9
REMARK VINA RESULT:      -7.5      3.648      7.336
REMARK  Name = 
REMARK  4 active torsions:
REMARK  status: ('A' for Active; 'I' for Inactive)
REMARK    1  A    between atoms: C_5  and  C_6
REMARK    2  A    between atoms: C_6  and  N_7
REMARK    3  A    between atoms: C_9  and  C_10
REMARK    4  A    between atoms: N_11  and  N_12
REMARK                            x       y       z     vdW  Elec       q    Type
REMARK                         _______ _______ _______ _____ _____    ______ ____
ROOT
ATOM      1  N   UNL     1       2.880   5.903  19.032  0.00  0.00    +0.000 N 
ATOM      2  C   UNL     1       3.784   5.928  17.999  0.00  0.00    +0.000 A 
ATOM      3  C   UNL     1       3.722   4.722  17.329  0.00  0.00    +0.000 A 
ATOM      4  C   UNL     1       2.755   3.918  18.009  0.00  0.00    +0.000 A 
ATOM      5  C   UNL     1       2.285   2.597  17.835  0.00  0.00    +0.000 A 
ATOM      6  C   UNL     1       1.322   2.080  18.706  0.00  0.00    +0.000 A 
ATOM      7  C   UNL     1       0.806   2.863  19.731  0.00  0.00    +0.000 A 
ATOM      8  C   UNL     1       1.243   4.178  19.921  0.00  0.00    +0.000 A 
ATOM      9  C   UNL     1       2.230   4.684  19.057  0.00  0.00    +0.000 A 
ENDROOT
BRANCH   3  10
ATOM     10  C   UNL     1       4.504   4.348  16.169  0.00  0.00    +0.000 C 
ATOM     11  N   UNL     1       5.392   5.161  15.705  0.00  0.00    +0.000 NA
BRANCH  11  12
ATOM     12  N   UNL     1       6.014   4.752  14.566  0.00  0.00    +0.000 N 
ATOM     13  C   UNL     1       7.223   5.107  14.022  0.00  0.00    +0.000 A 
ATOM     14  N   UNL     1       7.428   4.459  12.896  0.00  0.00    +0.000 NA
ATOM     15  N   UNL     1       6.359   3.615  12.707  0.00  0.00    +0.000 NA
ATOM     16  C   UNL     1       5.543   3.780  13.724  0.00  0.00    +0.000 A 
ENDBRANCH  11  12
ENDBRANCH   3  10
BRANCH   1  17
ATOM     17  C   UNL     1       2.777   6.944  20.049  0.00  0.00    +0.000 C 
BRANCH  17  22
ATOM     18 CL   UNL     1      -0.861  11.602  18.827  0.00  0.00    +0.000 Cl
ATOM     19  C   UNL     1       0.131  10.234  19.150  0.00  0.00    +0.000 A 
ATOM     20  C   UNL     1       0.136   9.667  20.421  0.00  0.00    +0.000 A 
ATOM     21  C   UNL     1       0.969   8.579  20.695  0.00  0.00    +0.000 A 
ATOM     22  C   UNL     1       1.803   8.046  19.699  0.00  0.00    +0.000 A 
ATOM     23  C   UNL     1       1.770   8.618  18.418  0.00  0.00    +0.000 A 
ATOM     24  C   UNL     1       0.940   9.710  18.145  0.00  0.00    +0.000 A 
ENDBRANCH  17  22
ENDBRANCH   1  17
TORSDOF 4
ENDMDL
