MODEL 1
REMARK VINA RESULT:      -8.1      0.000      0.000
REMARK  Name = 
REMARK  8 active torsions:
REMARK  status: ('A' for Active; 'I' for Inactive)
REMARK    1  A    between atoms: C_1  and  C_2
REMARK    2  A    between atoms: C_2  and  C_3
REMARK    3  A    between atoms: C_2  and  O_4
REMARK    4  A    between atoms: C_2  and  C_12
REMARK    5  A    between atoms: O_4  and  C_5
REMARK    6  A    between atoms: N_14  and  C_15
REMARK    7  A    between atoms: C_22  and  C_23
REMARK    8  A    between atoms: C_23  and  O_25
REMARK                            x       y       z     vdW  Elec       q    Type
REMARK                         _______ _______ _______ _____ _____    ______ ____
ROOT
ATOM      1  C   UNL     1       2.070   8.584  18.051  0.00  0.00    +0.000 C 
ATOM      2  O   UNL     1       2.785   8.823  17.083  0.00  0.00    +0.000 OA
ATOM      3  N   UNL     1       2.150   7.407  18.776  0.00  0.00    +0.000 N 
ATOM      4  H   UNL     1       1.434   7.323  19.492  0.00  0.00    +0.000 HD
ENDROOT
BRANCH   3   5
ATOM      5  C   UNL     1       2.959   6.189  18.543  0.00  0.00    +0.000 C 
ATOM      6  C   UNL     1       3.635   5.580  19.781  0.00  0.00    +0.000 C 
ATOM      7  C   UNL     1       4.705   4.530  19.381  0.00  0.00    +0.000 C 
ATOM      8  C   UNL     1       4.316   3.547  18.274  0.00  0.00    +0.000 C 
ATOM      9  C   UNL     1       3.442   4.160  17.183  0.00  0.00    +0.000 C 
ATOM     10  C   UNL     1       2.307   5.044  17.751  0.00  0.00    +0.000 C 
ATOM     11  C   UNL     1       1.340   4.164  18.570  0.00  0.00    +0.000 C 
ATOM     12  C   UNL     1       1.479   4.159  20.106  0.00  0.00    +0.000 C 
ATOM     13  C   UNL     1       2.605   4.989  20.742  0.00  0.00    +0.000 C 
BRANCH  12  14
ATOM     14  C   UNL     1       1.477   2.728  20.615  0.00  0.00    +0.000 C 
ATOM     15  O   UNL     1       1.500   1.731  19.910  0.00  0.00    +0.000 OA
BRANCH  14  16
ATOM     16  O   UNL     1       1.419   2.654  21.967  0.00  0.00    +0.000 OA
ATOM     17  H   UNL     1       0.959   3.412  22.377  0.00  0.00    +0.000 HD
ENDBRANCH  14  16
ENDBRANCH  12  14
ENDBRANCH   3   5
BRANCH   1  19
ATOM     18  C   UNL     1       1.797  11.037  18.532  0.00  0.00    +0.000 C 
ATOM     19  C   UNL     1       1.082   9.675  18.612  0.00  0.00    +0.000 C 
ATOM     20  C   UNL     1       0.782   9.278  20.066  0.00  0.00    +0.000 C 
BRANCH  19  21
ATOM     21  O   UNL     1      -0.077   9.610  17.763  0.00  0.00    +0.000 OA
BRANCH  21  22
ATOM     22  C   UNL     1      -1.234  10.304  17.972  0.00  0.00    +0.000 A 
ATOM     23  C   UNL     1      -1.458  11.357  18.859  0.00  0.00    +0.000 A 
ATOM     24  C   UNL     1      -2.739  11.913  18.993  0.00  0.00    +0.000 A 
ATOM     25  C   UNL     1      -3.800  11.415  18.242  0.00  0.00    +0.000 A 
ATOM     26 CL   UNL     1      -5.380  12.065  18.451  0.00  0.00    +0.000 Cl
ATOM     27  C   UNL     1      -3.589  10.378  17.339  0.00  0.00    +0.000 A 
ATOM     28  C   UNL     1      -2.310   9.837  17.206  0.00  0.00    +0.000 A 
ENDBRANCH  21  22
ENDBRANCH  19  21
ENDBRANCH   1  19
TORSDOF 6
ENDMDL
MODEL 2
REMARK VINA RESULT:      -8.0      5.691      7.613
REMARK  Name = 
REMARK  8 active torsions:
REMARK  status: ('A' for Active; 'I' for Inactive)
REMARK    1  A    between atoms: C_1  and  C_2
REMARK    2  A    between atoms: C_2  and  C_3
REMARK    3  A    between atoms: C_2  and  O_4
REMARK    4  A    between atoms: C_2  and  C_12
REMARK    5  A    between atoms: O_4  and  C_5
REMARK    6  A    between atoms: N_14  and  C_15
REMARK    7  A    between atoms: C_22  and  C_23
REMARK    8  A    between atoms: C_23  and  O_25
REMARK                            x       y       z     vdW  Elec       q    Type
REMARK                         _______ _______ _______ _____ _____    ______ ____
ROOT
ATOM      1  C   UNL     1       6.498   5.477  18.247  0.00  0.00    +0.000 C 
ATOM      2  O   UNL     1       7.394   4.853  18.807  0.00  0.00    +0.000 OA
ATOM      3  N   UNL     1       5.171   5.407  18.637  0.00  0.00    +0.000 N 
ATOM      4  H   UNL     1       4.541   5.913  18.022  0.00  0.00    +0.000 HD
ENDROOT
BRANCH   3   5
ATOM      5  C   UNL     1       4.515   4.560  19.660  0.00  0.00    +0.000 C 
ATOM      6  C   UNL     1       3.086   4.965  20.056  0.00  0.00    +0.000 C 
ATOM      7  C   UNL     1       2.630   4.233  21.347  0.00  0.00    +0.000 C 
ATOM      8  C   UNL     1       2.956   2.741  21.436  0.00  0.00    +0.000 C 
ATOM      9  C   UNL     1       4.297   2.363  20.811  0.00  0.00    +0.000 C 
ATOM     10  C   UNL     1       4.529   3.040  19.439  0.00  0.00    +0.000 C 
ATOM     11  C   UNL     1       3.477   2.525  18.435  0.00  0.00    +0.000 C 
ATOM     12  C   UNL     1       2.248   3.410  18.145  0.00  0.00    +0.000 C 
ATOM     13  C   UNL     1       2.105   4.736  18.908  0.00  0.00    +0.000 C 
BRANCH  12  14
ATOM     14  C   UNL     1       0.984   2.573  18.228  0.00  0.00    +0.000 C 
ATOM     15  O   UNL     1      -0.143   2.974  17.979  0.00  0.00    +0.000 OA
BRANCH  14  16
ATOM     16  O   UNL     1       1.223   1.305  18.640  0.00  0.00    +0.000 OA
ATOM     17  H   UNL     1       0.909   0.627  18.011  0.00  0.00    +0.000 HD
ENDBRANCH  14  16
ENDBRANCH  12  14
ENDBRANCH   3   5
BRANCH   1  19
ATOM     18  C   UNL     1       7.712   7.616  17.719  0.00  0.00    +0.000 C 
ATOM     19  C   UNL     1       6.827   6.513  17.107  0.00  0.00    +0.000 C 
ATOM     20  C   UNL     1       5.478   7.070  16.627  0.00  0.00    +0.000 C 
BRANCH  19  21
ATOM     21  O   UNL     1       7.513   5.756  16.094  0.00  0.00    +0.000 OA
BRANCH  21  22
ATOM     22  C   UNL     1       6.897   5.018  15.124  0.00  0.00    +0.000 A 
ATOM     23  C   UNL     1       5.825   4.137  15.263  0.00  0.00    +0.000 A 
ATOM     24  C   UNL     1       5.358   3.405  14.161  0.00  0.00    +0.000 A 
ATOM     25  C   UNL     1       5.966   3.551  12.917  0.00  0.00    +0.000 A 
ATOM     26 CL   UNL     1       5.425   2.610  11.581  0.00  0.00    +0.000 Cl
ATOM     27  C   UNL     1       7.024   4.439  12.757  0.00  0.00    +0.000 A 
ATOM     28  C   UNL     1       7.476   5.170  13.857  0.00  0.00    +0.000 A 
ENDBRANCH  21  22
ENDBRANCH  19  21
ENDBRANCH   1  19
TORSDOF 6
ENDMDL
MODEL 3
REMARK VINA RESULT:      -8.0      5.668      7.603
REMARK  Name = 
REMARK  8 active torsions:
REMARK  status: ('A' for Active; 'I' for Inactive)
REMARK    1  A    between atoms: C_1  and  C_2
REMARK    2  A    between atoms: C_2  and  C_3
REMARK    3  A    between atoms: C_2  and  O_4
REMARK    4  A    between atoms: C_2  and  C_12
REMARK    5  A    between atoms: O_4  and  C_5
REMARK    6  A    between atoms: N_14  and  C_15
REMARK    7  A    between atoms: C_22  and  C_23
REMARK    8  A    between atoms: C_23  and  O_25
REMARK                            x       y       z     vdW  Elec       q    Type
REMARK                         _______ _______ _______ _____ _____    ______ ____
ROOT
ATOM      1  C   UNL     1       6.310   5.266  18.168  0.00  0.00    +0.000 C 
ATOM      2  O   UNL     1       7.236   4.754  18.790  0.00  0.00    +0.000 OA
ATOM      3  N   UNL     1       4.986   5.153  18.556  0.00  0.00    +0.000 N 
ATOM      4  H   UNL     1       4.333   5.558  17.892  0.00  0.00    +0.000 HD
ENDROOT
BRANCH   3   5
ATOM      5  C   UNL     1       4.371   4.371  19.653  0.00  0.00    +0.000 C 
ATOM      6  C   UNL     1       3.017   4.883  20.170  0.00  0.00    +0.000 C 
ATOM      7  C   UNL     1       2.634   4.204  21.513  0.00  0.00    +0.000 C 
ATOM      8  C   UNL     1       2.861   2.694  21.603  0.00  0.00    +0.000 C 
ATOM      9  C   UNL     1       4.108   2.212  20.865  0.00  0.00    +0.000 C 
ATOM     10  C   UNL     1       4.258   2.850  19.464  0.00  0.00    +0.000 C 
ATOM     11  C   UNL     1       3.083   2.397  18.572  0.00  0.00    +0.000 C 
ATOM     12  C   UNL     1       1.897   3.364  18.379  0.00  0.00    +0.000 C 
ATOM     13  C   UNL     1       1.920   4.708  19.123  0.00  0.00    +0.000 C 
BRANCH  12  14
ATOM     14  C   UNL     1       0.591   2.621  18.595  0.00  0.00    +0.000 C 
ATOM     15  O   UNL     1       0.164   1.726  17.882  0.00  0.00    +0.000 OA
BRANCH  14  16
ATOM     16  O   UNL     1      -0.095   3.073  19.672  0.00  0.00    +0.000 OA
ATOM     17  H   UNL     1      -0.288   2.376  20.329  0.00  0.00    +0.000 HD
ENDBRANCH  14  16
ENDBRANCH  12  14
ENDBRANCH   3   5
BRANCH   1  19
ATOM     18  C   UNL     1       7.290   7.472  17.461  0.00  0.00    +0.000 C 
ATOM     19  C   UNL     1       6.589   6.205  16.934  0.00  0.00    +0.000 C 
ATOM     20  C   UNL     1       5.219   6.530  16.320  0.00  0.00    +0.000 C 
BRANCH  19  21
ATOM     21  O   UNL     1       7.429   5.436  16.056  0.00  0.00    +0.000 OA
BRANCH  21  22
ATOM     22  C   UNL     1       7.008   4.837  14.903  0.00  0.00    +0.000 A 
ATOM     23  C   UNL     1       7.491   5.026  13.609  0.00  0.00    +0.000 A 
ATOM     24  C   UNL     1       6.891   4.372  12.523  0.00  0.00    +0.000 A 
ATOM     25  C   UNL     1       5.801   3.530  12.729  0.00  0.00    +0.000 A 
ATOM     26 CL   UNL     1       5.034   2.774  11.386  0.00  0.00    +0.000 Cl
ATOM     27  C   UNL     1       5.319   3.316  14.015  0.00  0.00    +0.000 A 
ATOM     28  C   UNL     1       5.928   3.963  15.091  0.00  0.00    +0.000 A 
ENDBRANCH  21  22
ENDBRANCH  19  21
ENDBRANCH   1  19
TORSDOF 6
ENDMDL
MODEL 4
REMARK VINA RESULT:      -7.8      5.577      7.889
REMARK  Name = 
REMARK  8 active torsions:
REMARK  status: ('A' for Active; 'I' for Inactive)
REMARK    1  A    between atoms: C_1  and  C_2
REMARK    2  A    between atoms: C_2  and  C_3
REMARK    3  A    between atoms: C_2  and  O_4
REMARK    4  A    between atoms: C_2  and  C_12
REMARK    5  A    between atoms: O_4  and  C_5
REMARK    6  A    between atoms: N_14  and  C_15
REMARK    7  A    between atoms: C_22  and  C_23
REMARK    8  A    between atoms: C_23  and  O_25
REMARK                            x       y       z     vdW  Elec       q    Type
REMARK                         _______ _______ _______ _____ _____    ______ ____
ROOT
ATOM      1  C   UNL     1       5.579   5.703  16.842  0.00  0.00    +0.000 C 
ATOM      2  O   UNL     1       4.864   6.640  16.500  0.00  0.00    +0.000 OA
ATOM      3  N   UNL     1       5.077   4.468  17.216  0.00  0.00    +0.000 N 
ATOM      4  H   UNL     1       5.788   3.826  17.554  0.00  0.00    +0.000 HD
ENDROOT
BRANCH   3   5
ATOM      5  C   UNL     1       3.678   4.014  17.396  0.00  0.00    +0.000 C 
ATOM      6  C   UNL     1       3.495   2.575  17.904  0.00  0.00    +0.000 C 
ATOM      7  C   UNL     1       2.026   2.102  17.738  0.00  0.00    +0.000 C 
ATOM      8  C   UNL     1       0.938   3.101  18.138  0.00  0.00    +0.000 C 
ATOM      9  C   UNL     1       1.284   4.552  17.816  0.00  0.00    +0.000 C 
ATOM     10  C   UNL     1       2.736   4.922  18.202  0.00  0.00    +0.000 C 
ATOM     11  C   UNL     1       2.895   4.818  19.733  0.00  0.00    +0.000 C 
ATOM     12  C   UNL     1       3.553   3.550  20.315  0.00  0.00    +0.000 C 
ATOM     13  C   UNL     1       3.968   2.431  19.348  0.00  0.00    +0.000 C 
BRANCH  12  14
ATOM     14  C   UNL     1       2.712   3.021  21.463  0.00  0.00    +0.000 C 
ATOM     15  O   UNL     1       3.028   2.098  22.199  0.00  0.00    +0.000 OA
BRANCH  14  16
ATOM     16  O   UNL     1       1.529   3.669  21.588  0.00  0.00    +0.000 OA
ATOM     17  H   UNL     1       0.766   3.149  21.268  0.00  0.00    +0.000 HD
ENDBRANCH  14  16
ENDBRANCH  12  14
ENDBRANCH   3   5
BRANCH   1  19
ATOM     18  C   UNL     1       7.740   4.553  17.418  0.00  0.00    +0.000 C 
ATOM     19  C   UNL     1       7.148   5.812  16.757  0.00  0.00    +0.000 C 
ATOM     20  C   UNL     1       7.534   7.088  17.521  0.00  0.00    +0.000 C 
BRANCH  19  21
ATOM     21  O   UNL     1       7.447   5.889  15.352  0.00  0.00    +0.000 OA
BRANCH  21  22
ATOM     22  C   UNL     1       6.965   5.030  14.406  0.00  0.00    +0.000 A 
ATOM     23  C   UNL     1       5.893   4.145  14.514  0.00  0.00    +0.000 A 
ATOM     24  C   UNL     1       5.576   3.280  13.456  0.00  0.00    +0.000 A 
ATOM     25  C   UNL     1       6.334   3.297  12.288  0.00  0.00    +0.000 A 
ATOM     26 CL   UNL     1       5.974   2.196  11.014  0.00  0.00    +0.000 Cl
ATOM     27  C   UNL     1       7.394   4.187  12.157  0.00  0.00    +0.000 A 
ATOM     28  C   UNL     1       7.697   5.050  13.211  0.00  0.00    +0.000 A 
ENDBRANCH  21  22
ENDBRANCH  19  21
ENDBRANCH   1  19
TORSDOF 6
ENDMDL
MODEL 5
REMARK VINA RESULT:      -7.7      1.979      2.775
REMARK  Name = 
REMARK  8 active torsions:
REMARK  status: ('A' for Active; 'I' for Inactive)
REMARK    1  A    between atoms: C_1  and  C_2
REMARK    2  A    between atoms: C_2  and  C_3
REMARK    3  A    between atoms: C_2  and  O_4
REMARK    4  A    between atoms: C_2  and  C_12
REMARK    5  A    between atoms: O_4  and  C_5
REMARK    6  A    between atoms: N_14  and  C_15
REMARK    7  A    between atoms: C_22  and  C_23
REMARK    8  A    between atoms: C_23  and  O_25
REMARK                            x       y       z     vdW  Elec       q    Type
REMARK                         _______ _______ _______ _____ _____    ______ ____
ROOT
ATOM      1  C   UNL     1       2.142   8.520  18.041  0.00  0.00    +0.000 C 
ATOM      2  O   UNL     1       2.672   8.649  16.942  0.00  0.00    +0.000 OA
ATOM      3  N   UNL     1       2.300   7.391  18.827  0.00  0.00    +0.000 N 
ATOM      4  H   UNL     1       1.729   7.400  19.668  0.00  0.00    +0.000 HD
ENDROOT
BRANCH   3   5
ATOM      5  C   UNL     1       2.990   6.112  18.543  0.00  0.00    +0.000 C 
ATOM      6  C   UNL     1       3.732   5.468  19.725  0.00  0.00    +0.000 C 
ATOM      7  C   UNL     1       4.679   4.335  19.247  0.00  0.00    +0.000 C 
ATOM      8  C   UNL     1       4.115   3.372  18.200  0.00  0.00    +0.000 C 
ATOM      9  C   UNL     1       3.191   4.036  17.183  0.00  0.00    +0.000 C 
ATOM     10  C   UNL     1       2.184   5.011  17.837  0.00  0.00    +0.000 C 
ATOM     11  C   UNL     1       1.235   4.217  18.759  0.00  0.00    +0.000 C 
ATOM     12  C   UNL     1       1.517   4.219  20.275  0.00  0.00    +0.000 C 
ATOM     13  C   UNL     1       2.756   4.968  20.788  0.00  0.00    +0.000 C 
BRANCH  12  14
ATOM     14  C   UNL     1       1.455   2.799  20.809  0.00  0.00    +0.000 C 
ATOM     15  O   UNL     1       1.433   2.492  21.991  0.00  0.00    +0.000 OA
BRANCH  14  16
ATOM     16  O   UNL     1       1.453   1.870  19.823  0.00  0.00    +0.000 OA
ATOM     17  H   UNL     1       0.898   1.091  20.025  0.00  0.00    +0.000 HD
ENDBRANCH  14  16
ENDBRANCH  12  14
ENDBRANCH   3   5
BRANCH   1  19
ATOM     18  C   UNL     1      -0.120   9.611  18.183  0.00  0.00    +0.000 C 
ATOM     19  C   UNL     1       1.332   9.705  18.690  0.00  0.00    +0.000 C 
ATOM     20  C   UNL     1       2.013  11.000  18.222  0.00  0.00    +0.000 C 
BRANCH  19  21
ATOM     21  O   UNL     1       1.434   9.500  20.110  0.00  0.00    +0.000 OA
BRANCH  21  22
ATOM     22  C   UNL     1       0.596  10.050  21.037  0.00  0.00    +0.000 A 
ATOM     23  C   UNL     1      -0.059   9.412  22.090  0.00  0.00    +0.000 A 
ATOM     24  C   UNL     1      -0.944  10.123  22.914  0.00  0.00    +0.000 A 
ATOM     25  C   UNL     1      -1.179  11.476  22.682  0.00  0.00    +0.000 A 
ATOM     26 CL   UNL     1      -2.308  12.331  23.661  0.00  0.00    +0.000 Cl
ATOM     27  C   UNL     1      -0.520  12.132  21.648  0.00  0.00    +0.000 A 
ATOM     28  C   UNL     1       0.366  11.418  20.840  0.00  0.00    +0.000 A 
ENDBRANCH  21  22
ENDBRANCH  19  21
ENDBRANCH   1  19
TORSDOF 6
ENDMDL
MODEL 6
REMARK VINA RESULT:      -7.7      1.417      1.877
REMARK  Name = 
REMARK  8 active torsions:
REMARK  status: ('A' for Active; 'I' for Inactive)
REMARK    1  A    between atoms: C_1  and  C_2
REMARK    2  A    between atoms: C_2  and  C_3
REMARK    3  A    between atoms: C_2  and  O_4
REMARK    4  A    between atoms: C_2  and  C_12
REMARK    5  A    between atoms: O_4  and  C_5
REMARK    6  A    between atoms: N_14  and  C_15
REMARK    7  A    between atoms: C_22  and  C_23
REMARK    8  A    between atoms: C_23  and  O_25
REMARK                            x       y       z     vdW  Elec       q    Type
REMARK                         _______ _______ _______ _____ _____    ______ ____
ROOT
ATOM      1  C   UNL     1       1.764   8.402  19.613  0.00  0.00    +0.000 C 
ATOM      2  O   UNL     1       2.135   8.970  18.591  0.00  0.00    +0.000 OA
ATOM      3  N   UNL     1       2.233   7.158  19.998  0.00  0.00    +0.000 N 
ATOM      4  H   UNL     1       1.766   6.786  20.820  0.00  0.00    +0.000 HD
ENDROOT
BRANCH   3   5
ATOM      5  C   UNL     1       3.135   6.214  19.300  0.00  0.00    +0.000 C 
ATOM      6  C   UNL     1       3.585   4.987  20.108  0.00  0.00    +0.000 C 
ATOM      7  C   UNL     1       4.768   4.258  19.416  0.00  0.00    +0.000 C 
ATOM      8  C   UNL     1       4.656   4.063  17.902  0.00  0.00    +0.000 C 
ATOM      9  C   UNL     1       3.983   5.226  17.177  0.00  0.00    +0.000 C 
ATOM     10  C   UNL     1       2.714   5.729  17.904  0.00  0.00    +0.000 C 
ATOM     11  C   UNL     1       1.652   4.609  17.904  0.00  0.00    +0.000 C 
ATOM     12  C   UNL     1       1.486   3.760  19.181  0.00  0.00    +0.000 C 
ATOM     13  C   UNL     1       2.419   4.035  20.370  0.00  0.00    +0.000 C 
BRANCH  12  14
ATOM     14  C   UNL     1       1.459   2.287  18.815  0.00  0.00    +0.000 C 
ATOM     15  O   UNL     1       2.417   1.530  18.869  0.00  0.00    +0.000 OA
BRANCH  14  16
ATOM     16  O   UNL     1       0.241   1.877  18.384  0.00  0.00    +0.000 OA
ATOM     17  H   UNL     1      -0.025   1.008  18.741  0.00  0.00    +0.000 HD
ENDBRANCH  14  16
ENDBRANCH  12  14
ENDBRANCH   3   5
BRANCH   1  19
ATOM     18  C   UNL     1       1.586   9.330  21.944  0.00  0.00    +0.000 C 
ATOM     19  C   UNL     1       0.804   9.124  20.632  0.00  0.00    +0.000 C 
ATOM     20  C   UNL     1      -0.397   8.187  20.831  0.00  0.00    +0.000 C 
BRANCH  19  21
ATOM     21  O   UNL     1       0.447  10.366  20.003  0.00  0.00    +0.000 OA
BRANCH  21  22
ATOM     22  C   UNL     1      -0.687  10.569  19.269  0.00  0.00    +0.000 A 
ATOM     23  C   UNL     1      -1.025  10.013  18.036  0.00  0.00    +0.000 A 
ATOM     24  C   UNL     1      -2.211  10.388  17.387  0.00  0.00    +0.000 A 
ATOM     25  C   UNL     1      -3.061  11.324  17.972  0.00  0.00    +0.000 A 
ATOM     26 CL   UNL     1      -4.488  11.821  17.146  0.00  0.00    +0.000 Cl
ATOM     27  C   UNL     1      -2.748  11.873  19.210  0.00  0.00    +0.000 A 
ATOM     28  C   UNL     1      -1.571  11.487  19.852  0.00  0.00    +0.000 A 
ENDBRANCH  21  22
ENDBRANCH  19  21
ENDBRANCH   1  19
TORSDOF 6
ENDMDL
MODEL 7
REMARK VINA RESULT:      -7.5      3.329      5.903
REMARK  Name = 
REMARK  8 active torsions:
REMARK  status: ('A' for Active; 'I' for Inactive)
REMARK    1  A    between atoms: C_1  and  C_2
REMARK    2  A    between atoms: C_2  and  C_3
REMARK    3  A    between atoms: C_2  and  O_4
REMARK    4  A    between atoms: C_2  and  C_12
REMARK    5  A    between atoms: O_4  and  C_5
REMARK    6  A    between atoms: N_14  and  C_15
REMARK    7  A    between atoms: C_22  and  C_23
REMARK    8  A    between atoms: C_23  and  O_25
REMARK                            x       y       z     vdW  Elec       q    Type
REMARK                         _______ _______ _______ _____ _____    ______ ____
ROOT
ATOM      1  C   UNL     1       3.474   3.795  19.327  0.00  0.00    +0.000 C 
ATOM      2  O   UNL     1       4.349   2.979  19.601  0.00  0.00    +0.000 OA
ATOM      3  N   UNL     1       3.464   4.523  18.149  0.00  0.00    +0.000 N 
ATOM      4  H   UNL     1       2.724   5.217  18.108  0.00  0.00    +0.000 HD
ENDROOT
BRANCH   3   5
ATOM      5  C   UNL     1       4.461   4.595  17.056  0.00  0.00    +0.000 C 
ATOM      6  C   UNL     1       4.628   5.967  16.385  0.00  0.00    +0.000 C 
ATOM      7  C   UNL     1       5.432   5.853  15.062  0.00  0.00    +0.000 C 
ATOM      8  C   UNL     1       6.677   4.963  15.094  0.00  0.00    +0.000 C 
ATOM      9  C   UNL     1       6.527   3.724  15.974  0.00  0.00    +0.000 C 
ATOM     10  C   UNL     1       5.864   4.034  17.336  0.00  0.00    +0.000 C 
ATOM     11  C   UNL     1       6.783   4.972  18.146  0.00  0.00    +0.000 C 
ATOM     12  C   UNL     1       6.455   6.479  18.166  0.00  0.00    +0.000 C 
ATOM     13  C   UNL     1       5.262   6.979  17.337  0.00  0.00    +0.000 C 
BRANCH  12  14
ATOM     14  C   UNL     1       7.713   7.279  17.882  0.00  0.00    +0.000 C 
ATOM     15  O   UNL     1       7.975   7.827  16.823  0.00  0.00    +0.000 OA
BRANCH  14  16
ATOM     16  O   UNL     1       8.561   7.312  18.939  0.00  0.00    +0.000 OA
ATOM     17  H   UNL     1       8.138   7.067  19.784  0.00  0.00    +0.000 HD
ENDBRANCH  14  16
ENDBRANCH  12  14
ENDBRANCH   3   5
BRANCH   1  19
ATOM     18  C   UNL     1       2.185   2.784  21.235  0.00  0.00    +0.000 C 
ATOM     19  C   UNL     1       2.220   3.977  20.261  0.00  0.00    +0.000 C 
ATOM     20  C   UNL     1       0.992   3.988  19.337  0.00  0.00    +0.000 C 
BRANCH  19  21
ATOM     21  O   UNL     1       2.426   5.231  20.933  0.00  0.00    +0.000 OA
BRANCH  21  22
ATOM     22  C   UNL     1       2.024   6.445  20.457  0.00  0.00    +0.000 A 
ATOM     23  C   UNL     1       2.416   7.080  19.279  0.00  0.00    +0.000 A 
ATOM     24  C   UNL     1       1.950   8.368  18.975  0.00  0.00    +0.000 A 
ATOM     25  C   UNL     1       1.090   9.025  19.853  0.00  0.00    +0.000 A 
ATOM     26 CL   UNL     1       0.565  10.626  19.502  0.00  0.00    +0.000 Cl
ATOM     27  C   UNL     1       0.674   8.398  21.022  0.00  0.00    +0.000 A 
ATOM     28  C   UNL     1       1.136   7.113  21.311  0.00  0.00    +0.000 A 
ENDBRANCH  21  22
ENDBRANCH  19  21
ENDBRANCH   1  19
TORSDOF 6
ENDMDL
MODEL 8
REMARK VINA RESULT:      -7.5      5.331      7.538
REMARK  Name = 
REMARK  8 active torsions:
REMARK  status: ('A' for Active; 'I' for Inactive)
REMARK    1  A    between atoms: C_1  and  C_2
REMARK    2  A    between atoms: C_2  and  C_3
REMARK    3  A    between atoms: C_2  and  O_4
REMARK    4  A    between atoms: C_2  and  C_12
REMARK    5  A    between atoms: O_4  and  C_5
REMARK    6  A    between atoms: N_14  and  C_15
REMARK    7  A    between atoms: C_22  and  C_23
REMARK    8  A    between atoms: C_23  and  O_25
REMARK                            x       y       z     vdW  Elec       q    Type
REMARK                         _______ _______ _______ _____ _____    ______ ____
ROOT
ATOM      1  C   UNL     1       5.696   5.984  17.384  0.00  0.00    +0.000 C 
ATOM      2  O   UNL     1       5.044   6.839  16.792  0.00  0.00    +0.000 OA
ATOM      3  N   UNL     1       5.161   4.771  17.786  0.00  0.00    +0.000 N 
ATOM      4  H   UNL     1       5.803   4.209  18.338  0.00  0.00    +0.000 HD
ENDROOT
BRANCH   3   5
ATOM      5  C   UNL     1       3.771   4.266  17.721  0.00  0.00    +0.000 C 
ATOM      6  C   UNL     1       3.572   2.786  18.085  0.00  0.00    +0.000 C 
ATOM      7  C   UNL     1       2.164   2.287  17.667  0.00  0.00    +0.000 C 
ATOM      8  C   UNL     1       0.990   3.219  17.975  0.00  0.00    +0.000 C 
ATOM      9  C   UNL     1       1.321   4.701  17.819  0.00  0.00    +0.000 C 
ATOM     10  C   UNL     1       2.685   5.079  18.443  0.00  0.00    +0.000 C 
ATOM     11  C   UNL     1       2.623   4.857  19.969  0.00  0.00    +0.000 C 
ATOM     12  C   UNL     1       3.238   3.565  20.545  0.00  0.00    +0.000 C 
ATOM     13  C   UNL     1       3.834   2.540  19.569  0.00  0.00    +0.000 C 
BRANCH  12  14
ATOM     14  C   UNL     1       2.260   2.921  21.511  0.00  0.00    +0.000 C 
ATOM     15  O   UNL     1       2.553   2.097  22.364  0.00  0.00    +0.000 OA
BRANCH  14  16
ATOM     16  O   UNL     1       0.985   3.338  21.321  0.00  0.00    +0.000 OA
ATOM     17  H   UNL     1       0.802   4.216  21.707  0.00  0.00    +0.000 HD
ENDBRANCH  14  16
ENDBRANCH  12  14
ENDBRANCH   3   5
BRANCH   1  19
ATOM     18  C   UNL     1       7.528   5.883  19.104  0.00  0.00    +0.000 C 
ATOM     19  C   UNL     1       7.242   6.167  17.617  0.00  0.00    +0.000 C 
ATOM     20  C   UNL     1       7.565   7.623  17.247  0.00  0.00    +0.000 C 
BRANCH  19  21
ATOM     21  O   UNL     1       7.873   5.215  16.743  0.00  0.00    +0.000 OA
BRANCH  21  22
ATOM     22  C   UNL     1       7.387   4.835  15.526  0.00  0.00    +0.000 A 
ATOM     23  C   UNL     1       7.637   5.412  14.281  0.00  0.00    +0.000 A 
ATOM     24  C   UNL     1       6.994   4.931  13.131  0.00  0.00    +0.000 A 
ATOM     25  C   UNL     1       6.096   3.870  13.224  0.00  0.00    +0.000 A 
ATOM     26 CL   UNL     1       5.269   3.319  11.819  0.00  0.00    +0.000 Cl
ATOM     27  C   UNL     1       5.850   3.271  14.454  0.00  0.00    +0.000 A 
ATOM     28  C   UNL     1       6.501   3.751  15.592  0.00  0.00    +0.000 A 
ENDBRANCH  21  22
ENDBRANCH  19  21
ENDBRANCH   1  19
TORSDOF 6
ENDMDL
MODEL 9
REMARK VINA RESULT:      -7.4      2.918      3.356
REMARK  Name = 
REMARK  8 active torsions:
REMARK  status: ('A' for Active; 'I' for Inactive)
REMARK    1  A    between atoms: C_1  and  C_2
REMARK    2  A    between atoms: C_2  and  C_3
REMARK    3  A    between atoms: C_2  and  O_4
REMARK    4  A    between atoms: C_2  and  C_12
REMARK    5  A    between atoms: O_4  and  C_5
REMARK    6  A    between atoms: N_14  and  C_15
REMARK    7  A    between atoms: C_22  and  C_23
REMARK    8  A    between atoms: C_23  and  O_25
REMARK                            x       y       z     vdW  Elec       q    Type
REMARK                         _______ _______ _______ _____ _____    ______ ____
ROOT
ATOM      1  C   UNL     1       1.549   8.362  19.965  0.00  0.00    +0.000 C 
ATOM      2  O   UNL     1       1.743   8.989  18.928  0.00  0.00    +0.000 OA
ATOM      3  N   UNL     1       2.191   7.171  20.258  0.00  0.00    +0.000 N 
ATOM      4  H   UNL     1       1.860   6.732  21.112  0.00  0.00    +0.000 HD
ENDROOT
BRANCH   3   5
ATOM      5  C   UNL     1       3.112   6.350  19.439  0.00  0.00    +0.000 C 
ATOM      6  C   UNL     1       3.569   5.022  20.064  0.00  0.00    +0.000 C 
ATOM      7  C   UNL     1       4.768   4.416  19.286  0.00  0.00    +0.000 C 
ATOM      8  C   UNL     1       4.674   4.445  17.759  0.00  0.00    +0.000 C 
ATOM      9  C   UNL     1       3.994   5.694  17.205  0.00  0.00    +0.000 C 
ATOM     10  C   UNL     1       2.711   6.072  17.983  0.00  0.00    +0.000 C 
ATOM     11  C   UNL     1       1.664   4.952  17.806  0.00  0.00    +0.000 C 
ATOM     12  C   UNL     1       1.495   3.923  18.942  0.00  0.00    +0.000 C 
ATOM     13  C   UNL     1       2.413   4.030  20.169  0.00  0.00    +0.000 C 
BRANCH  12  14
ATOM     14  C   UNL     1       1.490   2.519  18.363  0.00  0.00    +0.000 C 
ATOM     15  O   UNL     1       2.439   1.982  17.812  0.00  0.00    +0.000 OA
BRANCH  14  16
ATOM     16  O   UNL     1       0.290   1.904  18.493  0.00  0.00    +0.000 OA
ATOM     17  H   UNL     1       0.360   0.978  18.796  0.00  0.00    +0.000 HD
ENDBRANCH  14  16
ENDBRANCH  12  14
ENDBRANCH   3   5
BRANCH   1  19
ATOM     18  C   UNL     1       1.503   9.138  22.357  0.00  0.00    +0.000 C 
ATOM     19  C   UNL     1       0.630   8.949  21.102  0.00  0.00    +0.000 C 
ATOM     20  C   UNL     1      -0.481   7.914  21.336  0.00  0.00    +0.000 C 
BRANCH  19  21
ATOM     21  O   UNL     1       0.134  10.195  20.583  0.00  0.00    +0.000 OA
BRANCH  21  22
ATOM     22  C   UNL     1      -0.147  11.296  21.340  0.00  0.00    +0.000 A 
ATOM     23  C   UNL     1      -1.083  11.418  22.367  0.00  0.00    +0.000 A 
ATOM     24  C   UNL     1      -1.289  12.653  22.998  0.00  0.00    +0.000 A 
ATOM     25  C   UNL     1      -0.561  13.772  22.601  0.00  0.00    +0.000 A 
ATOM     26 CL   UNL     1      -0.857  15.297  23.342  0.00  0.00    +0.000 Cl
ATOM     27  C   UNL     1       0.390  13.663  21.593  0.00  0.00    +0.000 A 
ATOM     28  C   UNL     1       0.595  12.428  20.976  0.00  0.00    +0.000 A 
ENDBRANCH  21  22
ENDBRANCH  19  21
ENDBRANCH   1  19
TORSDOF 6
ENDMDL
