MODEL 1
REMARK VINA RESULT:      -7.7      0.000      0.000
REMARK  Name = 
REMARK  5 active torsions:
REMARK  status: ('A' for Active; 'I' for Inactive)
REMARK    1  A    between atoms: S_2  and  C_3
REMARK    2  A    between atoms: S_2  and  C_9
REMARK    3  A    between atoms: C_3  and  C_4
REMARK    4  A    between atoms: C_9  and  C_10
REMARK    5  A    between atoms: C_9  and  C_16
REMARK                            x       y       z     vdW  Elec       q    Type
REMARK                         _______ _______ _______ _____ _____    ______ ____
ROOT
ATOM      1  C   UNL     1       2.878   6.363  19.548  0.00  0.00    +0.000 C 
ENDROOT
BRANCH   1   2
ATOM      2  C   UNL     1       1.955   7.567  19.754  0.00  0.00    +0.000 A 
ATOM      3  C   UNL     1       1.789   8.488  18.695  0.00  0.00    +0.000 A 
ATOM      4  C   UNL     1       1.026   9.649  18.861  0.00  0.00    +0.000 A 
ATOM      5  C   UNL     1       0.424   9.905  20.084  0.00  0.00    +0.000 A 
ATOM      6  F   UNL     1      -0.299  11.021  20.248  0.00  0.00    +0.000 F 
ATOM      7  C   UNL     1       0.575   9.024  21.145  0.00  0.00    +0.000 A 
ATOM      8  C   UNL     1       1.344   7.868  20.983  0.00  0.00    +0.000 A 
ENDBRANCH   1   2
BRANCH   1   9
ATOM      9  C   UNL     1       2.241   5.063  20.045  0.00  0.00    +0.000 A 
ATOM     10  C   UNL     1       1.357   4.340  19.222  0.00  0.00    +0.000 A 
ATOM     11  C   UNL     1       0.831   3.115  19.624  0.00  0.00    +0.000 A 
ATOM     12  C   UNL     1       1.170   2.591  20.865  0.00  0.00    +0.000 A 
ATOM     13  C   UNL     1       2.032   3.296  21.704  0.00  0.00    +0.000 A 
ATOM     14  C   UNL     1       2.566   4.525  21.303  0.00  0.00    +0.000 A 
ENDBRANCH   1   9
BRANCH   1  16
ATOM     15  O   UNL     1       4.439   7.270  17.396  0.00  0.00    +0.000 OA
ATOM     16  S   UNL     1       3.547   6.055  17.849  0.00  0.00    +0.000 S 
BRANCH  16  17
ATOM     17  C   UNL     1       4.633   4.635  18.189  0.00  0.00    +0.000 C 
BRANCH  17  18
ATOM     18  C   UNL     1       5.694   4.563  17.132  0.00  0.00    +0.000 A 
ATOM     19  C   UNL     1       7.071   4.635  17.273  0.00  0.00    +0.000 A 
ATOM     20  N   UNL     1       7.803   4.563  16.105  0.00  0.00    +0.000 NA
ATOM     21  C   UNL     1       6.982   4.448  15.087  0.00  0.00    +0.000 A 
ATOM     22  S   UNL     1       5.309   4.389  15.468  0.00  0.00    +0.000 S 
ENDBRANCH  17  18
ENDBRANCH  16  17
ENDBRANCH   1  16
TORSDOF 5
ENDMDL
MODEL 2
REMARK VINA RESULT:      -7.7      0.114      1.034
REMARK  Name = 
REMARK  5 active torsions:
REMARK  status: ('A' for Active; 'I' for Inactive)
REMARK    1  A    between atoms: S_2  and  C_3
REMARK    2  A    between atoms: S_2  and  C_9
REMARK    3  A    between atoms: C_3  and  C_4
REMARK    4  A    between atoms: C_9  and  C_10
REMARK    5  A    between atoms: C_9  and  C_16
REMARK                            x       y       z     vdW  Elec       q    Type
REMARK                         _______ _______ _______ _____ _____    ______ ____
ROOT
ATOM      1  C   UNL     1       2.938   6.335  19.504  0.00  0.00    +0.000 C 
ENDROOT
BRANCH   1   2
ATOM      2  C   UNL     1       1.990   7.512  19.745  0.00  0.00    +0.000 A 
ATOM      3  C   UNL     1       1.806   8.462  18.715  0.00  0.00    +0.000 A 
ATOM      4  C   UNL     1       1.018   9.601  18.914  0.00  0.00    +0.000 A 
ATOM      5  C   UNL     1       0.408   9.806  20.142  0.00  0.00    +0.000 A 
ATOM      6  F   UNL     1      -0.338  10.901  20.340  0.00  0.00    +0.000 F 
ATOM      7  C   UNL     1       0.576   8.896  21.177  0.00  0.00    +0.000 A 
ATOM      8  C   UNL     1       1.370   7.762  20.981  0.00  0.00    +0.000 A 
ENDBRANCH   1   2
BRANCH   1   9
ATOM      9  C   UNL     1       2.335   5.010  19.975  0.00  0.00    +0.000 A 
ATOM     10  C   UNL     1       2.668   4.483  21.238  0.00  0.00    +0.000 A 
ATOM     11  C   UNL     1       2.068   3.322  21.720  0.00  0.00    +0.000 A 
ATOM     12  C   UNL     1       1.128   2.656  20.943  0.00  0.00    +0.000 A 
ATOM     13  C   UNL     1       0.794   3.150  19.683  0.00  0.00    +0.000 A 
ATOM     14  C   UNL     1       1.391   4.318  19.197  0.00  0.00    +0.000 A 
ENDBRANCH   1   9
BRANCH   1  16
ATOM     15  O   UNL     1       4.501   7.305  17.381  0.00  0.00    +0.000 OA
ATOM     16  S   UNL     1       3.601   6.082  17.793  0.00  0.00    +0.000 S 
BRANCH  16  17
ATOM     17  C   UNL     1       4.677   4.642  18.080  0.00  0.00    +0.000 C 
BRANCH  17  18
ATOM     18  C   UNL     1       5.717   4.583  17.002  0.00  0.00    +0.000 A 
ATOM     19  C   UNL     1       7.097   4.634  17.119  0.00  0.00    +0.000 A 
ATOM     20  N   UNL     1       7.807   4.582  15.937  0.00  0.00    +0.000 NA
ATOM     21  C   UNL     1       6.966   4.503  14.931  0.00  0.00    +0.000 A 
ATOM     22  S   UNL     1       5.299   4.456  15.342  0.00  0.00    +0.000 S 
ENDBRANCH  17  18
ENDBRANCH  16  17
ENDBRANCH   1  16
TORSDOF 5
ENDMDL
MODEL 3
REMARK VINA RESULT:      -7.6      0.246      1.471
REMARK  Name = 
REMARK  5 active torsions:
REMARK  status: ('A' for Active; 'I' for Inactive)
REMARK    1  A    between atoms: S_2  and  C_3
REMARK    2  A    between atoms: S_2  and  C_9
REMARK    3  A    between atoms: C_3  and  C_4
REMARK    4  A    between atoms: C_9  and  C_10
REMARK    5  A    between atoms: C_9  and  C_16
REMARK                            x       y       z     vdW  Elec       q    Type
REMARK                         _______ _______ _______ _____ _____    ______ ____
ROOT
ATOM      1  C   UNL     1       2.968   6.354  19.544  0.00  0.00    +0.000 C 
ENDROOT
BRANCH   1   2
ATOM      2  C   UNL     1       2.045   7.549  19.798  0.00  0.00    +0.000 A 
ATOM      3  C   UNL     1       1.338   7.617  21.020  0.00  0.00    +0.000 A 
ATOM      4  C   UNL     1       0.418   8.642  21.266  0.00  0.00    +0.000 A 
ATOM      5  C   UNL     1       0.191   9.607  20.296  0.00  0.00    +0.000 A 
ATOM      6  F   UNL     1      -0.697  10.583  20.525  0.00  0.00    +0.000 F 
ATOM      7  C   UNL     1       0.863   9.562  19.083  0.00  0.00    +0.000 A 
ATOM      8  C   UNL     1       1.777   8.534  18.833  0.00  0.00    +0.000 A 
ENDBRANCH   1   2
BRANCH   1   9
ATOM      9  C   UNL     1       2.336   5.037  20.002  0.00  0.00    +0.000 A 
ATOM     10  C   UNL     1       2.654   4.491  21.260  0.00  0.00    +0.000 A 
ATOM     11  C   UNL     1       2.029   3.339  21.729  0.00  0.00    +0.000 A 
ATOM     12  C   UNL     1       1.078   2.699  20.943  0.00  0.00    +0.000 A 
ATOM     13  C   UNL     1       0.758   3.212  19.687  0.00  0.00    +0.000 A 
ATOM     14  C   UNL     1       1.380   4.373  19.214  0.00  0.00    +0.000 A 
ENDBRANCH   1   9
BRANCH   1  16
ATOM     15  O   UNL     1       4.485   7.352  17.402  0.00  0.00    +0.000 OA
ATOM     16  S   UNL     1       3.626   6.105  17.831  0.00  0.00    +0.000 S 
BRANCH  16  17
ATOM     17  C   UNL     1       4.747   4.702  18.124  0.00  0.00    +0.000 C 
BRANCH  17  18
ATOM     18  C   UNL     1       5.736   4.620  16.999  0.00  0.00    +0.000 A 
ATOM     19  C   UNL     1       7.120   4.645  17.053  0.00  0.00    +0.000 A 
ATOM     20  N   UNL     1       7.774   4.576  15.839  0.00  0.00    +0.000 NA
ATOM     21  C   UNL     1       6.886   4.510  14.874  0.00  0.00    +0.000 A 
ATOM     22  S   UNL     1       5.239   4.496  15.361  0.00  0.00    +0.000 S 
ENDBRANCH  17  18
ENDBRANCH  16  17
ENDBRANCH   1  16
TORSDOF 5
ENDMDL
MODEL 4
REMARK VINA RESULT:      -7.6      2.276      4.490
REMARK  Name = 
REMARK  5 active torsions:
REMARK  status: ('A' for Active; 'I' for Inactive)
REMARK    1  A    between atoms: S_2  and  C_3
REMARK    2  A    between atoms: S_2  and  C_9
REMARK    3  A    between atoms: C_3  and  C_4
REMARK    4  A    between atoms: C_9  and  C_10
REMARK    5  A    between atoms: C_9  and  C_16
REMARK                            x       y       z     vdW  Elec       q    Type
REMARK                         _______ _______ _______ _____ _____    ______ ____
ROOT
ATOM      1  C   UNL     1       2.777   5.820  18.253  0.00  0.00    +0.000 C 
ENDROOT
BRANCH   1   2
ATOM      2  C   UNL     1       2.340   4.804  19.310  0.00  0.00    +0.000 A 
ATOM      3  C   UNL     1       1.338   3.864  18.979  0.00  0.00    +0.000 A 
ATOM      4  C   UNL     1       0.842   2.970  19.934  0.00  0.00    +0.000 A 
ATOM      5  C   UNL     1       1.337   3.006  21.230  0.00  0.00    +0.000 A 
ATOM      6  F   UNL     1       0.856   2.158  22.149  0.00  0.00    +0.000 F 
ATOM      7  C   UNL     1       2.315   3.923  21.588  0.00  0.00    +0.000 A 
ATOM      8  C   UNL     1       2.806   4.822  20.636  0.00  0.00    +0.000 A 
ENDBRANCH   1   2
BRANCH   1   9
ATOM      9  C   UNL     1       2.321   7.239  18.600  0.00  0.00    +0.000 A 
ATOM     10  C   UNL     1       2.296   8.243  17.614  0.00  0.00    +0.000 A 
ATOM     11  C   UNL     1       1.806   9.517  17.889  0.00  0.00    +0.000 A 
ATOM     12  C   UNL     1       1.340   9.818  19.163  0.00  0.00    +0.000 A 
ATOM     13  C   UNL     1       1.369   8.845  20.161  0.00  0.00    +0.000 A 
ATOM     14  C   UNL     1       1.856   7.562  19.887  0.00  0.00    +0.000 A 
ENDBRANCH   1   9
BRANCH   1  16
ATOM     15  O   UNL     1       5.456   5.649  19.079  0.00  0.00    +0.000 OA
ATOM     16  S   UNL     1       4.572   5.895  17.801  0.00  0.00    +0.000 S 
BRANCH  16  17
ATOM     17  C   UNL     1       4.688   4.430  16.726  0.00  0.00    +0.000 C 
BRANCH  17  18
ATOM     18  C   UNL     1       5.767   4.652  15.709  0.00  0.00    +0.000 A 
ATOM     19  C   UNL     1       6.967   5.331  15.845  0.00  0.00    +0.000 A 
ATOM     20  N   UNL     1       7.760   5.393  14.716  0.00  0.00    +0.000 NA
ATOM     21  C   UNL     1       7.154   4.773  13.730  0.00  0.00    +0.000 A 
ATOM     22  S   UNL     1       5.635   4.062  14.101  0.00  0.00    +0.000 S 
ENDBRANCH  17  18
ENDBRANCH  16  17
ENDBRANCH   1  16
TORSDOF 5
ENDMDL
MODEL 5
REMARK VINA RESULT:      -7.6      0.476      1.131
REMARK  Name = 
REMARK  5 active torsions:
REMARK  status: ('A' for Active; 'I' for Inactive)
REMARK    1  A    between atoms: S_2  and  C_3
REMARK    2  A    between atoms: S_2  and  C_9
REMARK    3  A    between atoms: C_3  and  C_4
REMARK    4  A    between atoms: C_9  and  C_10
REMARK    5  A    between atoms: C_9  and  C_16
REMARK                            x       y       z     vdW  Elec       q    Type
REMARK                         _______ _______ _______ _____ _____    ______ ____
ROOT
ATOM      1  C   UNL     1       2.946   6.309  19.462  0.00  0.00    +0.000 C 
ENDROOT
BRANCH   1   2
ATOM      2  C   UNL     1       2.078   7.542  19.724  0.00  0.00    +0.000 A 
ATOM      3  C   UNL     1       1.422   7.662  20.970  0.00  0.00    +0.000 A 
ATOM      4  C   UNL     1       0.550   8.725  21.228  0.00  0.00    +0.000 A 
ATOM      5  C   UNL     1       0.321   9.678  20.247  0.00  0.00    +0.000 A 
ATOM      6  F   UNL     1      -0.521  10.691  20.487  0.00  0.00    +0.000 F 
ATOM      7  C   UNL     1       0.944   9.584  19.010  0.00  0.00    +0.000 A 
ATOM      8  C   UNL     1       1.809   8.517  18.748  0.00  0.00    +0.000 A 
ENDBRANCH   1   2
BRANCH   1   9
ATOM      9  C   UNL     1       2.287   5.027  19.976  0.00  0.00    +0.000 A 
ATOM     10  C   UNL     1       1.449   4.269  19.136  0.00  0.00    +0.000 A 
ATOM     11  C   UNL     1       0.906   3.058  19.557  0.00  0.00    +0.000 A 
ATOM     12  C   UNL     1       1.181   2.583  20.834  0.00  0.00    +0.000 A 
ATOM     13  C   UNL     1       1.996   3.323  21.689  0.00  0.00    +0.000 A 
ATOM     14  C   UNL     1       2.548   4.539  21.268  0.00  0.00    +0.000 A 
ENDBRANCH   1   9
BRANCH   1  16
ATOM     15  O   UNL     1       4.010   7.346  17.078  0.00  0.00    +0.000 OA
ATOM     16  S   UNL     1       3.524   5.998  17.730  0.00  0.00    +0.000 S 
BRANCH  16  17
ATOM     17  C   UNL     1       4.980   4.959  18.065  0.00  0.00    +0.000 C 
BRANCH  17  18
ATOM     18  C   UNL     1       5.867   4.952  16.855  0.00  0.00    +0.000 A 
ATOM     19  C   UNL     1       6.986   5.725  16.591  0.00  0.00    +0.000 A 
ATOM     20  N   UNL     1       7.593   5.513  15.369  0.00  0.00    +0.000 NA
ATOM     21  C   UNL     1       6.929   4.591  14.711  0.00  0.00    +0.000 A 
ATOM     22  S   UNL     1       5.575   3.912  15.520  0.00  0.00    +0.000 S 
ENDBRANCH  17  18
ENDBRANCH  16  17
ENDBRANCH   1  16
TORSDOF 5
ENDMDL
MODEL 6
REMARK VINA RESULT:      -7.5      1.449      1.914
REMARK  Name = 
REMARK  5 active torsions:
REMARK  status: ('A' for Active; 'I' for Inactive)
REMARK    1  A    between atoms: S_2  and  C_3
REMARK    2  A    between atoms: S_2  and  C_9
REMARK    3  A    between atoms: C_3  and  C_4
REMARK    4  A    between atoms: C_9  and  C_10
REMARK    5  A    between atoms: C_9  and  C_16
REMARK                            x       y       z     vdW  Elec       q    Type
REMARK                         _______ _______ _______ _____ _____    ______ ____
ROOT
ATOM      1  C   UNL     1       3.106   6.242  18.918  0.00  0.00    +0.000 C 
ENDROOT
BRANCH   1   2
ATOM      2  C   UNL     1       2.304   7.542  19.027  0.00  0.00    +0.000 A 
ATOM      3  C   UNL     1       1.763   7.906  20.281  0.00  0.00    +0.000 A 
ATOM      4  C   UNL     1       0.952   9.038  20.417  0.00  0.00    +0.000 A 
ATOM      5  C   UNL     1       0.669   9.816  19.304  0.00  0.00    +0.000 A 
ATOM      6  F   UNL     1      -0.116  10.894  19.429  0.00  0.00    +0.000 F 
ATOM      7  C   UNL     1       1.178   9.480  18.057  0.00  0.00    +0.000 A 
ATOM      8  C   UNL     1       1.982   8.345  17.919  0.00  0.00    +0.000 A 
ENDBRANCH   1   2
BRANCH   1   9
ATOM      9  C   UNL     1       2.362   5.059  19.541  0.00  0.00    +0.000 A 
ATOM     10  C   UNL     1       1.464   4.295  18.772  0.00  0.00    +0.000 A 
ATOM     11  C   UNL     1       0.840   3.165  19.296  0.00  0.00    +0.000 A 
ATOM     12  C   UNL     1       1.094   2.781  20.607  0.00  0.00    +0.000 A 
ATOM     13  C   UNL     1       1.968   3.531  21.393  0.00  0.00    +0.000 A 
ATOM     14  C   UNL     1       2.600   4.664  20.869  0.00  0.00    +0.000 A 
ENDBRANCH   1   9
BRANCH   1  16
ATOM     15  O   UNL     1       4.680   6.811  16.662  0.00  0.00    +0.000 OA
ATOM     16  S   UNL     1       3.704   5.722  17.244  0.00  0.00    +0.000 S 
BRANCH  16  17
ATOM     17  C   UNL     1       4.680   4.255  17.700  0.00  0.00    +0.000 C 
BRANCH  17  18
ATOM     18  C   UNL     1       5.960   4.696  18.344  0.00  0.00    +0.000 A 
ATOM     19  C   UNL     1       6.171   5.165  19.631  0.00  0.00    +0.000 A 
ATOM     20  N   UNL     1       7.468   5.524  19.940  0.00  0.00    +0.000 NA
ATOM     21  C   UNL     1       8.229   5.337  18.886  0.00  0.00    +0.000 A 
ATOM     22  S   UNL     1       7.451   4.699  17.494  0.00  0.00    +0.000 S 
ENDBRANCH  17  18
ENDBRANCH  16  17
ENDBRANCH   1  16
TORSDOF 5
ENDMDL
MODEL 7
REMARK VINA RESULT:      -7.5      1.465      1.877
REMARK  Name = 
REMARK  5 active torsions:
REMARK  status: ('A' for Active; 'I' for Inactive)
REMARK    1  A    between atoms: S_2  and  C_3
REMARK    2  A    between atoms: S_2  and  C_9
REMARK    3  A    between atoms: C_3  and  C_4
REMARK    4  A    between atoms: C_9  and  C_10
REMARK    5  A    between atoms: C_9  and  C_16
REMARK                            x       y       z     vdW  Elec       q    Type
REMARK                         _______ _______ _______ _____ _____    ______ ____
ROOT
ATOM      1  C   UNL     1       3.537   5.815  19.585  0.00  0.00    +0.000 C 
ENDROOT
BRANCH   1   2
ATOM      2  C   UNL     1       2.699   7.056  19.266  0.00  0.00    +0.000 A 
ATOM      3  C   UNL     1       2.842   7.668  18.001  0.00  0.00    +0.000 A 
ATOM      4  C   UNL     1       2.164   8.852  17.690  0.00  0.00    +0.000 A 
ATOM      5  C   UNL     1       1.340   9.439  18.638  0.00  0.00    +0.000 A 
ATOM      6  F   UNL     1       0.698  10.578  18.348  0.00  0.00    +0.000 F 
ATOM      7  C   UNL     1       1.185   8.866  19.893  0.00  0.00    +0.000 A 
ATOM      8  C   UNL     1       1.868   7.688  20.207  0.00  0.00    +0.000 A 
ENDBRANCH   1   2
BRANCH   1   9
ATOM      9  C   UNL     1       2.757   4.521  19.340  0.00  0.00    +0.000 A 
ATOM     10  C   UNL     1       2.941   3.406  20.180  0.00  0.00    +0.000 A 
ATOM     11  C   UNL     1       2.182   2.249  20.024  0.00  0.00    +0.000 A 
ATOM     12  C   UNL     1       1.230   2.177  19.015  0.00  0.00    +0.000 A 
ATOM     13  C   UNL     1       1.041   3.262  18.161  0.00  0.00    +0.000 A 
ATOM     14  C   UNL     1       1.797   4.429  18.317  0.00  0.00    +0.000 A 
ENDBRANCH   1   9
BRANCH   1  16
ATOM     15  O   UNL     1       6.175   4.862  19.720  0.00  0.00    +0.000 OA
ATOM     16  S   UNL     1       5.192   5.645  18.773  0.00  0.00    +0.000 S 
BRANCH  16  17
ATOM     17  C   UNL     1       4.750   4.565  17.377  0.00  0.00    +0.000 C 
BRANCH  17  18
ATOM     18  C   UNL     1       5.745   4.758  16.271  0.00  0.00    +0.000 A 
ATOM     19  C   UNL     1       6.946   5.451  16.291  0.00  0.00    +0.000 A 
ATOM     20  N   UNL     1       7.647   5.479  15.103  0.00  0.00    +0.000 NA
ATOM     21  C   UNL     1       6.974   4.821  14.188  0.00  0.00    +0.000 A 
ATOM     22  S   UNL     1       5.496   4.112  14.701  0.00  0.00    +0.000 S 
ENDBRANCH  17  18
ENDBRANCH  16  17
ENDBRANCH   1  16
TORSDOF 5
ENDMDL
MODEL 8
REMARK VINA RESULT:      -7.5      1.445      1.912
REMARK  Name = 
REMARK  5 active torsions:
REMARK  status: ('A' for Active; 'I' for Inactive)
REMARK    1  A    between atoms: S_2  and  C_3
REMARK    2  A    between atoms: S_2  and  C_9
REMARK    3  A    between atoms: C_3  and  C_4
REMARK    4  A    between atoms: C_9  and  C_10
REMARK    5  A    between atoms: C_9  and  C_16
REMARK                            x       y       z     vdW  Elec       q    Type
REMARK                         _______ _______ _______ _____ _____    ______ ____
ROOT
ATOM      1  C   UNL     1       3.105   6.124  18.982  0.00  0.00    +0.000 C 
ENDROOT
BRANCH   1   2
ATOM      2  C   UNL     1       2.246   7.385  19.112  0.00  0.00    +0.000 A 
ATOM      3  C   UNL     1       2.072   8.210  17.979  0.00  0.00    +0.000 A 
ATOM      4  C   UNL     1       1.368   9.417  18.065  0.00  0.00    +0.000 A 
ATOM      5  C   UNL     1       0.836   9.814  19.282  0.00  0.00    +0.000 A 
ATOM      6  F   UNL     1       0.171  10.974  19.371  0.00  0.00    +0.000 F 
ATOM      7  C   UNL     1       0.998   9.029  20.416  0.00  0.00    +0.000 A 
ATOM      8  C   UNL     1       1.707   7.828  20.332  0.00  0.00    +0.000 A 
ENDBRANCH   1   2
BRANCH   1   9
ATOM      9  C   UNL     1       2.437   4.909  19.629  0.00  0.00    +0.000 A 
ATOM     10  C   UNL     1       2.760   4.533  20.947  0.00  0.00    +0.000 A 
ATOM     11  C   UNL     1       2.104   3.481  21.583  0.00  0.00    +0.000 A 
ATOM     12  C   UNL     1       1.116   2.775  20.908  0.00  0.00    +0.000 A 
ATOM     13  C   UNL     1       0.789   3.118  19.597  0.00  0.00    +0.000 A 
ATOM     14  C   UNL     1       1.443   4.177  18.957  0.00  0.00    +0.000 A 
ENDBRANCH   1   9
BRANCH   1  16
ATOM     15  O   UNL     1       4.608   6.745  16.693  0.00  0.00    +0.000 OA
ATOM     16  S   UNL     1       3.678   5.626  17.293  0.00  0.00    +0.000 S 
BRANCH  16  17
ATOM     17  C   UNL     1       4.705   4.186  17.720  0.00  0.00    +0.000 C 
BRANCH  17  18
ATOM     18  C   UNL     1       5.980   4.661  18.351  0.00  0.00    +0.000 A 
ATOM     19  C   UNL     1       6.189   5.151  19.630  0.00  0.00    +0.000 A 
ATOM     20  N   UNL     1       7.480   5.539  19.926  0.00  0.00    +0.000 NA
ATOM     21  C   UNL     1       8.239   5.353  18.871  0.00  0.00    +0.000 A 
ATOM     22  S   UNL     1       7.467   4.681  17.492  0.00  0.00    +0.000 S 
ENDBRANCH  17  18
ENDBRANCH  16  17
ENDBRANCH   1  16
TORSDOF 5
ENDMDL
MODEL 9
REMARK VINA RESULT:      -7.5      1.462      1.614
REMARK  Name = 
REMARK  5 active torsions:
REMARK  status: ('A' for Active; 'I' for Inactive)
REMARK    1  A    between atoms: S_2  and  C_3
REMARK    2  A    between atoms: S_2  and  C_9
REMARK    3  A    between atoms: C_3  and  C_4
REMARK    4  A    between atoms: C_9  and  C_10
REMARK    5  A    between atoms: C_9  and  C_16
REMARK                            x       y       z     vdW  Elec       q    Type
REMARK                         _______ _______ _______ _____ _____    ______ ____
ROOT
ATOM      1  C   UNL     1       3.036   6.177  18.961  0.00  0.00    +0.000 C 
ENDROOT
BRANCH   1   2
ATOM      2  C   UNL     1       2.203   7.457  19.075  0.00  0.00    +0.000 A 
ATOM      3  C   UNL     1       2.028   8.260  17.926  0.00  0.00    +0.000 A 
ATOM      4  C   UNL     1       1.349   9.482  17.996  0.00  0.00    +0.000 A 
ATOM      5  C   UNL     1       0.841   9.916  19.212  0.00  0.00    +0.000 A 
ATOM      6  F   UNL     1       0.199  11.089  19.284  0.00  0.00    +0.000 F 
ATOM      7  C   UNL     1       1.004   9.152  20.359  0.00  0.00    +0.000 A 
ATOM      8  C   UNL     1       1.689   7.936  20.292  0.00  0.00    +0.000 A 
ENDBRANCH   1   2
BRANCH   1   9
ATOM      9  C   UNL     1       2.328   4.976  19.592  0.00  0.00    +0.000 A 
ATOM     10  C   UNL     1       1.458   4.177  18.825  0.00  0.00    +0.000 A 
ATOM     11  C   UNL     1       0.868   3.033  19.358  0.00  0.00    +0.000 A 
ATOM     12  C   UNL     1       1.127   2.670  20.674  0.00  0.00    +0.000 A 
ATOM     13  C   UNL     1       1.972   3.454  21.457  0.00  0.00    +0.000 A 
ATOM     14  C   UNL     1       2.571   4.602  20.924  0.00  0.00    +0.000 A 
ENDBRANCH   1   9
BRANCH   1  16
ATOM     15  O   UNL     1       4.586   6.776  16.696  0.00  0.00    +0.000 OA
ATOM     16  S   UNL     1       3.633   5.669  17.283  0.00  0.00    +0.000 S 
BRANCH  16  17
ATOM     17  C   UNL     1       4.637   4.218  17.730  0.00  0.00    +0.000 C 
BRANCH  17  18
ATOM     18  C   UNL     1       5.921   4.682  18.352  0.00  0.00    +0.000 A 
ATOM     19  C   UNL     1       6.145   5.164  19.632  0.00  0.00    +0.000 A 
ATOM     20  N   UNL     1       7.442   5.542  19.917  0.00  0.00    +0.000 NA
ATOM     21  C   UNL     1       8.189   5.357  18.854  0.00  0.00    +0.000 A 
ATOM     22  S   UNL     1       7.399   4.698  17.479  0.00  0.00    +0.000 S 
ENDBRANCH  17  18
ENDBRANCH  16  17
ENDBRANCH   1  16
TORSDOF 5
ENDMDL
