MODEL 1
REMARK VINA RESULT:      -9.7      0.000      0.000
REMARK  Name = 
REMARK  5 active torsions:
REMARK  status: ('A' for Active; 'I' for Inactive)
REMARK    1  A    between atoms: C_1  and  N_2
REMARK    2  A    between atoms: C_4  and  C_5
REMARK    3  A    between atoms: C_7  and  O_8
REMARK    4  A    between atoms: O_8  and  C_9
REMARK    5  A    between atoms: N_19  and  C_20
REMARK                            x       y       z     vdW  Elec       q    Type
REMARK                         _______ _______ _______ _____ _____    ______ ____
ROOT
ATOM      1  C   UNL     1      -1.292  11.589  22.713  0.00  0.00    +0.000 A 
ATOM      2  C   UNL     1      -0.986  10.372  23.320  0.00  0.00    +0.000 A 
ATOM      3  C   UNL     1      -0.193   9.448  22.646  0.00  0.00    +0.000 A 
ATOM      4  C   UNL     1       0.223   9.736  21.348  0.00  0.00    +0.000 A 
ATOM      5  N   UNL     1       1.033   8.805  20.691  0.00  0.00    +0.000 N 
ATOM      6  C   UNL     1       1.517   8.949  19.414  0.00  0.00    +0.000 C 
ATOM      7  O   UNL     1       1.307   9.891  18.650  0.00  0.00    +0.000 OA
ATOM      8  N   UNL     1       2.334   7.905  18.999  0.00  0.00    +0.000 N 
ATOM      9  C   UNL     1       3.025   7.987  17.737  0.00  0.00    +0.000 C 
ATOM     10  C   UNL     1       3.892   6.747  17.736  0.00  0.00    +0.000 C 
ATOM     11  N   UNL     1       3.131   5.822  18.544  0.00  0.00    +0.000 N 
ATOM     12  C   UNL     1       2.262   6.550  19.394  0.00  0.00    +0.000 C 
ATOM     13  O   UNL     1       1.611   6.140  20.347  0.00  0.00    +0.000 OA
ATOM     14  N   UNL     1      -0.129  10.874  20.729  0.00  0.00    +0.000 NA
ATOM     15  C   UNL     1      -0.881  11.773  21.410  0.00  0.00    +0.000 A 
ATOM     16  H   UNL     1       1.255   7.939  21.167  0.00  0.00    +0.000 HD
ENDROOT
BRANCH  11  17
ATOM     17  C   UNL     1       3.330   4.427  18.541  0.00  0.00    +0.000 A 
ATOM     18  C   UNL     1       2.698   3.612  17.591  0.00  0.00    +0.000 A 
ATOM     19  C   UNL     1       2.912   2.232  17.574  0.00  0.00    +0.000 A 
ATOM     20  C   UNL     1       3.755   1.657  18.515  0.00  0.00    +0.000 A 
ATOM     21  F   UNL     1       3.954   0.333  18.505  0.00  0.00    +0.000 F 
ATOM     22  C   UNL     1       4.395   2.441  19.465  0.00  0.00    +0.000 A 
ATOM     23  C   UNL     1       4.193   3.824  19.472  0.00  0.00    +0.000 A 
ENDBRANCH  11  17
BRANCH   1  24
ATOM     24  O   UNL     1      -1.996  12.610  23.301  0.00  0.00    +0.000 OA
BRANCH  24  27
ATOM     25  C   UNL     1      -5.425  12.736  21.963  0.00  0.00    +0.000 A 
ATOM     26  C   UNL     1      -4.045  12.607  21.964  0.00  0.00    +0.000 A 
ATOM     27  C   UNL     1      -3.367  12.639  23.180  0.00  0.00    +0.000 A 
ATOM     28  C   UNL     1      -4.092  12.665  24.363  0.00  0.00    +0.000 A 
ATOM     29  C   UNL     1      -5.470  12.747  24.276  0.00  0.00    +0.000 A 
ATOM     30  N   UNL     1      -6.148  12.808  23.107  0.00  0.00    +0.000 NA
BRANCH  25  34
ATOM     31  C   UNL     1      -6.822  14.023  17.382  0.00  0.00    +0.000 C 
ATOM     32  N   UNL     1      -6.738  13.381  18.671  0.00  0.00    +0.000 N 
ATOM     33  C   UNL     1      -5.764  13.547  19.608  0.00  0.00    +0.000 A 
ATOM     34  C   UNL     1      -6.155  12.813  20.710  0.00  0.00    +0.000 A 
ATOM     35  C   UNL     1      -7.367  12.207  20.295  0.00  0.00    +0.000 A 
ATOM     36  N   UNL     1      -7.721  12.546  19.056  0.00  0.00    +0.000 NA
ENDBRANCH  25  34
ENDBRANCH  24  27
ENDBRANCH   1  24
TORSDOF 4
ENDMDL
MODEL 2
REMARK VINA RESULT:      -9.3      4.385     12.011
REMARK  Name = 
REMARK  5 active torsions:
REMARK  status: ('A' for Active; 'I' for Inactive)
REMARK    1  A    between atoms: C_1  and  N_2
REMARK    2  A    between atoms: C_4  and  C_5
REMARK    3  A    between atoms: C_7  and  O_8
REMARK    4  A    between atoms: O_8  and  C_9
REMARK    5  A    between atoms: N_19  and  C_20
REMARK                            x       y       z     vdW  Elec       q    Type
REMARK                         _______ _______ _______ _____ _____    ______ ____
ROOT
ATOM      1  C   UNL     1       3.303   5.345  19.306  0.00  0.00    +0.000 A 
ATOM      2  C   UNL     1       2.563   5.397  20.485  0.00  0.00    +0.000 A 
ATOM      3  C   UNL     1       1.778   6.514  20.755  0.00  0.00    +0.000 A 
ATOM      4  C   UNL     1       1.804   7.587  19.868  0.00  0.00    +0.000 A 
ATOM      5  N   UNL     1       0.998   8.695  20.145  0.00  0.00    +0.000 N 
ATOM      6  C   UNL     1       0.920   9.824  19.366  0.00  0.00    +0.000 C 
ATOM      7  O   UNL     1       1.547  10.047  18.331  0.00  0.00    +0.000 OA
ATOM      8  N   UNL     1       0.015  10.769  19.831  0.00  0.00    +0.000 N 
ATOM      9  C   UNL     1      -0.275  11.940  19.043  0.00  0.00    +0.000 C 
ATOM     10  C   UNL     1      -1.383  12.615  19.821  0.00  0.00    +0.000 C 
ATOM     11  N   UNL     1      -1.112  12.214  21.182  0.00  0.00    +0.000 N 
ATOM     12  C   UNL     1      -0.351  11.019  21.174  0.00  0.00    +0.000 C 
ATOM     13  O   UNL     1      -0.096  10.273  22.111  0.00  0.00    +0.000 OA
ATOM     14  N   UNL     1       2.572   7.576  18.767  0.00  0.00    +0.000 NA
ATOM     15  C   UNL     1       3.311   6.469  18.506  0.00  0.00    +0.000 A 
ATOM     16  H   UNL     1       0.454   8.694  21.000  0.00  0.00    +0.000 HD
ENDROOT
BRANCH  11  17
ATOM     17  C   UNL     1      -1.634  12.870  22.315  0.00  0.00    +0.000 A 
ATOM     18  C   UNL     1      -0.924  13.907  22.937  0.00  0.00    +0.000 A 
ATOM     19  C   UNL     1      -1.452  14.572  24.046  0.00  0.00    +0.000 A 
ATOM     20  C   UNL     1      -2.691  14.197  24.545  0.00  0.00    +0.000 A 
ATOM     21  F   UNL     1      -3.193  14.828  25.613  0.00  0.00    +0.000 F 
ATOM     22  C   UNL     1      -3.416  13.176  23.947  0.00  0.00    +0.000 A 
ATOM     23  C   UNL     1      -2.896  12.521  22.827  0.00  0.00    +0.000 A 
ENDBRANCH  11  17
BRANCH   1  24
ATOM     24  O   UNL     1       4.052   4.272  18.889  0.00  0.00    +0.000 OA
BRANCH  24  27
ATOM     25  C   UNL     1       6.341   4.503  16.013  0.00  0.00    +0.000 A 
ATOM     26  C   UNL     1       5.148   4.350  16.703  0.00  0.00    +0.000 A 
ATOM     27  C   UNL     1       5.151   4.488  18.089  0.00  0.00    +0.000 A 
ATOM     28  C   UNL     1       6.310   4.903  18.730  0.00  0.00    +0.000 A 
ATOM     29  C   UNL     1       7.446   5.079  17.961  0.00  0.00    +0.000 A 
ATOM     30  N   UNL     1       7.493   4.864  16.627  0.00  0.00    +0.000 NA
BRANCH  25  34
ATOM     31  C   UNL     1       5.337   2.790  11.469  0.00  0.00    +0.000 C 
ATOM     32  N   UNL     1       5.916   3.510  12.575  0.00  0.00    +0.000 N 
ATOM     33  C   UNL     1       5.477   3.523  13.865  0.00  0.00    +0.000 A 
ATOM     34  C   UNL     1       6.396   4.262  14.582  0.00  0.00    +0.000 A 
ATOM     35  C   UNL     1       7.326   4.684  13.598  0.00  0.00    +0.000 A 
ATOM     36  N   UNL     1       7.034   4.233  12.379  0.00  0.00    +0.000 NA
ENDBRANCH  25  34
ENDBRANCH  24  27
ENDBRANCH   1  24
TORSDOF 4
ENDMDL
MODEL 3
REMARK VINA RESULT:      -8.9      4.489     12.025
REMARK  Name = 
REMARK  5 active torsions:
REMARK  status: ('A' for Active; 'I' for Inactive)
REMARK    1  A    between atoms: C_1  and  N_2
REMARK    2  A    between atoms: C_4  and  C_5
REMARK    3  A    between atoms: C_7  and  O_8
REMARK    4  A    between atoms: O_8  and  C_9
REMARK    5  A    between atoms: N_19  and  C_20
REMARK                            x       y       z     vdW  Elec       q    Type
REMARK                         _______ _______ _______ _____ _____    ______ ____
ROOT
ATOM      1  C   UNL     1       2.741   5.890  19.287  0.00  0.00    +0.000 A 
ATOM      2  C   UNL     1       2.090   6.020  20.513  0.00  0.00    +0.000 A 
ATOM      3  C   UNL     1       1.439   7.211  20.821  0.00  0.00    +0.000 A 
ATOM      4  C   UNL     1       1.511   8.272  19.922  0.00  0.00    +0.000 A 
ATOM      5  N   UNL     1       0.838   9.455  20.240  0.00  0.00    +0.000 N 
ATOM      6  C   UNL     1       0.819  10.582  19.455  0.00  0.00    +0.000 C 
ATOM      7  O   UNL     1       1.394  10.737  18.378  0.00  0.00    +0.000 OA
ATOM      8  N   UNL     1       0.046  11.615  19.968  0.00  0.00    +0.000 N 
ATOM      9  C   UNL     1      -0.181  12.805  19.188  0.00  0.00    +0.000 C 
ATOM     10  C   UNL     1      -1.162  13.589  20.030  0.00  0.00    +0.000 C 
ATOM     11  N   UNL     1      -0.841  13.170  21.375  0.00  0.00    +0.000 N 
ATOM     12  C   UNL     1      -0.203  11.906  21.330  0.00  0.00    +0.000 C 
ATOM     13  O   UNL     1       0.040  11.143  22.256  0.00  0.00    +0.000 OA
ATOM     14  N   UNL     1       2.198   8.179  18.773  0.00  0.00    +0.000 NA
ATOM     15  C   UNL     1       2.805   7.003  18.476  0.00  0.00    +0.000 A 
ATOM     16  H   UNL     1       0.356   9.511  21.129  0.00  0.00    +0.000 HD
ENDROOT
BRANCH  11  17
ATOM     17  C   UNL     1      -1.219  13.880  22.532  0.00  0.00    +0.000 A 
ATOM     18  C   UNL     1      -2.347  13.501  23.273  0.00  0.00    +0.000 A 
ATOM     19  C   UNL     1      -2.709  14.191  24.432  0.00  0.00    +0.000 A 
ATOM     20  C   UNL     1      -1.948  15.272  24.852  0.00  0.00    +0.000 A 
ATOM     21  F   UNL     1      -2.299  15.940  25.958  0.00  0.00    +0.000 F 
ATOM     22  C   UNL     1      -0.825  15.668  24.139  0.00  0.00    +0.000 A 
ATOM     23  C   UNL     1      -0.453  14.967  22.988  0.00  0.00    +0.000 A 
ENDBRANCH  11  17
BRANCH   1  24
ATOM     24  O   UNL     1       3.351   4.746  18.834  0.00  0.00    +0.000 OA
BRANCH  24  27
ATOM     25  C   UNL     1       6.107   4.729  16.391  0.00  0.00    +0.000 A 
ATOM     26  C   UNL     1       4.804   4.716  16.867  0.00  0.00    +0.000 A 
ATOM     27  C   UNL     1       4.588   4.834  18.238  0.00  0.00    +0.000 A 
ATOM     28  C   UNL     1       5.663   5.091  19.077  0.00  0.00    +0.000 A 
ATOM     29  C   UNL     1       6.926   5.133  18.515  0.00  0.00    +0.000 A 
ATOM     30  N   UNL     1       7.173   4.933  17.201  0.00  0.00    +0.000 NA
BRANCH  25  34
ATOM     31  C   UNL     1       5.983   2.862  11.798  0.00  0.00    +0.000 C 
ATOM     32  N   UNL     1       6.284   3.676  12.949  0.00  0.00    +0.000 N 
ATOM     33  C   UNL     1       5.700   3.607  14.178  0.00  0.00    +0.000 A 
ATOM     34  C   UNL     1       6.376   4.503  14.982  0.00  0.00    +0.000 A 
ATOM     35  C   UNL     1       7.322   5.091  14.105  0.00  0.00    +0.000 A 
ATOM     36  N   UNL     1       7.265   4.594  12.870  0.00  0.00    +0.000 NA
ENDBRANCH  25  34
ENDBRANCH  24  27
ENDBRANCH   1  24
TORSDOF 4
ENDMDL
MODEL 4
REMARK VINA RESULT:      -8.8      4.548     12.220
REMARK  Name = 
REMARK  5 active torsions:
REMARK  status: ('A' for Active; 'I' for Inactive)
REMARK    1  A    between atoms: C_1  and  N_2
REMARK    2  A    between atoms: C_4  and  C_5
REMARK    3  A    between atoms: C_7  and  O_8
REMARK    4  A    between atoms: O_8  and  C_9
REMARK    5  A    between atoms: N_19  and  C_20
REMARK                            x       y       z     vdW  Elec       q    Type
REMARK                         _______ _______ _______ _____ _____    ______ ____
ROOT
ATOM      1  C   UNL     1       3.151   6.248  18.709  0.00  0.00    +0.000 A 
ATOM      2  C   UNL     1       2.802   7.332  17.905  0.00  0.00    +0.000 A 
ATOM      3  C   UNL     1       2.031   8.362  18.438  0.00  0.00    +0.000 A 
ATOM      4  C   UNL     1       1.568   8.251  19.746  0.00  0.00    +0.000 A 
ATOM      5  N   UNL     1       0.809   9.301  20.271  0.00  0.00    +0.000 N 
ATOM      6  C   UNL     1       0.285   9.332  21.541  0.00  0.00    +0.000 C 
ATOM      7  O   UNL     1       0.381   8.453  22.397  0.00  0.00    +0.000 OA
ATOM      8  N   UNL     1      -0.398  10.503  21.841  0.00  0.00    +0.000 N 
ATOM      9  C   UNL     1      -0.880  10.737  23.178  0.00  0.00    +0.000 C 
ATOM     10  C   UNL     1      -1.421  12.147  23.111  0.00  0.00    +0.000 C 
ATOM     11  N   UNL     1      -1.831  12.269  21.730  0.00  0.00    +0.000 N 
ATOM     12  C   UNL     1      -1.112  11.333  20.946  0.00  0.00    +0.000 C 
ATOM     13  O   UNL     1      -1.035  11.264  19.726  0.00  0.00    +0.000 OA
ATOM     14  N   UNL     1       1.838   7.175  20.503  0.00  0.00    +0.000 NA
ATOM     15  C   UNL     1       2.612   6.194  19.977  0.00  0.00    +0.000 A 
ATOM     16  H   UNL     1       0.590  10.085  19.669  0.00  0.00    +0.000 HD
ENDROOT
BRANCH  11  17
ATOM     17  C   UNL     1      -2.723  13.252  21.258  0.00  0.00    +0.000 A 
ATOM     18  C   UNL     1      -3.975  12.897  20.737  0.00  0.00    +0.000 A 
ATOM     19  C   UNL     1      -4.869  13.873  20.289  0.00  0.00    +0.000 A 
ATOM     20  C   UNL     1      -4.510  15.212  20.353  0.00  0.00    +0.000 A 
ATOM     21  F   UNL     1      -5.362  16.147  19.916  0.00  0.00    +0.000 F 
ATOM     22  C   UNL     1      -3.278  15.592  20.866  0.00  0.00    +0.000 A 
ATOM     23  C   UNL     1      -2.390  14.616  21.330  0.00  0.00    +0.000 A 
ENDBRANCH  11  17
BRANCH   1  24
ATOM     24  O   UNL     1       3.967   5.213  18.327  0.00  0.00    +0.000 OA
BRANCH  24  27
ATOM     25  C   UNL     1       6.276   5.219  15.457  0.00  0.00    +0.000 A 
ATOM     26  C   UNL     1       5.119   4.975  16.182  0.00  0.00    +0.000 A 
ATOM     27  C   UNL     1       5.024   5.465  17.482  0.00  0.00    +0.000 A 
ATOM     28  C   UNL     1       6.025   6.292  17.973  0.00  0.00    +0.000 A 
ATOM     29  C   UNL     1       7.125   6.524  17.168  0.00  0.00    +0.000 A 
ATOM     30  N   UNL     1       7.284   5.987  15.937  0.00  0.00    +0.000 NA
BRANCH  25  34
ATOM     31  C   UNL     1       5.720   2.360  11.444  0.00  0.00    +0.000 C 
ATOM     32  N   UNL     1       6.171   3.373  12.364  0.00  0.00    +0.000 N 
ATOM     33  C   UNL     1       5.636   3.674  13.580  0.00  0.00    +0.000 A 
ATOM     34  C   UNL     1       6.454   4.634  14.140  0.00  0.00    +0.000 A 
ATOM     35  C   UNL     1       7.430   4.867  13.138  0.00  0.00    +0.000 A 
ATOM     36  N   UNL     1       7.258   4.106  12.058  0.00  0.00    +0.000 NA
ENDBRANCH  25  34
ENDBRANCH  24  27
ENDBRANCH   1  24
TORSDOF 4
ENDMDL
MODEL 5
REMARK VINA RESULT:      -8.5      1.019      1.426
REMARK  Name = 
REMARK  5 active torsions:
REMARK  status: ('A' for Active; 'I' for Inactive)
REMARK    1  A    between atoms: C_1  and  N_2
REMARK    2  A    between atoms: C_4  and  C_5
REMARK    3  A    between atoms: C_7  and  O_8
REMARK    4  A    between atoms: O_8  and  C_9
REMARK    5  A    between atoms: N_19  and  C_20
REMARK                            x       y       z     vdW  Elec       q    Type
REMARK                         _______ _______ _______ _____ _____    ______ ____
ROOT
ATOM      1  C   UNL     1      -1.179  11.696  22.900  0.00  0.00    +0.000 A 
ATOM      2  C   UNL     1      -0.843  10.481  23.494  0.00  0.00    +0.000 A 
ATOM      3  C   UNL     1      -0.083   9.557  22.784  0.00  0.00    +0.000 A 
ATOM      4  C   UNL     1       0.268   9.841  21.466  0.00  0.00    +0.000 A 
ATOM      5  N   UNL     1       1.045   8.909  20.773  0.00  0.00    +0.000 N 
ATOM      6  C   UNL     1       1.466   9.050  19.473  0.00  0.00    +0.000 C 
ATOM      7  O   UNL     1       1.217   9.991  18.718  0.00  0.00    +0.000 OA
ATOM      8  N   UNL     1       2.262   8.007  19.020  0.00  0.00    +0.000 N 
ATOM      9  C   UNL     1       2.891   8.086  17.726  0.00  0.00    +0.000 C 
ATOM     10  C   UNL     1       3.757   6.847  17.685  0.00  0.00    +0.000 C 
ATOM     11  N   UNL     1       3.038   5.922  18.532  0.00  0.00    +0.000 N 
ATOM     12  C   UNL     1       2.211   6.652  19.422  0.00  0.00    +0.000 C 
ATOM     13  O   UNL     1       1.609   6.244  20.407  0.00  0.00    +0.000 OA
ATOM     14  N   UNL     1      -0.115  10.977  20.862  0.00  0.00    +0.000 NA
ATOM     15  C   UNL     1      -0.833  11.878  21.577  0.00  0.00    +0.000 A 
ATOM     16  H   UNL     1       1.292   8.044  21.239  0.00  0.00    +0.000 HD
ENDROOT
BRANCH  11  17
ATOM     17  C   UNL     1       3.238   4.528  18.523  0.00  0.00    +0.000 A 
ATOM     18  C   UNL     1       4.111   3.919  19.435  0.00  0.00    +0.000 A 
ATOM     19  C   UNL     1       4.293   2.535  19.440  0.00  0.00    +0.000 A 
ATOM     20  C   UNL     1       3.607   1.750  18.525  0.00  0.00    +0.000 A 
ATOM     21  F   UNL     1       3.787   0.424  18.522  0.00  0.00    +0.000 F 
ATOM     22  C   UNL     1       2.734   2.326  17.612  0.00  0.00    +0.000 A 
ATOM     23  C   UNL     1       2.540   3.710  17.618  0.00  0.00    +0.000 A 
ENDBRANCH  11  17
BRANCH   1  24
ATOM     24  O   UNL     1      -1.855  12.718  23.519  0.00  0.00    +0.000 OA
BRANCH  24  27
ATOM     25  C   UNL     1      -4.590  13.782  21.293  0.00  0.00    +0.000 A 
ATOM     26  C   UNL     1      -3.807  12.932  22.060  0.00  0.00    +0.000 A 
ATOM     27  C   UNL     1      -2.751  13.469  22.793  0.00  0.00    +0.000 A 
ATOM     28  C   UNL     1      -2.588  14.847  22.844  0.00  0.00    +0.000 A 
ATOM     29  C   UNL     1      -3.441  15.627  22.084  0.00  0.00    +0.000 A 
ATOM     30  N   UNL     1      -4.417  15.125  21.293  0.00  0.00    +0.000 NA
BRANCH  25  34
ATOM     31  C   UNL     1      -7.168  12.416  17.283  0.00  0.00    +0.000 C 
ATOM     32  N   UNL     1      -6.742  12.626  18.645  0.00  0.00    +0.000 N 
ATOM     33  C   UNL     1      -5.550  13.137  19.061  0.00  0.00    +0.000 A 
ATOM     34  C   UNL     1      -5.630  13.245  20.434  0.00  0.00    +0.000 A 
ATOM     35  C   UNL     1      -6.912  12.719  20.736  0.00  0.00    +0.000 A 
ATOM     36  N   UNL     1      -7.586  12.338  19.652  0.00  0.00    +0.000 NA
ENDBRANCH  25  34
ENDBRANCH  24  27
ENDBRANCH   1  24
TORSDOF 4
ENDMDL
MODEL 6
REMARK VINA RESULT:      -8.4      2.272      2.946
REMARK  Name = 
REMARK  5 active torsions:
REMARK  status: ('A' for Active; 'I' for Inactive)
REMARK    1  A    between atoms: C_1  and  N_2
REMARK    2  A    between atoms: C_4  and  C_5
REMARK    3  A    between atoms: C_7  and  O_8
REMARK    4  A    between atoms: O_8  and  C_9
REMARK    5  A    between atoms: N_19  and  C_20
REMARK                            x       y       z     vdW  Elec       q    Type
REMARK                         _______ _______ _______ _____ _____    ______ ____
ROOT
ATOM      1  C   UNL     1      -0.170  11.318  21.882  0.00  0.00    +0.000 A 
ATOM      2  C   UNL     1       0.441  11.610  20.664  0.00  0.00    +0.000 A 
ATOM      3  C   UNL     1       1.040  10.587  19.934  0.00  0.00    +0.000 A 
ATOM      4  C   UNL     1       1.074   9.303  20.473  0.00  0.00    +0.000 A 
ATOM      5  N   UNL     1       1.665   8.285  19.719  0.00  0.00    +0.000 N 
ATOM      6  C   UNL     1       1.773   6.975  20.119  0.00  0.00    +0.000 C 
ATOM      7  O   UNL     1       1.392   6.499  21.189  0.00  0.00    +0.000 OA
ATOM      8  N   UNL     1       2.364   6.144  19.176  0.00  0.00    +0.000 N 
ATOM      9  C   UNL     1       2.417   4.722  19.399  0.00  0.00    +0.000 C 
ATOM     10  C   UNL     1       2.994   4.190  18.106  0.00  0.00    +0.000 C 
ATOM     11  N   UNL     1       3.812   5.287  17.642  0.00  0.00    +0.000 N 
ATOM     12  C   UNL     1       3.343   6.494  18.218  0.00  0.00    +0.000 C 
ATOM     13  O   UNL     1       3.643   7.644  17.923  0.00  0.00    +0.000 OA
ATOM     14  N   UNL     1       0.553   9.029  21.679  0.00  0.00    +0.000 NA
ATOM     15  C   UNL     1      -0.050  10.032  22.365  0.00  0.00    +0.000 A 
ATOM     16  H   UNL     1       2.081   8.525  18.827  0.00  0.00    +0.000 HD
ENDROOT
BRANCH  11  17
ATOM     17  C   UNL     1       4.834   5.156  16.682  0.00  0.00    +0.000 A 
ATOM     18  C   UNL     1       4.612   4.460  15.485  0.00  0.00    +0.000 A 
ATOM     19  C   UNL     1       5.619   4.348  14.523  0.00  0.00    +0.000 A 
ATOM     20  C   UNL     1       6.859   4.925  14.758  0.00  0.00    +0.000 A 
ATOM     21  F   UNL     1       7.827   4.811  13.841  0.00  0.00    +0.000 F 
ATOM     22  C   UNL     1       7.105   5.622  15.933  0.00  0.00    +0.000 A 
ATOM     23  C   UNL     1       6.092   5.748  16.888  0.00  0.00    +0.000 A 
ENDBRANCH  11  17
BRANCH   1  24
ATOM     24  O   UNL     1      -0.859  12.218  22.656  0.00  0.00    +0.000 OA
BRANCH  24  27
ATOM     25  C   UNL     1      -4.251  12.486  21.246  0.00  0.00    +0.000 A 
ATOM     26  C   UNL     1      -2.882  12.269  21.281  0.00  0.00    +0.000 A 
ATOM     27  C   UNL     1      -2.223  12.328  22.507  0.00  0.00    +0.000 A 
ATOM     28  C   UNL     1      -2.963  12.472  23.672  0.00  0.00    +0.000 A 
ATOM     29  C   UNL     1      -4.332  12.638  23.552  0.00  0.00    +0.000 A 
ATOM     30  N   UNL     1      -4.985  12.673  22.369  0.00  0.00    +0.000 NA
BRANCH  25  34
ATOM     31  C   UNL     1      -7.705  13.328  17.788  0.00  0.00    +0.000 C 
ATOM     32  N   UNL     1      -6.487  12.943  18.458  0.00  0.00    +0.000 N 
ATOM     33  C   UNL     1      -6.163  13.166  19.762  0.00  0.00    +0.000 A 
ATOM     34  C   UNL     1      -4.954  12.536  19.976  0.00  0.00    +0.000 A 
ATOM     35  C   UNL     1      -4.624  12.004  18.703  0.00  0.00    +0.000 A 
ATOM     36  N   UNL     1      -5.552  12.254  17.780  0.00  0.00    +0.000 NA
ENDBRANCH  25  34
ENDBRANCH  24  27
ENDBRANCH   1  24
TORSDOF 4
ENDMDL
MODEL 7
REMARK VINA RESULT:      -8.4      2.718      3.582
REMARK  Name = 
REMARK  5 active torsions:
REMARK  status: ('A' for Active; 'I' for Inactive)
REMARK    1  A    between atoms: C_1  and  N_2
REMARK    2  A    between atoms: C_4  and  C_5
REMARK    3  A    between atoms: C_7  and  O_8
REMARK    4  A    between atoms: O_8  and  C_9
REMARK    5  A    between atoms: N_19  and  C_20
REMARK                            x       y       z     vdW  Elec       q    Type
REMARK                         _______ _______ _______ _____ _____    ______ ____
ROOT
ATOM      1  C   UNL     1       0.328  10.290  22.084  0.00  0.00    +0.000 A 
ATOM      2  C   UNL     1       0.816  10.680  20.838  0.00  0.00    +0.000 A 
ATOM      3  C   UNL     1       1.383   9.729  19.995  0.00  0.00    +0.000 A 
ATOM      4  C   UNL     1       1.512   8.418  20.446  0.00  0.00    +0.000 A 
ATOM      5  N   UNL     1       2.069   7.472  19.580  0.00  0.00    +0.000 N 
ATOM      6  C   UNL     1       2.260   6.146  19.884  0.00  0.00    +0.000 C 
ATOM      7  O   UNL     1       1.994   5.591  20.951  0.00  0.00    +0.000 OA
ATOM      8  N   UNL     1       2.793   5.398  18.843  0.00  0.00    +0.000 N 
ATOM      9  C   UNL     1       2.917   3.968  18.969  0.00  0.00    +0.000 C 
ATOM     10  C   UNL     1       3.394   3.540  17.599  0.00  0.00    +0.000 C 
ATOM     11  N   UNL     1       4.127   4.696  17.137  0.00  0.00    +0.000 N 
ATOM     12  C   UNL     1       3.669   5.846  17.826  0.00  0.00    +0.000 C 
ATOM     13  O   UNL     1       3.899   7.023  17.580  0.00  0.00    +0.000 OA
ATOM     14  N   UNL     1       1.112   8.050  21.673  0.00  0.00    +0.000 NA
ATOM     15  C   UNL     1       0.538   8.983  22.472  0.00  0.00    +0.000 A 
ATOM     16  H   UNL     1       2.395   7.782  18.673  0.00  0.00    +0.000 HD
ENDROOT
BRANCH  11  17
ATOM     17  C   UNL     1       5.063   4.665  16.084  0.00  0.00    +0.000 A 
ATOM     18  C   UNL     1       4.702   4.197  14.813  0.00  0.00    +0.000 A 
ATOM     19  C   UNL     1       5.623   4.187  13.763  0.00  0.00    +0.000 A 
ATOM     20  C   UNL     1       6.917   4.637  13.983  0.00  0.00    +0.000 A 
ATOM     21  F   UNL     1       7.804   4.619  12.980  0.00  0.00    +0.000 F 
ATOM     22  C   UNL     1       7.301   5.108  15.231  0.00  0.00    +0.000 A 
ATOM     23  C   UNL     1       6.374   5.134  16.277  0.00  0.00    +0.000 A 
ENDBRANCH  11  17
BRANCH   1  24
ATOM     24  O   UNL     1      -0.321  11.113  22.971  0.00  0.00    +0.000 OA
BRANCH  24  27
ATOM     25  C   UNL     1      -2.950  12.847  21.062  0.00  0.00    +0.000 A 
ATOM     26  C   UNL     1      -2.180  11.795  21.535  0.00  0.00    +0.000 A 
ATOM     27  C   UNL     1      -1.203  12.055  22.493  0.00  0.00    +0.000 A 
ATOM     28  C   UNL     1      -1.111  13.325  23.045  0.00  0.00    +0.000 A 
ATOM     29  C   UNL     1      -1.948  14.308  22.549  0.00  0.00    +0.000 A 
ATOM     30  N   UNL     1      -2.844  14.104  21.557  0.00  0.00    +0.000 NA
BRANCH  25  34
ATOM     31  C   UNL     1      -4.987  11.456  16.760  0.00  0.00    +0.000 C 
ATOM     32  N   UNL     1      -4.791  11.984  18.087  0.00  0.00    +0.000 N 
ATOM     33  C   UNL     1      -3.660  11.903  18.843  0.00  0.00    +0.000 A 
ATOM     34  C   UNL     1      -3.904  12.633  19.988  0.00  0.00    +0.000 A 
ATOM     35  C   UNL     1      -5.244  13.070  19.827  0.00  0.00    +0.000 A 
ATOM     36  N   UNL     1      -5.785  12.673  18.676  0.00  0.00    +0.000 NA
ENDBRANCH  25  34
ENDBRANCH  24  27
ENDBRANCH   1  24
TORSDOF 4
ENDMDL
MODEL 8
REMARK VINA RESULT:      -8.3      2.657      3.610
REMARK  Name = 
REMARK  5 active torsions:
REMARK  status: ('A' for Active; 'I' for Inactive)
REMARK    1  A    between atoms: C_1  and  N_2
REMARK    2  A    between atoms: C_4  and  C_5
REMARK    3  A    between atoms: C_7  and  O_8
REMARK    4  A    between atoms: O_8  and  C_9
REMARK    5  A    between atoms: N_19  and  C_20
REMARK                            x       y       z     vdW  Elec       q    Type
REMARK                         _______ _______ _______ _____ _____    ______ ____
ROOT
ATOM      1  C   UNL     1       0.155  10.540  22.001  0.00  0.00    +0.000 A 
ATOM      2  C   UNL     1       0.633  10.901  20.742  0.00  0.00    +0.000 A 
ATOM      3  C   UNL     1       1.235   9.940  19.935  0.00  0.00    +0.000 A 
ATOM      4  C   UNL     1       1.405   8.651  20.433  0.00  0.00    +0.000 A 
ATOM      5  N   UNL     1       1.997   7.693  19.603  0.00  0.00    +0.000 N 
ATOM      6  C   UNL     1       2.230   6.386  19.955  0.00  0.00    +0.000 C 
ATOM      7  O   UNL     1       1.980   5.862  21.040  0.00  0.00    +0.000 OA
ATOM      8  N   UNL     1       2.792   5.620  18.942  0.00  0.00    +0.000 N 
ATOM      9  C   UNL     1       2.963   4.201  19.120  0.00  0.00    +0.000 C 
ATOM     10  C   UNL     1       3.458   3.740  17.767  0.00  0.00    +0.000 C 
ATOM     11  N   UNL     1       4.154   4.903  17.265  0.00  0.00    +0.000 N 
ATOM     12  C   UNL     1       3.655   6.060  17.912  0.00  0.00    +0.000 C 
ATOM     13  O   UNL     1       3.847   7.235  17.625  0.00  0.00    +0.000 OA
ATOM     14  N   UNL     1       1.014   8.314  21.672  0.00  0.00    +0.000 NA
ATOM     15  C   UNL     1       0.406   9.255  22.436  0.00  0.00    +0.000 A 
ATOM     16  H   UNL     1       2.315   7.981  18.686  0.00  0.00    +0.000 HD
ENDROOT
BRANCH  11  17
ATOM     17  C   UNL     1       5.094   4.865  16.216  0.00  0.00    +0.000 A 
ATOM     18  C   UNL     1       6.393   5.362  16.396  0.00  0.00    +0.000 A 
ATOM     19  C   UNL     1       7.332   5.305  15.363  0.00  0.00    +0.000 A 
ATOM     20  C   UNL     1       6.973   4.758  14.140  0.00  0.00    +0.000 A 
ATOM     21  F   UNL     1       7.868   4.711  13.146  0.00  0.00    +0.000 F 
ATOM     22  C   UNL     1       5.694   4.257  13.935  0.00  0.00    +0.000 A 
ATOM     23  C   UNL     1       4.760   4.299  14.974  0.00  0.00    +0.000 A 
ENDBRANCH  11  17
BRANCH   1  24
ATOM     24  O   UNL     1      -0.524  11.372  22.856  0.00  0.00    +0.000 OA
BRANCH  24  27
ATOM     25  C   UNL     1      -3.039  13.470  21.172  0.00  0.00    +0.000 A 
ATOM     26  C   UNL     1      -2.473  12.337  21.737  0.00  0.00    +0.000 A 
ATOM     27  C   UNL     1      -1.223  12.440  22.342  0.00  0.00    +0.000 A 
ATOM     28  C   UNL     1      -0.635  13.689  22.483  0.00  0.00    +0.000 A 
ATOM     29  C   UNL     1      -1.288  14.777  21.931  0.00  0.00    +0.000 A 
ATOM     30  N   UNL     1      -2.459  14.692  21.260  0.00  0.00    +0.000 NA
BRANCH  25  34
ATOM     31  C   UNL     1      -6.586  11.972  18.047  0.00  0.00    +0.000 C 
ATOM     32  N   UNL     1      -5.855  12.681  19.068  0.00  0.00    +0.000 N 
ATOM     33  C   UNL     1      -4.625  12.369  19.563  0.00  0.00    +0.000 A 
ATOM     34  C   UNL     1      -4.290  13.379  20.441  0.00  0.00    +0.000 A 
ATOM     35  C   UNL     1      -5.429  14.225  20.427  0.00  0.00    +0.000 A 
ATOM     36  N   UNL     1      -6.381  13.801  19.598  0.00  0.00    +0.000 NA
ENDBRANCH  25  34
ENDBRANCH  24  27
ENDBRANCH   1  24
TORSDOF 4
ENDMDL
MODEL 9
REMARK VINA RESULT:      -8.3      2.898      3.907
REMARK  Name = 
REMARK  5 active torsions:
REMARK  status: ('A' for Active; 'I' for Inactive)
REMARK    1  A    between atoms: C_1  and  N_2
REMARK    2  A    between atoms: C_4  and  C_5
REMARK    3  A    between atoms: C_7  and  O_8
REMARK    4  A    between atoms: O_8  and  C_9
REMARK    5  A    between atoms: N_19  and  C_20
REMARK                            x       y       z     vdW  Elec       q    Type
REMARK                         _______ _______ _______ _____ _____    ______ ____
ROOT
ATOM      1  C   UNL     1       0.506  10.259  21.606  0.00  0.00    +0.000 A 
ATOM      2  C   UNL     1       0.857  10.589  20.298  0.00  0.00    +0.000 A 
ATOM      3  C   UNL     1       1.445   9.627  19.481  0.00  0.00    +0.000 A 
ATOM      4  C   UNL     1       1.733   8.373  20.015  0.00  0.00    +0.000 A 
ATOM      5  N   UNL     1       2.309   7.414  19.177  0.00  0.00    +0.000 N 
ATOM      6  C   UNL     1       2.648   6.139  19.560  0.00  0.00    +0.000 C 
ATOM      7  O   UNL     1       2.520   5.651  20.683  0.00  0.00    +0.000 OA
ATOM      8  N   UNL     1       3.168   5.361  18.534  0.00  0.00    +0.000 N 
ATOM      9  C   UNL     1       3.437   3.962  18.754  0.00  0.00    +0.000 C 
ATOM     10  C   UNL     1       3.845   3.469  17.384  0.00  0.00    +0.000 C 
ATOM     11  N   UNL     1       4.426   4.645  16.777  0.00  0.00    +0.000 N 
ATOM     12  C   UNL     1       3.915   5.801  17.418  0.00  0.00    +0.000 C 
ATOM     13  O   UNL     1       4.013   6.970  17.067  0.00  0.00    +0.000 OA
ATOM     14  N   UNL     1       1.465   8.071  21.295  0.00  0.00    +0.000 NA
ATOM     15  C   UNL     1       0.869   9.011  22.069  0.00  0.00    +0.000 A 
ATOM     16  H   UNL     1       2.532   7.677  18.225  0.00  0.00    +0.000 HD
ENDROOT
BRANCH  11  17
ATOM     17  C   UNL     1       5.277   4.612  15.654  0.00  0.00    +0.000 A 
ATOM     18  C   UNL     1       6.560   5.175  15.707  0.00  0.00    +0.000 A 
ATOM     19  C   UNL     1       7.411   5.124  14.601  0.00  0.00    +0.000 A 
ATOM     20  C   UNL     1       6.979   4.516  13.431  0.00  0.00    +0.000 A 
ATOM     21  F   UNL     1       7.791   4.474  12.367  0.00  0.00    +0.000 F 
ATOM     22  C   UNL     1       5.715   3.948  13.352  0.00  0.00    +0.000 A 
ATOM     23  C   UNL     1       4.869   3.985  14.465  0.00  0.00    +0.000 A 
ENDBRANCH  11  17
BRANCH   1  24
ATOM     24  O   UNL     1      -0.147  11.089  22.482  0.00  0.00    +0.000 OA
BRANCH  24  27
ATOM     25  C   UNL     1      -2.892  12.650  20.586  0.00  0.00    +0.000 A 
ATOM     26  C   UNL     1      -2.066  11.648  21.071  0.00  0.00    +0.000 A 
ATOM     27  C   UNL     1      -1.080  11.978  21.998  0.00  0.00    +0.000 A 
ATOM     28  C   UNL     1      -1.032  13.267  22.510  0.00  0.00    +0.000 A 
ATOM     29  C   UNL     1      -1.922  14.197  22.006  0.00  0.00    +0.000 A 
ATOM     30  N   UNL     1      -2.830  13.925  21.041  0.00  0.00    +0.000 NA
BRANCH  25  34
ATOM     31  C   UNL     1      -7.128  12.350  18.024  0.00  0.00    +0.000 C 
ATOM     32  N   UNL     1      -5.743  12.265  18.416  0.00  0.00    +0.000 N 
ATOM     33  C   UNL     1      -5.178  12.775  19.546  0.00  0.00    +0.000 A 
ATOM     34  C   UNL     1      -3.860  12.363  19.542  0.00  0.00    +0.000 A 
ATOM     35  C   UNL     1      -3.737  11.646  18.325  0.00  0.00    +0.000 A 
ATOM     36  N   UNL     1      -4.878  11.590  17.638  0.00  0.00    +0.000 NA
ENDBRANCH  25  34
ENDBRANCH  24  27
ENDBRANCH   1  24
TORSDOF 4
ENDMDL
