MODEL 1
REMARK VINA RESULT:      -7.6      0.000      0.000
REMARK  Name = 
REMARK  6 active torsions:
REMARK  status: ('A' for Active; 'I' for Inactive)
REMARK    1  A    between atoms: N_3  and  C_4
REMARK    2  A    between atoms: C_4  and  C_5
REMARK    3  A    between atoms: C_5  and  N_6
REMARK    4  A    between atoms: C_10  and  C_11
REMARK    5  A    between atoms: N_17  and  C_18
REMARK    6  A    between atoms: C_18  and  C_19
REMARK                            x       y       z     vdW  Elec       q    Type
REMARK                         _______ _______ _______ _____ _____    ______ ____
ROOT
ATOM      1  C   UNL     1       7.748   5.423  18.685  0.00  0.00    +0.000 C 
ENDROOT
BRANCH   1   4
ATOM      2  O   UNL     1       7.670   7.784  17.200  0.00  0.00    +0.000 OA
ATOM      3  C   UNL     1       8.185   7.802  18.309  0.00  0.00    +0.000 C 
ATOM      4  N   UNL     1       8.223   6.718  19.152  0.00  0.00    +0.000 N 
ATOM      5  N   UNL     1       8.794   8.893  18.857  0.00  0.00    +0.000 N 
ATOM      6  H   UNL     1       8.945   6.734  19.855  0.00  0.00    +0.000 HD
ATOM      7  H   UNL     1       9.072   8.867  19.825  0.00  0.00    +0.000 HD
BRANCH   5   8
ATOM      8  C   UNL     1       8.815  10.178  18.194  0.00  0.00    +0.000 C 
BRANCH   8   9
ATOM      9  C   UNL     1       9.843  11.041  18.859  0.00  0.00    +0.000 A 
ATOM     10  C   UNL     1      10.003  11.295  20.208  0.00  0.00    +0.000 A 
ATOM     11  C   UNL     1      11.089  12.179  20.471  0.00  0.00    +0.000 A 
ATOM     12  C   UNL     1      11.727  12.568  19.314  0.00  0.00    +0.000 A 
ATOM     13  S   UNL     1      11.016  11.872  17.924  0.00  0.00    +0.000 S 
ENDBRANCH   8   9
ENDBRANCH   5   8
ENDBRANCH   1   4
BRANCH   1  14
ATOM     14  C   UNL     1       6.301   5.159  19.091  0.00  0.00    +0.000 C 
BRANCH  14  15
ATOM     15  N   UNL     1       5.498   4.605  18.017  0.00  0.00    +0.000 N 
ATOM     16  C   UNL     1       5.869   4.644  16.698  0.00  0.00    +0.000 A 
ATOM     17  C   UNL     1       4.811   4.109  16.011  0.00  0.00    +0.000 A 
ATOM     18  N   UNL     1       3.806   3.768  16.869  0.00  0.00    +0.000 NA
ATOM     19  C   UNL     1       4.221   4.070  18.095  0.00  0.00    +0.000 A 
BRANCH  19  20
ATOM     20  C   UNL     1       3.454   3.883  19.336  0.00  0.00    +0.000 A 
ATOM     21  N   UNL     1       3.601   2.712  19.991  0.00  0.00    +0.000 NA
ATOM     22  C   UNL     1       2.887   2.575  21.123  0.00  0.00    +0.000 A 
ATOM     23  C   UNL     1       2.067   3.557  21.627  0.00  0.00    +0.000 A 
ATOM     24  C   UNL     1       1.998   4.713  20.889  0.00  0.00    +0.000 A 
ATOM     25  N   UNL     1       2.677   4.903  19.743  0.00  0.00    +0.000 NA
ENDBRANCH  19  20
ENDBRANCH  14  15
ENDBRANCH   1  14
TORSDOF 6
ENDMDL
MODEL 2
REMARK VINA RESULT:      -7.6      0.678      1.315
REMARK  Name = 
REMARK  6 active torsions:
REMARK  status: ('A' for Active; 'I' for Inactive)
REMARK    1  A    between atoms: N_3  and  C_4
REMARK    2  A    between atoms: C_4  and  C_5
REMARK    3  A    between atoms: C_5  and  N_6
REMARK    4  A    between atoms: C_10  and  C_11
REMARK    5  A    between atoms: N_17  and  C_18
REMARK    6  A    between atoms: C_18  and  C_19
REMARK                            x       y       z     vdW  Elec       q    Type
REMARK                         _______ _______ _______ _____ _____    ______ ____
ROOT
ATOM      1  C   UNL     1       7.823   5.552  18.669  0.00  0.00    +0.000 C 
ENDROOT
BRANCH   1   4
ATOM      2  O   UNL     1       7.702   7.919  17.197  0.00  0.00    +0.000 OA
ATOM      3  C   UNL     1       8.229   7.938  18.300  0.00  0.00    +0.000 C 
ATOM      4  N   UNL     1       8.290   6.851  19.137  0.00  0.00    +0.000 N 
ATOM      5  N   UNL     1       8.833   9.033  18.846  0.00  0.00    +0.000 N 
ATOM      6  H   UNL     1       9.020   6.871  19.831  0.00  0.00    +0.000 HD
ATOM      7  H   UNL     1       9.123   9.005  19.810  0.00  0.00    +0.000 HD
BRANCH   5   8
ATOM      8  C   UNL     1       8.832  10.321  18.190  0.00  0.00    +0.000 C 
BRANCH   8   9
ATOM      9  C   UNL     1       9.972  11.131  18.726  0.00  0.00    +0.000 A 
ATOM     10  C   UNL     1      11.089  11.586  18.050  0.00  0.00    +0.000 A 
ATOM     11  C   UNL     1      11.973  12.320  18.892  0.00  0.00    +0.000 A 
ATOM     12  C   UNL     1      11.502  12.406  20.183  0.00  0.00    +0.000 A 
ATOM     13  S   UNL     1      10.004  11.604  20.374  0.00  0.00    +0.000 S 
ENDBRANCH   8   9
ENDBRANCH   5   8
ENDBRANCH   1   4
BRANCH   1  14
ATOM     14  C   UNL     1       6.373   5.285  19.062  0.00  0.00    +0.000 C 
BRANCH  14  15
ATOM     15  N   UNL     1       5.601   4.659  18.005  0.00  0.00    +0.000 N 
ATOM     16  C   UNL     1       5.990   4.646  16.690  0.00  0.00    +0.000 A 
ATOM     17  C   UNL     1       4.957   4.050  16.016  0.00  0.00    +0.000 A 
ATOM     18  N   UNL     1       3.949   3.722  16.876  0.00  0.00    +0.000 NA
ATOM     19  C   UNL     1       4.339   4.093  18.092  0.00  0.00    +0.000 A 
BRANCH  19  20
ATOM     20  C   UNL     1       3.560   3.943  19.330  0.00  0.00    +0.000 A 
ATOM     21  N   UNL     1       2.794   4.985  19.717  0.00  0.00    +0.000 NA
ATOM     22  C   UNL     1       2.093   4.813  20.852  0.00  0.00    +0.000 A 
ATOM     23  C   UNL     1       2.109   3.651  21.587  0.00  0.00    +0.000 A 
ATOM     24  C   UNL     1       2.913   2.649  21.099  0.00  0.00    +0.000 A 
ATOM     25  N   UNL     1       3.647   2.767  19.978  0.00  0.00    +0.000 NA
ENDBRANCH  19  20
ENDBRANCH  14  15
ENDBRANCH   1  14
TORSDOF 6
ENDMDL
MODEL 3
REMARK VINA RESULT:      -7.2      1.453      1.839
REMARK  Name = 
REMARK  6 active torsions:
REMARK  status: ('A' for Active; 'I' for Inactive)
REMARK    1  A    between atoms: N_3  and  C_4
REMARK    2  A    between atoms: C_4  and  C_5
REMARK    3  A    between atoms: C_5  and  N_6
REMARK    4  A    between atoms: C_10  and  C_11
REMARK    5  A    between atoms: N_17  and  C_18
REMARK    6  A    between atoms: C_18  and  C_19
REMARK                            x       y       z     vdW  Elec       q    Type
REMARK                         _______ _______ _______ _____ _____    ______ ____
ROOT
ATOM      1  C   UNL     1       7.835   5.165  18.563  0.00  0.00    +0.000 C 
ENDROOT
BRANCH   1   4
ATOM      2  O   UNL     1       7.803   7.508  17.047  0.00  0.00    +0.000 OA
ATOM      3  C   UNL     1       8.154   7.568  18.217  0.00  0.00    +0.000 C 
ATOM      4  N   UNL     1       8.149   6.494  19.072  0.00  0.00    +0.000 N 
ATOM      5  N   UNL     1       8.603   8.702  18.829  0.00  0.00    +0.000 N 
ATOM      6  H   UNL     1       8.762   6.564  19.870  0.00  0.00    +0.000 HD
ATOM      7  H   UNL     1       8.743   8.700  19.826  0.00  0.00    +0.000 HD
BRANCH   5   8
ATOM      8  C   UNL     1       8.627   9.982  18.157  0.00  0.00    +0.000 C 
BRANCH   8   9
ATOM      9  C   UNL     1       9.535  10.901  18.914  0.00  0.00    +0.000 A 
ATOM     10  C   UNL     1       9.737  10.969  20.280  0.00  0.00    +0.000 A 
ATOM     11  C   UNL     1      10.672  11.981  20.642  0.00  0.00    +0.000 A 
ATOM     12  C   UNL     1      11.158  12.651  19.541  0.00  0.00    +0.000 A 
ATOM     13  S   UNL     1      10.487  12.062  18.084  0.00  0.00    +0.000 S 
ENDBRANCH   8   9
ENDBRANCH   5   8
ENDBRANCH   1   4
BRANCH   1  14
ATOM     14  C   UNL     1       6.344   4.990  18.292  0.00  0.00    +0.000 C 
BRANCH  14  15
ATOM     15  N   UNL     1       6.060   4.509  16.953  0.00  0.00    +0.000 N 
ATOM     16  C   UNL     1       6.954   4.586  15.916  0.00  0.00    +0.000 A 
ATOM     17  C   UNL     1       6.275   4.119  14.821  0.00  0.00    +0.000 A 
ATOM     18  N   UNL     1       4.996   3.782  15.157  0.00  0.00    +0.000 NA
ATOM     19  C   UNL     1       4.860   4.020  16.459  0.00  0.00    +0.000 A 
BRANCH  19  20
ATOM     20  C   UNL     1       3.638   3.814  17.250  0.00  0.00    +0.000 A 
ATOM     21  N   UNL     1       2.933   4.908  17.608  0.00  0.00    +0.000 NA
ATOM     22  C   UNL     1       1.819   4.684  18.328  0.00  0.00    +0.000 A 
ATOM     23  C   UNL     1       1.380   3.428  18.676  0.00  0.00    +0.000 A 
ATOM     24  C   UNL     1       2.165   2.383  18.253  0.00  0.00    +0.000 A 
ATOM     25  N   UNL     1       3.296   2.546  17.542  0.00  0.00    +0.000 NA
ENDBRANCH  19  20
ENDBRANCH  14  15
ENDBRANCH   1  14
TORSDOF 6
ENDMDL
MODEL 4
REMARK VINA RESULT:      -7.1      1.582      1.766
REMARK  Name = 
REMARK  6 active torsions:
REMARK  status: ('A' for Active; 'I' for Inactive)
REMARK    1  A    between atoms: N_3  and  C_4
REMARK    2  A    between atoms: C_4  and  C_5
REMARK    3  A    between atoms: C_5  and  N_6
REMARK    4  A    between atoms: C_10  and  C_11
REMARK    5  A    between atoms: N_17  and  C_18
REMARK    6  A    between atoms: C_18  and  C_19
REMARK                            x       y       z     vdW  Elec       q    Type
REMARK                         _______ _______ _______ _____ _____    ______ ____
ROOT
ATOM      1  C   UNL     1       7.775   5.180  18.657  0.00  0.00    +0.000 C 
ENDROOT
BRANCH   1   4
ATOM      2  O   UNL     1       7.762   7.519  17.136  0.00  0.00    +0.000 OA
ATOM      3  C   UNL     1       8.150   7.572  18.294  0.00  0.00    +0.000 C 
ATOM      4  N   UNL     1       8.142   6.501  19.153  0.00  0.00    +0.000 N 
ATOM      5  N   UNL     1       8.649   8.695  18.888  0.00  0.00    +0.000 N 
ATOM      6  H   UNL     1       8.780   6.556  19.931  0.00  0.00    +0.000 HD
ATOM      7  H   UNL     1       8.820   8.692  19.881  0.00  0.00    +0.000 HD
BRANCH   5   8
ATOM      8  C   UNL     1       8.689   9.972  18.211  0.00  0.00    +0.000 C 
BRANCH   8   9
ATOM      9  C   UNL     1       9.634  10.872  18.945  0.00  0.00    +0.000 A 
ATOM     10  C   UNL     1      10.727  11.555  18.445  0.00  0.00    +0.000 A 
ATOM     11  C   UNL     1      11.403  12.309  19.446  0.00  0.00    +0.000 A 
ATOM     12  C   UNL     1      10.802  12.183  20.679  0.00  0.00    +0.000 A 
ATOM     13  S   UNL     1       9.435  11.159  20.625  0.00  0.00    +0.000 S 
ENDBRANCH   8   9
ENDBRANCH   5   8
ENDBRANCH   1   4
BRANCH   1  14
ATOM     14  C   UNL     1       6.293   5.086  18.311  0.00  0.00    +0.000 C 
BRANCH  14  15
ATOM     15  N   UNL     1       6.050   4.595  16.967  0.00  0.00    +0.000 N 
ATOM     16  C   UNL     1       6.927   4.772  15.928  0.00  0.00    +0.000 A 
ATOM     17  C   UNL     1       6.292   4.252  14.831  0.00  0.00    +0.000 A 
ATOM     18  N   UNL     1       5.055   3.786  15.168  0.00  0.00    +0.000 NA
ATOM     19  C   UNL     1       4.903   3.994  16.473  0.00  0.00    +0.000 A 
BRANCH  19  20
ATOM     20  C   UNL     1       3.711   3.659  17.266  0.00  0.00    +0.000 A 
ATOM     21  N   UNL     1       3.661   2.434  17.832  0.00  0.00    +0.000 NA
ATOM     22  C   UNL     1       2.559   2.161  18.553  0.00  0.00    +0.000 A 
ATOM     23  C   UNL     1       1.536   3.059  18.746  0.00  0.00    +0.000 A 
ATOM     24  C   UNL     1       1.691   4.280  18.136  0.00  0.00    +0.000 A 
ATOM     25  N   UNL     1       2.764   4.606  17.392  0.00  0.00    +0.000 NA
ENDBRANCH  19  20
ENDBRANCH  14  15
ENDBRANCH   1  14
TORSDOF 6
ENDMDL
MODEL 5
REMARK VINA RESULT:      -7.1      1.100      1.488
REMARK  Name = 
REMARK  6 active torsions:
REMARK  status: ('A' for Active; 'I' for Inactive)
REMARK    1  A    between atoms: N_3  and  C_4
REMARK    2  A    between atoms: C_4  and  C_5
REMARK    3  A    between atoms: C_5  and  N_6
REMARK    4  A    between atoms: C_10  and  C_11
REMARK    5  A    between atoms: N_17  and  C_18
REMARK    6  A    between atoms: C_18  and  C_19
REMARK                            x       y       z     vdW  Elec       q    Type
REMARK                         _______ _______ _______ _____ _____    ______ ____
ROOT
ATOM      1  C   UNL     1       7.895   5.675  18.596  0.00  0.00    +0.000 C 
ENDROOT
BRANCH   1   4
ATOM      2  O   UNL     1       7.681   8.078  17.194  0.00  0.00    +0.000 OA
ATOM      3  C   UNL     1       8.249   8.077  18.276  0.00  0.00    +0.000 C 
ATOM      4  N   UNL     1       8.358   6.969  19.081  0.00  0.00    +0.000 N 
ATOM      5  N   UNL     1       8.855   9.167  18.829  0.00  0.00    +0.000 N 
ATOM      6  H   UNL     1       9.113   6.984  19.749  0.00  0.00    +0.000 HD
ATOM      7  H   UNL     1       9.181   9.119  19.781  0.00  0.00    +0.000 HD
BRANCH   5   8
ATOM      8  C   UNL     1       8.809  10.472  18.208  0.00  0.00    +0.000 C 
BRANCH   8   9
ATOM      9  C   UNL     1      10.019  11.245  18.631  0.00  0.00    +0.000 A 
ATOM     10  C   UNL     1      11.070  11.684  17.847  0.00  0.00    +0.000 A 
ATOM     11  C   UNL     1      12.057  12.382  18.601  0.00  0.00    +0.000 A 
ATOM     12  C   UNL     1      11.726  12.459  19.935  0.00  0.00    +0.000 A 
ATOM     13  S   UNL     1      10.237  11.691  20.273  0.00  0.00    +0.000 S 
ENDBRANCH   8   9
ENDBRANCH   5   8
ENDBRANCH   1   4
BRANCH   1  14
ATOM     14  C   UNL     1       6.462   5.377  19.027  0.00  0.00    +0.000 C 
BRANCH  14  15
ATOM     15  N   UNL     1       5.656   4.800  17.968  0.00  0.00    +0.000 N 
ATOM     16  C   UNL     1       6.184   4.266  16.821  0.00  0.00    +0.000 A 
ATOM     17  C   UNL     1       5.101   3.922  16.054  0.00  0.00    +0.000 A 
ATOM     18  N   UNL     1       3.939   4.249  16.691  0.00  0.00    +0.000 NA
ATOM     19  C   UNL     1       4.274   4.786  17.860  0.00  0.00    +0.000 A 
BRANCH  19  20
ATOM     20  C   UNL     1       3.338   5.297  18.873  0.00  0.00    +0.000 A 
ATOM     21  N   UNL     1       2.868   4.423  19.787  0.00  0.00    +0.000 NA
ATOM     22  C   UNL     1       2.017   4.923  20.701  0.00  0.00    +0.000 A 
ATOM     23  C   UNL     1       1.645   6.247  20.747  0.00  0.00    +0.000 A 
ATOM     24  C   UNL     1       2.189   7.054  19.778  0.00  0.00    +0.000 A 
ATOM     25  N   UNL     1       3.034   6.608  18.831  0.00  0.00    +0.000 NA
ENDBRANCH  19  20
ENDBRANCH  14  15
ENDBRANCH   1  14
TORSDOF 6
ENDMDL
MODEL 6
REMARK VINA RESULT:      -7.0      5.248      7.977
REMARK  Name = 
REMARK  6 active torsions:
REMARK  status: ('A' for Active; 'I' for Inactive)
REMARK    1  A    between atoms: N_3  and  C_4
REMARK    2  A    between atoms: C_4  and  C_5
REMARK    3  A    between atoms: C_5  and  N_6
REMARK    4  A    between atoms: C_10  and  C_11
REMARK    5  A    between atoms: N_17  and  C_18
REMARK    6  A    between atoms: C_18  and  C_19
REMARK                            x       y       z     vdW  Elec       q    Type
REMARK                         _______ _______ _______ _____ _____    ______ ____
ROOT
ATOM      1  C   UNL     1       2.785   6.913  18.814  0.00  0.00    +0.000 C 
ENDROOT
BRANCH   1   4
ATOM      2  O   UNL     1       1.250   8.880  20.064  0.00  0.00    +0.000 OA
ATOM      3  C   UNL     1       1.480   8.984  18.868  0.00  0.00    +0.000 C 
ATOM      4  N   UNL     1       2.273   8.112  18.163  0.00  0.00    +0.000 N 
ATOM      5  N   UNL     1       0.979   9.971  18.070  0.00  0.00    +0.000 N 
ATOM      6  H   UNL     1       2.117   8.083  17.168  0.00  0.00    +0.000 HD
ATOM      7  H   UNL     1       1.323  10.065  17.129  0.00  0.00    +0.000 HD
BRANCH   5   8
ATOM      8  C   UNL     1       0.177  11.054  18.596  0.00  0.00    +0.000 C 
BRANCH   8   9
ATOM      9  C   UNL     1      -1.251  10.822  18.211  0.00  0.00    +0.000 A 
ATOM     10  C   UNL     1      -1.756   9.895  17.318  0.00  0.00    +0.000 A 
ATOM     11  C   UNL     1      -3.172   9.973  17.195  0.00  0.00    +0.000 A 
ATOM     12  C   UNL     1      -3.706  10.953  18.002  0.00  0.00    +0.000 A 
ATOM     13  S   UNL     1      -2.503  11.773  18.897  0.00  0.00    +0.000 S 
ENDBRANCH   8   9
ENDBRANCH   5   8
ENDBRANCH   1   4
BRANCH   1  14
ATOM     14  C   UNL     1       2.340   5.638  18.104  0.00  0.00    +0.000 C 
BRANCH  14  15
ATOM     15  N   UNL     1       2.652   4.432  18.848  0.00  0.00    +0.000 N 
ATOM     16  C   UNL     1       1.799   3.862  19.757  0.00  0.00    +0.000 A 
ATOM     17  C   UNL     1       2.498   2.813  20.296  0.00  0.00    +0.000 A 
ATOM     18  N   UNL     1       3.750   2.744  19.759  0.00  0.00    +0.000 NA
ATOM     19  C   UNL     1       3.849   3.732  18.874  0.00  0.00    +0.000 A 
BRANCH  19  20
ATOM     20  C   UNL     1       5.034   4.046  18.061  0.00  0.00    +0.000 A 
ATOM     21  N   UNL     1       6.145   4.454  18.708  0.00  0.00    +0.000 NA
ATOM     22  C   UNL     1       7.211   4.731  17.935  0.00  0.00    +0.000 A 
ATOM     23  C   UNL     1       7.213   4.593  16.567  0.00  0.00    +0.000 A 
ATOM     24  C   UNL     1       6.034   4.161  16.010  0.00  0.00    +0.000 A 
ATOM     25  N   UNL     1       4.932   3.882  16.729  0.00  0.00    +0.000 NA
ENDBRANCH  19  20
ENDBRANCH  14  15
ENDBRANCH   1  14
TORSDOF 6
ENDMDL
MODEL 7
REMARK VINA RESULT:      -7.0      5.254      7.412
REMARK  Name = 
REMARK  6 active torsions:
REMARK  status: ('A' for Active; 'I' for Inactive)
REMARK    1  A    between atoms: N_3  and  C_4
REMARK    2  A    between atoms: C_4  and  C_5
REMARK    3  A    between atoms: C_5  and  N_6
REMARK    4  A    between atoms: C_10  and  C_11
REMARK    5  A    between atoms: N_17  and  C_18
REMARK    6  A    between atoms: C_18  and  C_19
REMARK                            x       y       z     vdW  Elec       q    Type
REMARK                         _______ _______ _______ _____ _____    ______ ____
ROOT
ATOM      1  C   UNL     1       3.115   6.979  18.126  0.00  0.00    +0.000 C 
ENDROOT
BRANCH   1   4
ATOM      2  O   UNL     1       1.573   8.642  19.751  0.00  0.00    +0.000 OA
ATOM      3  C   UNL     1       1.714   8.936  18.572  0.00  0.00    +0.000 C 
ATOM      4  N   UNL     1       2.500   8.228  17.696  0.00  0.00    +0.000 N 
ATOM      5  N   UNL     1       1.109   9.998  17.966  0.00  0.00    +0.000 N 
ATOM      6  H   UNL     1       2.277   8.337  16.720  0.00  0.00    +0.000 HD
ATOM      7  H   UNL     1       1.381  10.251  17.030  0.00  0.00    +0.000 HD
BRANCH   5   8
ATOM      8  C   UNL     1       0.292  10.940  18.698  0.00  0.00    +0.000 C 
BRANCH   8   9
ATOM      9  C   UNL     1      -1.129  10.790  18.249  0.00  0.00    +0.000 A 
ATOM     10  C   UNL     1      -1.642   9.909  17.315  0.00  0.00    +0.000 A 
ATOM     11  C   UNL     1      -3.046  10.062  17.136  0.00  0.00    +0.000 A 
ATOM     12  C   UNL     1      -3.564  11.050  17.943  0.00  0.00    +0.000 A 
ATOM     13  S   UNL     1      -2.359  11.789  18.905  0.00  0.00    +0.000 S 
ENDBRANCH   8   9
ENDBRANCH   5   8
ENDBRANCH   1   4
BRANCH   1  14
ATOM     14  C   UNL     1       4.223   6.527  17.178  0.00  0.00    +0.000 C 
BRANCH  14  15
ATOM     15  N   UNL     1       5.348   5.920  17.864  0.00  0.00    +0.000 N 
ATOM     16  C   UNL     1       6.608   6.462  17.877  0.00  0.00    +0.000 A 
ATOM     17  C   UNL     1       7.385   5.549  18.540  0.00  0.00    +0.000 A 
ATOM     18  N   UNL     1       6.642   4.466  18.910  0.00  0.00    +0.000 NA
ATOM     19  C   UNL     1       5.398   4.688  18.498  0.00  0.00    +0.000 A 
BRANCH  19  20
ATOM     20  C   UNL     1       4.256   3.776  18.670  0.00  0.00    +0.000 A 
ATOM     21  N   UNL     1       3.942   2.966  17.637  0.00  0.00    +0.000 NA
ATOM     22  C   UNL     1       2.896   2.144  17.829  0.00  0.00    +0.000 A 
ATOM     23  C   UNL     1       2.180   2.085  19.002  0.00  0.00    +0.000 A 
ATOM     24  C   UNL     1       2.590   2.944  19.993  0.00  0.00    +0.000 A 
ATOM     25  N   UNL     1       3.620   3.798  19.855  0.00  0.00    +0.000 NA
ENDBRANCH  19  20
ENDBRANCH  14  15
ENDBRANCH   1  14
TORSDOF 6
ENDMDL
MODEL 8
REMARK VINA RESULT:      -6.9      5.436      7.583
REMARK  Name = 
REMARK  6 active torsions:
REMARK  status: ('A' for Active; 'I' for Inactive)
REMARK    1  A    between atoms: N_3  and  C_4
REMARK    2  A    between atoms: C_4  and  C_5
REMARK    3  A    between atoms: C_5  and  N_6
REMARK    4  A    between atoms: C_10  and  C_11
REMARK    5  A    between atoms: N_17  and  C_18
REMARK    6  A    between atoms: C_18  and  C_19
REMARK                            x       y       z     vdW  Elec       q    Type
REMARK                         _______ _______ _______ _____ _____    ______ ____
ROOT
ATOM      1  C   UNL     1       2.791   7.377  18.779  0.00  0.00    +0.000 C 
ENDROOT
BRANCH   1   4
ATOM      2  O   UNL     1       0.984   9.143  19.963  0.00  0.00    +0.000 OA
ATOM      3  C   UNL     1       1.338   9.347  18.811  0.00  0.00    +0.000 C 
ATOM      4  N   UNL     1       2.268   8.583  18.150  0.00  0.00    +0.000 N 
ATOM      5  N   UNL     1       0.857  10.353  18.025  0.00  0.00    +0.000 N 
ATOM      6  H   UNL     1       2.226   8.614  17.143  0.00  0.00    +0.000 HD
ATOM      7  H   UNL     1       1.296  10.537  17.138  0.00  0.00    +0.000 HD
BRANCH   5   8
ATOM      8  C   UNL     1      -0.077  11.339  18.522  0.00  0.00    +0.000 C 
BRANCH   8   9
ATOM      9  C   UNL     1      -1.458  10.945  18.098  0.00  0.00    +0.000 A 
ATOM     10  C   UNL     1      -1.829   9.965  17.196  0.00  0.00    +0.000 A 
ATOM     11  C   UNL     1      -3.241   9.881  17.034  0.00  0.00    +0.000 A 
ATOM     12  C   UNL     1      -3.906  10.794  17.822  0.00  0.00    +0.000 A 
ATOM     13  S   UNL     1      -2.829  11.748  18.746  0.00  0.00    +0.000 S 
ENDBRANCH   8   9
ENDBRANCH   5   8
ENDBRANCH   1   4
BRANCH   1  14
ATOM     14  C   UNL     1       3.367   6.399  17.759  0.00  0.00    +0.000 C 
BRANCH  14  15
ATOM     15  N   UNL     1       4.539   5.694  18.243  0.00  0.00    +0.000 N 
ATOM     16  C   UNL     1       5.821   6.014  17.874  0.00  0.00    +0.000 A 
ATOM     17  C   UNL     1       6.612   5.065  18.466  0.00  0.00    +0.000 A 
ATOM     18  N   UNL     1       5.851   4.172  19.163  0.00  0.00    +0.000 NA
ATOM     19  C   UNL     1       4.584   4.552  19.028  0.00  0.00    +0.000 A 
BRANCH  19  20
ATOM     20  C   UNL     1       3.414   3.871  19.604  0.00  0.00    +0.000 A 
ATOM     21  N   UNL     1       2.911   4.360  20.757  0.00  0.00    +0.000 NA
ATOM     22  C   UNL     1       1.840   3.716  21.254  0.00  0.00    +0.000 A 
ATOM     23  C   UNL     1       1.249   2.637  20.639  0.00  0.00    +0.000 A 
ATOM     24  C   UNL     1       1.834   2.227  19.465  0.00  0.00    +0.000 A 
ATOM     25  N   UNL     1       2.913   2.822  18.926  0.00  0.00    +0.000 NA
ENDBRANCH  19  20
ENDBRANCH  14  15
ENDBRANCH   1  14
TORSDOF 6
ENDMDL
MODEL 9
REMARK VINA RESULT:      -6.9      5.124      7.830
REMARK  Name = 
REMARK  6 active torsions:
REMARK  status: ('A' for Active; 'I' for Inactive)
REMARK    1  A    between atoms: N_3  and  C_4
REMARK    2  A    between atoms: C_4  and  C_5
REMARK    3  A    between atoms: C_5  and  N_6
REMARK    4  A    between atoms: C_10  and  C_11
REMARK    5  A    between atoms: N_17  and  C_18
REMARK    6  A    between atoms: C_18  and  C_19
REMARK                            x       y       z     vdW  Elec       q    Type
REMARK                         _______ _______ _______ _____ _____    ______ ____
ROOT
ATOM      1  C   UNL     1       2.641   6.538  19.332  0.00  0.00    +0.000 C 
ENDROOT
BRANCH   1   4
ATOM      2  O   UNL     1       1.238   8.676  20.448  0.00  0.00    +0.000 OA
ATOM      3  C   UNL     1       1.556   8.732  19.270  0.00  0.00    +0.000 C 
ATOM      4  N   UNL     1       2.301   7.769  18.632  0.00  0.00    +0.000 N 
ATOM      5  N   UNL     1       1.214   9.749  18.427  0.00  0.00    +0.000 N 
ATOM      6  H   UNL     1       2.209   7.736  17.629  0.00  0.00    +0.000 HD
ATOM      7  H   UNL     1       1.628   9.788  17.509  0.00  0.00    +0.000 HD
BRANCH   5   8
ATOM      8  C   UNL     1       0.495  10.918  18.882  0.00  0.00    +0.000 C 
BRANCH   8   9
ATOM      9  C   UNL     1      -0.920  10.826  18.402  0.00  0.00    +0.000 A 
ATOM     10  C   UNL     1      -1.445   9.974  17.448  0.00  0.00    +0.000 A 
ATOM     11  C   UNL     1      -2.839  10.182  17.241  0.00  0.00    +0.000 A 
ATOM     12  C   UNL     1      -3.336  11.181  18.047  0.00  0.00    +0.000 A 
ATOM     13  S   UNL     1      -2.126  11.864  19.043  0.00  0.00    +0.000 S 
ENDBRANCH   8   9
ENDBRANCH   5   8
ENDBRANCH   1   4
BRANCH   1  14
ATOM     14  C   UNL     1       2.679   5.334  18.395  0.00  0.00    +0.000 C 
BRANCH  14  15
ATOM     15  N   UNL     1       3.330   4.177  18.979  0.00  0.00    +0.000 N 
ATOM     16  C   UNL     1       2.650   3.145  19.573  0.00  0.00    +0.000 A 
ATOM     17  C   UNL     1       3.619   2.315  20.070  0.00  0.00    +0.000 A 
ATOM     18  N   UNL     1       4.861   2.820  19.815  0.00  0.00    +0.000 NA
ATOM     19  C   UNL     1       4.689   3.958  19.149  0.00  0.00    +0.000 A 
BRANCH  19  20
ATOM     20  C   UNL     1       5.757   4.851  18.677  0.00  0.00    +0.000 A 
ATOM     21  N   UNL     1       5.733   5.225  17.381  0.00  0.00    +0.000 NA
ATOM     22  C   UNL     1       6.723   6.044  16.984  0.00  0.00    +0.000 A 
ATOM     23  C   UNL     1       7.704   6.514  17.825  0.00  0.00    +0.000 A 
ATOM     24  C   UNL     1       7.630   6.081  19.127  0.00  0.00    +0.000 A 
ATOM     25  N   UNL     1       6.673   5.251  19.579  0.00  0.00    +0.000 NA
ENDBRANCH  19  20
ENDBRANCH  14  15
ENDBRANCH   1  14
TORSDOF 6
ENDMDL
