MODEL 1
REMARK VINA RESULT:      -8.5      0.000      0.000
REMARK  Name = 
REMARK  5 active torsions:
REMARK  status: ('A' for Active; 'I' for Inactive)
REMARK    1  A    between atoms: C_1  and  C_2
REMARK    2  A    between atoms: C_11  and  C_13
REMARK    3  A    between atoms: C_13  and  N_14
REMARK    4  A    between atoms: C_13  and  C_15
REMARK    5  A    between atoms: C_15  and  C_16
REMARK                            x       y       z     vdW  Elec       q    Type
REMARK                         _______ _______ _______ _____ _____    ______ ____
ROOT
ATOM      1  C   UNL     1       3.431   1.317  18.607  0.00  0.00    +0.000 C 
ATOM      2  C   UNL     1       3.286   2.804  18.495  0.00  0.00    +0.000 A 
ATOM      3  C   UNL     1       2.270   3.474  19.161  0.00  0.00    +0.000 A 
ATOM      4  C   UNL     1       2.156   4.857  19.035  0.00  0.00    +0.000 A 
ATOM      5  C   UNL     1       3.069   5.625  18.264  0.00  0.00    +0.000 A 
ATOM      6  C   UNL     1       3.050   7.028  18.069  0.00  0.00    +0.000 A 
ATOM      7  N   UNL     1       2.194   7.904  18.705  0.00  0.00    +0.000 N 
ATOM      8  C   UNL     1       1.661   7.739  20.062  0.00  0.00    +0.000 C 
ATOM      9  C   UNL     1       1.559   9.091  20.797  0.00  0.00    +0.000 C 
ATOM     10  N   UNL     1       0.896  10.104  19.975  0.00  0.00    +0.000 N 
ATOM     11  C   UNL     1      -0.167  10.824  20.496  0.00  0.00    +0.000 C 
ATOM     12  O   UNL     1      -0.525  10.685  21.671  0.00  0.00    +0.000 OA
ATOM     13  C   UNL     1       1.520  10.287  18.658  0.00  0.00    +0.000 C 
ATOM     14  C   UNL     1       1.572   8.957  17.885  0.00  0.00    +0.000 C 
ATOM     15  N   UNL     1       3.920   7.617  17.220  0.00  0.00    +0.000 NA
ATOM     16  C   UNL     1       4.824   6.843  16.616  0.00  0.00    +0.000 A 
ATOM     17  N   UNL     1       4.957   5.526  16.762  0.00  0.00    +0.000 NA
ATOM     18  C   UNL     1       4.080   4.930  17.572  0.00  0.00    +0.000 A 
ATOM     19  C   UNL     1       4.175   3.548  17.708  0.00  0.00    +0.000 A 
ENDROOT
BRANCH  11  20
ATOM     20  C   UNL     1      -0.868  11.865  19.584  0.00  0.00    +0.000 C 
BRANCH  20  21
ATOM     21  N   UNL     1      -0.615  13.211  20.152  0.00  0.00    +0.000 NA
ATOM     22  H   UNL     1      -1.391  13.439  20.778  0.00  0.00    +0.000 HD
ATOM     23  H   UNL     1      -0.644  13.907  19.410  0.00  0.00    +0.000 HD
ENDBRANCH  20  21
BRANCH  20  24
ATOM     24  C   UNL     1      -2.382  11.582  19.468  0.00  0.00    +0.000 C 
BRANCH  24  25
ATOM     25  C   UNL     1      -2.801  11.137  18.083  0.00  0.00    +0.000 A 
ATOM     26  C   UNL     1      -1.988  10.248  17.365  0.00  0.00    +0.000 A 
ATOM     27  C   UNL     1      -2.310   9.889  16.056  0.00  0.00    +0.000 A 
ATOM     28  C   UNL     1      -3.449  10.418  15.455  0.00  0.00    +0.000 A 
ATOM     29 CL   UNL     1      -3.817  10.019  13.823  0.00  0.00    +0.000 Cl
ATOM     30  C   UNL     1      -4.285  11.276  16.165  0.00  0.00    +0.000 A 
ATOM     31  C   UNL     1      -3.969  11.627  17.480  0.00  0.00    +0.000 A 
ENDBRANCH  24  25
ENDBRANCH  20  24
ENDBRANCH  11  20
TORSDOF 4
ENDMDL
MODEL 2
REMARK VINA RESULT:      -8.3      3.278      8.458
REMARK  Name = 
REMARK  5 active torsions:
REMARK  status: ('A' for Active; 'I' for Inactive)
REMARK    1  A    between atoms: C_1  and  C_2
REMARK    2  A    between atoms: C_11  and  C_13
REMARK    3  A    between atoms: C_13  and  N_14
REMARK    4  A    between atoms: C_13  and  C_15
REMARK    5  A    between atoms: C_15  and  C_16
REMARK                            x       y       z     vdW  Elec       q    Type
REMARK                         _______ _______ _______ _____ _____    ______ ____
ROOT
ATOM      1  C   UNL     1      -3.062  12.083  18.625  0.00  0.00    +0.000 C 
ATOM      2  C   UNL     1      -1.895  11.181  18.889  0.00  0.00    +0.000 A 
ATOM      3  C   UNL     1      -1.288  10.480  17.857  0.00  0.00    +0.000 A 
ATOM      4  C   UNL     1      -0.208   9.643  18.132  0.00  0.00    +0.000 A 
ATOM      5  C   UNL     1       0.323   9.499  19.442  0.00  0.00    +0.000 A 
ATOM      6  C   UNL     1       1.413   8.683  19.833  0.00  0.00    +0.000 A 
ATOM      7  N   UNL     1       2.222   7.974  18.969  0.00  0.00    +0.000 N 
ATOM      8  C   UNL     1       2.573   8.382  17.604  0.00  0.00    +0.000 C 
ATOM      9  C   UNL     1       4.030   8.013  17.260  0.00  0.00    +0.000 C 
ATOM     10  N   UNL     1       4.329   6.621  17.600  0.00  0.00    +0.000 N 
ATOM     11  C   UNL     1       4.899   5.788  16.652  0.00  0.00    +0.000 C 
ATOM     12  O   UNL     1       5.232   6.212  15.539  0.00  0.00    +0.000 OA
ATOM     13  C   UNL     1       4.036   6.288  19.001  0.00  0.00    +0.000 C 
ATOM     14  C   UNL     1       2.567   6.593  19.343  0.00  0.00    +0.000 C 
ATOM     15  N   UNL     1       1.746   8.558  21.136  0.00  0.00    +0.000 NA
ATOM     16  C   UNL     1       1.050   9.265  22.029  0.00  0.00    +0.000 A 
ATOM     17  N   UNL     1       0.040  10.092  21.765  0.00  0.00    +0.000 NA
ATOM     18  C   UNL     1      -0.318  10.196  20.483  0.00  0.00    +0.000 A 
ATOM     19  C   UNL     1      -1.398  11.024  20.189  0.00  0.00    +0.000 A 
ENDROOT
BRANCH  11  20
ATOM     20  C   UNL     1       5.169   4.310  17.039  0.00  0.00    +0.000 C 
BRANCH  20  21
ATOM     21  N   UNL     1       6.292   3.819  16.204  0.00  0.00    +0.000 NA
ATOM     22  H   UNL     1       6.603   4.592  15.610  0.00  0.00    +0.000 HD
ATOM     23  H   UNL     1       5.957   3.098  15.569  0.00  0.00    +0.000 HD
ENDBRANCH  20  21
BRANCH  20  24
ATOM     24  C   UNL     1       3.907   3.439  16.846  0.00  0.00    +0.000 C 
BRANCH  24  25
ATOM     25  C   UNL     1       3.204   3.113  18.146  0.00  0.00    +0.000 A 
ATOM     26  C   UNL     1       1.813   3.270  18.240  0.00  0.00    +0.000 A 
ATOM     27  C   UNL     1       1.154   3.057  19.451  0.00  0.00    +0.000 A 
ATOM     28  C   UNL     1       1.881   2.682  20.577  0.00  0.00    +0.000 A 
ATOM     29 CL   UNL     1       1.076   2.472  22.083  0.00  0.00    +0.000 Cl
ATOM     30  C   UNL     1       3.258   2.489  20.494  0.00  0.00    +0.000 A 
ATOM     31  C   UNL     1       3.917   2.693  19.279  0.00  0.00    +0.000 A 
ENDBRANCH  24  25
ENDBRANCH  20  24
ENDBRANCH  11  20
TORSDOF 4
ENDMDL
MODEL 3
REMARK VINA RESULT:      -8.1      1.173      1.553
REMARK  Name = 
REMARK  5 active torsions:
REMARK  status: ('A' for Active; 'I' for Inactive)
REMARK    1  A    between atoms: C_1  and  C_2
REMARK    2  A    between atoms: C_11  and  C_13
REMARK    3  A    between atoms: C_13  and  N_14
REMARK    4  A    between atoms: C_13  and  C_15
REMARK    5  A    between atoms: C_15  and  C_16
REMARK                            x       y       z     vdW  Elec       q    Type
REMARK                         _______ _______ _______ _____ _____    ______ ____
ROOT
ATOM      1  C   UNL     1       3.295   2.286  20.790  0.00  0.00    +0.000 C 
ATOM      2  C   UNL     1       3.029   3.688  20.334  0.00  0.00    +0.000 A 
ATOM      3  C   UNL     1       2.022   4.447  20.913  0.00  0.00    +0.000 A 
ATOM      4  C   UNL     1       1.792   5.747  20.466  0.00  0.00    +0.000 A 
ATOM      5  C   UNL     1       2.579   6.346  19.445  0.00  0.00    +0.000 A 
ATOM      6  C   UNL     1       2.436   7.653  18.918  0.00  0.00    +0.000 A 
ATOM      7  N   UNL     1       1.570   8.613  19.402  0.00  0.00    +0.000 N 
ATOM      8  C   UNL     1       1.164   8.763  20.804  0.00  0.00    +0.000 C 
ATOM      9  C   UNL     1       1.020  10.248  21.195  0.00  0.00    +0.000 C 
ATOM     10  N   UNL     1       0.215  10.987  20.220  0.00  0.00    +0.000 N 
ATOM     11  C   UNL     1      -0.853  11.756  20.651  0.00  0.00    +0.000 C 
ATOM     12  O   UNL     1      -1.102  11.894  21.854  0.00  0.00    +0.000 OA
ATOM     13  C   UNL     1       0.714  10.869  18.843  0.00  0.00    +0.000 C 
ATOM     14  C   UNL     1       0.805   9.393  18.416  0.00  0.00    +0.000 C 
ATOM     15  N   UNL     1       3.186   8.058  17.870  0.00  0.00    +0.000 NA
ATOM     16  C   UNL     1       4.095   7.208  17.387  0.00  0.00    +0.000 A 
ATOM     17  N   UNL     1       4.339   5.978  17.836  0.00  0.00    +0.000 NA
ATOM     18  C   UNL     1       3.579   5.556  18.849  0.00  0.00    +0.000 A 
ATOM     19  C   UNL     1       3.791   4.259  19.307  0.00  0.00    +0.000 A 
ENDROOT
BRANCH  11  20
ATOM     20  C   UNL     1      -1.703  12.497  19.586  0.00  0.00    +0.000 C 
BRANCH  20  21
ATOM     21  N   UNL     1      -1.960  13.870  20.084  0.00  0.00    +0.000 NA
ATOM     22  H   UNL     1      -1.671  13.908  21.064  0.00  0.00    +0.000 HD
ATOM     23  H   UNL     1      -2.962  14.052  20.083  0.00  0.00    +0.000 HD
ENDBRANCH  20  21
BRANCH  20  24
ATOM     24  C   UNL     1      -3.024  11.748  19.301  0.00  0.00    +0.000 C 
BRANCH  24  25
ATOM     25  C   UNL     1      -3.178  11.340  17.852  0.00  0.00    +0.000 A 
ATOM     26  C   UNL     1      -4.295  11.776  17.124  0.00  0.00    +0.000 A 
ATOM     27  C   UNL     1      -4.502  11.344  15.813  0.00  0.00    +0.000 A 
ATOM     28  C   UNL     1      -3.591  10.474  15.220  0.00  0.00    +0.000 A 
ATOM     29 CL   UNL     1      -3.875   9.899  13.624  0.00  0.00    +0.000 Cl
ATOM     30  C   UNL     1      -2.460  10.058  15.917  0.00  0.00    +0.000 A 
ATOM     31  C   UNL     1      -2.247  10.497  17.226  0.00  0.00    +0.000 A 
ENDBRANCH  24  25
ENDBRANCH  20  24
ENDBRANCH  11  20
TORSDOF 4
ENDMDL
MODEL 4
REMARK VINA RESULT:      -8.1      1.132      1.274
REMARK  Name = 
REMARK  5 active torsions:
REMARK  status: ('A' for Active; 'I' for Inactive)
REMARK    1  A    between atoms: C_1  and  C_2
REMARK    2  A    between atoms: C_11  and  C_13
REMARK    3  A    between atoms: C_13  and  N_14
REMARK    4  A    between atoms: C_13  and  C_15
REMARK    5  A    between atoms: C_15  and  C_16
REMARK                            x       y       z     vdW  Elec       q    Type
REMARK                         _______ _______ _______ _____ _____    ______ ____
ROOT
ATOM      1  C   UNL     1       2.558   1.868  20.833  0.00  0.00    +0.000 C 
ATOM      2  C   UNL     1       2.481   3.303  20.412  0.00  0.00    +0.000 A 
ATOM      3  C   UNL     1       1.548   4.162  20.975  0.00  0.00    +0.000 A 
ATOM      4  C   UNL     1       1.495   5.492  20.562  0.00  0.00    +0.000 A 
ATOM      5  C   UNL     1       2.390   6.019  19.593  0.00  0.00    +0.000 A 
ATOM      6  C   UNL     1       2.427   7.348  19.103  0.00  0.00    +0.000 A 
ATOM      7  N   UNL     1       1.662   8.391  19.583  0.00  0.00    +0.000 N 
ATOM      8  C   UNL     1       1.216   8.551  20.971  0.00  0.00    +0.000 C 
ATOM      9  C   UNL     1       1.234  10.031  21.404  0.00  0.00    +0.000 C 
ATOM     10  N   UNL     1       0.566  10.888  20.422  0.00  0.00    +0.000 N 
ATOM     11  C   UNL     1      -0.420  11.768  20.836  0.00  0.00    +0.000 C 
ATOM     12  O   UNL     1      -0.703  11.903  22.032  0.00  0.00    +0.000 OA
ATOM     13  C   UNL     1       1.106  10.748  19.063  0.00  0.00    +0.000 C 
ATOM     14  C   UNL     1       1.038   9.284  18.593  0.00  0.00    +0.000 C 
ATOM     15  N   UNL     1       3.265   7.688  18.099  0.00  0.00    +0.000 NA
ATOM     16  C   UNL     1       4.085   6.748  17.625  0.00  0.00    +0.000 A 
ATOM     17  N   UNL     1       4.162   5.485  18.043  0.00  0.00    +0.000 NA
ATOM     18  C   UNL     1       3.314   5.131  19.011  0.00  0.00    +0.000 A 
ATOM     19  C   UNL     1       3.350   3.806  19.435  0.00  0.00    +0.000 A 
ENDROOT
BRANCH  11  20
ATOM     20  C   UNL     1      -1.130  12.635  19.762  0.00  0.00    +0.000 C 
BRANCH  20  21
ATOM     21  N   UNL     1      -0.941  14.059  20.130  0.00  0.00    +0.000 NA
ATOM     22  H   UNL     1      -0.488  14.089  21.047  0.00  0.00    +0.000 HD
ATOM     23  H   UNL     1      -1.848  14.504  20.254  0.00  0.00    +0.000 HD
ENDBRANCH  20  21
BRANCH  20  24
ATOM     24  C   UNL     1      -2.629  12.279  19.653  0.00  0.00    +0.000 C 
BRANCH  24  25
ATOM     25  C   UNL     1      -2.996  11.643  18.329  0.00  0.00    +0.000 A 
ATOM     26  C   UNL     1      -2.020  10.951  17.599  0.00  0.00    +0.000 A 
ATOM     27  C   UNL     1      -2.312  10.429  16.338  0.00  0.00    +0.000 A 
ATOM     28  C   UNL     1      -3.585  10.595  15.799  0.00  0.00    +0.000 A 
ATOM     29 CL   UNL     1      -3.929  10.000  14.223  0.00  0.00    +0.000 Cl
ATOM     30  C   UNL     1      -4.576  11.251  16.525  0.00  0.00    +0.000 A 
ATOM     31  C   UNL     1      -4.287  11.765  17.792  0.00  0.00    +0.000 A 
ENDBRANCH  24  25
ENDBRANCH  20  24
ENDBRANCH  11  20
TORSDOF 4
ENDMDL
MODEL 5
REMARK VINA RESULT:      -8.0      1.237      1.663
REMARK  Name = 
REMARK  5 active torsions:
REMARK  status: ('A' for Active; 'I' for Inactive)
REMARK    1  A    between atoms: C_1  and  C_2
REMARK    2  A    between atoms: C_11  and  C_13
REMARK    3  A    between atoms: C_13  and  N_14
REMARK    4  A    between atoms: C_13  and  C_15
REMARK    5  A    between atoms: C_15  and  C_16
REMARK                            x       y       z     vdW  Elec       q    Type
REMARK                         _______ _______ _______ _____ _____    ______ ____
ROOT
ATOM      1  C   UNL     1       1.928   1.621  19.064  0.00  0.00    +0.000 C 
ATOM      2  C   UNL     1       1.994   3.118  19.059  0.00  0.00    +0.000 A 
ATOM      3  C   UNL     1       1.130   3.872  19.840  0.00  0.00    +0.000 A 
ATOM      4  C   UNL     1       1.210   5.263  19.812  0.00  0.00    +0.000 A 
ATOM      5  C   UNL     1       2.173   5.950  19.026  0.00  0.00    +0.000 A 
ATOM      6  C   UNL     1       2.345   7.353  18.924  0.00  0.00    +0.000 A 
ATOM      7  N   UNL     1       1.667   8.291  19.676  0.00  0.00    +0.000 N 
ATOM      8  C   UNL     1       1.204   8.102  21.055  0.00  0.00    +0.000 C 
ATOM      9  C   UNL     1       1.347   9.397  21.881  0.00  0.00    +0.000 C 
ATOM     10  N   UNL     1       0.785  10.551  21.177  0.00  0.00    +0.000 N 
ATOM     11  C   UNL     1      -0.126  11.372  21.821  0.00  0.00    +0.000 C 
ATOM     12  O   UNL     1      -0.425  11.197  23.007  0.00  0.00    +0.000 OA
ATOM     13  C   UNL     1       1.344  10.741  19.832  0.00  0.00    +0.000 C 
ATOM     14  C   UNL     1       1.153   9.478  18.974  0.00  0.00    +0.000 C 
ATOM     15  N   UNL     1       3.235   7.875  18.052  0.00  0.00    +0.000 NA
ATOM     16  C   UNL     1       3.977   7.030  17.334  0.00  0.00    +0.000 A 
ATOM     17  N   UNL     1       3.927   5.700  17.386  0.00  0.00    +0.000 NA
ATOM     18  C   UNL     1       3.026   5.174  18.219  0.00  0.00    +0.000 A 
ATOM     19  C   UNL     1       2.929   3.786  18.258  0.00  0.00    +0.000 A 
ENDROOT
BRANCH  11  20
ATOM     20  C   UNL     1      -0.726  12.566  21.031  0.00  0.00    +0.000 C 
BRANCH  20  21
ATOM     21  N   UNL     1      -0.396  13.810  21.767  0.00  0.00    +0.000 NA
ATOM     22  H   UNL     1      -0.496  14.595  21.119  0.00  0.00    +0.000 HD
ATOM     23  H   UNL     1       0.585  13.797  22.039  0.00  0.00    +0.000 HD
ENDBRANCH  20  21
BRANCH  20  24
ATOM     24  C   UNL     1      -2.252  12.410  20.850  0.00  0.00    +0.000 C 
BRANCH  24  25
ATOM     25  C   UNL     1      -2.652  12.048  19.436  0.00  0.00    +0.000 A 
ATOM     26  C   UNL     1      -4.011  11.972  19.098  0.00  0.00    +0.000 A 
ATOM     27  C   UNL     1      -4.405  11.559  17.825  0.00  0.00    +0.000 A 
ATOM     28  C   UNL     1      -3.441  11.220  16.879  0.00  0.00    +0.000 A 
ATOM     29 CL   UNL     1      -3.927  10.659  15.328  0.00  0.00    +0.000 Cl
ATOM     30  C   UNL     1      -2.087  11.322  17.187  0.00  0.00    +0.000 A 
ATOM     31  C   UNL     1      -1.691  11.745  18.459  0.00  0.00    +0.000 A 
ENDBRANCH  24  25
ENDBRANCH  20  24
ENDBRANCH  11  20
TORSDOF 4
ENDMDL
MODEL 6
REMARK VINA RESULT:      -7.7      3.522      4.989
REMARK  Name = 
REMARK  5 active torsions:
REMARK  status: ('A' for Active; 'I' for Inactive)
REMARK    1  A    between atoms: C_1  and  C_2
REMARK    2  A    between atoms: C_11  and  C_13
REMARK    3  A    between atoms: C_13  and  N_14
REMARK    4  A    between atoms: C_13  and  C_15
REMARK    5  A    between atoms: C_15  and  C_16
REMARK                            x       y       z     vdW  Elec       q    Type
REMARK                         _______ _______ _______ _____ _____    ______ ____
ROOT
ATOM      1  C   UNL     1       6.896   4.613  14.892  0.00  0.00    +0.000 C 
ATOM      2  C   UNL     1       5.801   5.059  15.812  0.00  0.00    +0.000 A 
ATOM      3  C   UNL     1       5.625   6.402  16.111  0.00  0.00    +0.000 A 
ATOM      4  C   UNL     1       4.602   6.789  16.975  0.00  0.00    +0.000 A 
ATOM      5  C   UNL     1       3.699   5.852  17.547  0.00  0.00    +0.000 A 
ATOM      6  C   UNL     1       2.628   6.132  18.430  0.00  0.00    +0.000 A 
ATOM      7  N   UNL     1       2.209   7.396  18.791  0.00  0.00    +0.000 N 
ATOM      8  C   UNL     1       2.270   8.589  17.938  0.00  0.00    +0.000 C 
ATOM      9  C   UNL     1       1.041   9.497  18.146  0.00  0.00    +0.000 C 
ATOM     10  N   UNL     1       0.789   9.747  19.566  0.00  0.00    +0.000 N 
ATOM     11  C   UNL     1       0.634  11.046  20.019  0.00  0.00    +0.000 C 
ATOM     12  O   UNL     1       0.630  12.004  19.238  0.00  0.00    +0.000 OA
ATOM     13  C   UNL     1       0.654   8.517  20.360  0.00  0.00    +0.000 C 
ATOM     14  C   UNL     1       1.902   7.628  20.211  0.00  0.00    +0.000 C 
ATOM     15  N   UNL     1       1.913   5.129  18.984  0.00  0.00    +0.000 NA
ATOM     16  C   UNL     1       2.217   3.878  18.633  0.00  0.00    +0.000 A 
ATOM     17  N   UNL     1       3.171   3.508  17.782  0.00  0.00    +0.000 NA
ATOM     18  C   UNL     1       3.906   4.491  17.255  0.00  0.00    +0.000 A 
ATOM     19  C   UNL     1       4.935   4.124  16.393  0.00  0.00    +0.000 A 
ENDROOT
BRANCH  11  20
ATOM     20  C   UNL     1       0.403  11.274  21.536  0.00  0.00    +0.000 C 
BRANCH  20  21
ATOM     21  N   UNL     1       1.261  10.317  22.276  0.00  0.00    +0.000 NA
ATOM     22  H   UNL     1       2.207  10.382  21.892  0.00  0.00    +0.000 HD
ATOM     23  H   UNL     1       0.951   9.365  22.090  0.00  0.00    +0.000 HD
ENDBRANCH  20  21
BRANCH  20  24
ATOM     24  C   UNL     1      -1.086  11.096  21.911  0.00  0.00    +0.000 C 
BRANCH  24  25
ATOM     25  C   UNL     1      -1.624  12.223  22.767  0.00  0.00    +0.000 A 
ATOM     26  C   UNL     1      -2.918  12.130  23.299  0.00  0.00    +0.000 A 
ATOM     27  C   UNL     1      -3.468  13.190  24.020  0.00  0.00    +0.000 A 
ATOM     28  C   UNL     1      -2.725  14.352  24.215  0.00  0.00    +0.000 A 
ATOM     29 CL   UNL     1      -3.422  15.680  25.057  0.00  0.00    +0.000 Cl
ATOM     30  C   UNL     1      -1.427  14.448  23.722  0.00  0.00    +0.000 A 
ATOM     31  C   UNL     1      -0.872  13.382  23.008  0.00  0.00    +0.000 A 
ENDBRANCH  24  25
ENDBRANCH  20  24
ENDBRANCH  11  20
TORSDOF 4
ENDMDL
MODEL 7
REMARK VINA RESULT:      -7.3      2.480      3.009
REMARK  Name = 
REMARK  5 active torsions:
REMARK  status: ('A' for Active; 'I' for Inactive)
REMARK    1  A    between atoms: C_1  and  C_2
REMARK    2  A    between atoms: C_11  and  C_13
REMARK    3  A    between atoms: C_13  and  N_14
REMARK    4  A    between atoms: C_13  and  C_15
REMARK    5  A    between atoms: C_15  and  C_16
REMARK                            x       y       z     vdW  Elec       q    Type
REMARK                         _______ _______ _______ _____ _____    ______ ____
ROOT
ATOM      1  C   UNL     1       2.718   1.707  18.724  0.00  0.00    +0.000 C 
ATOM      2  C   UNL     1       2.597   3.198  18.807  0.00  0.00    +0.000 A 
ATOM      3  C   UNL     1       1.708   3.793  19.690  0.00  0.00    +0.000 A 
ATOM      4  C   UNL     1       1.612   5.182  19.742  0.00  0.00    +0.000 A 
ATOM      5  C   UNL     1       2.421   6.028  18.936  0.00  0.00    +0.000 A 
ATOM      6  C   UNL     1       2.409   7.444  18.910  0.00  0.00    +0.000 A 
ATOM      7  N   UNL     1       1.679   8.246  19.763  0.00  0.00    +0.000 N 
ATOM      8  C   UNL     1       1.348   7.928  21.156  0.00  0.00    +0.000 C 
ATOM      9  C   UNL     1       1.391   9.184  22.049  0.00  0.00    +0.000 C 
ATOM     10  N   UNL     1       0.639  10.292  21.458  0.00  0.00    +0.000 N 
ATOM     11  C   UNL     1      -0.316  10.955  22.211  0.00  0.00    +0.000 C 
ATOM     12  O   UNL     1      -0.500  10.681  23.402  0.00  0.00    +0.000 OA
ATOM     13  C   UNL     1       1.067  10.624  20.092  0.00  0.00    +0.000 C 
ATOM     14  C   UNL     1       0.970   9.393  19.172  0.00  0.00    +0.000 C 
ATOM     15  N   UNL     1       3.159   8.121  18.014  0.00  0.00    +0.000 NA
ATOM     16  C   UNL     1       3.944   7.417  17.196  0.00  0.00    +0.000 A 
ATOM     17  N   UNL     1       4.063   6.090  17.168  0.00  0.00    +0.000 NA
ATOM     18  C   UNL     1       3.300   5.410  18.027  0.00  0.00    +0.000 A 
ATOM     19  C   UNL     1       3.379   4.021  17.986  0.00  0.00    +0.000 A 
ENDROOT
BRANCH  11  20
ATOM     20  C   UNL     1      -1.116  12.102  21.539  0.00  0.00    +0.000 C 
BRANCH  20  21
ATOM     21  N   UNL     1      -0.168  13.200  21.234  0.00  0.00    +0.000 NA
ATOM     22  H   UNL     1      -0.549  14.063  21.631  0.00  0.00    +0.000 HD
ATOM     23  H   UNL     1      -0.130  13.351  20.228  0.00  0.00    +0.000 HD
ENDBRANCH  20  21
BRANCH  20  24
ATOM     24  C   UNL     1      -2.267  12.591  22.447  0.00  0.00    +0.000 C 
BRANCH  24  25
ATOM     25  C   UNL     1      -3.607  12.629  21.744  0.00  0.00    +0.000 A 
ATOM     26  C   UNL     1      -3.654  12.609  20.343  0.00  0.00    +0.000 A 
ATOM     27  C   UNL     1      -4.872  12.728  19.671  0.00  0.00    +0.000 A 
ATOM     28  C   UNL     1      -6.051  12.866  20.398  0.00  0.00    +0.000 A 
ATOM     29 CL   UNL     1      -7.546  13.066  19.571  0.00  0.00    +0.000 Cl
ATOM     30  C   UNL     1      -6.025  12.853  21.790  0.00  0.00    +0.000 A 
ATOM     31  C   UNL     1      -4.807  12.724  22.463  0.00  0.00    +0.000 A 
ENDBRANCH  24  25
ENDBRANCH  20  24
ENDBRANCH  11  20
TORSDOF 4
ENDMDL
MODEL 8
REMARK VINA RESULT:      -7.2      2.946      4.226
REMARK  Name = 
REMARK  5 active torsions:
REMARK  status: ('A' for Active; 'I' for Inactive)
REMARK    1  A    between atoms: C_1  and  C_2
REMARK    2  A    between atoms: C_11  and  C_13
REMARK    3  A    between atoms: C_13  and  N_14
REMARK    4  A    between atoms: C_13  and  C_15
REMARK    5  A    between atoms: C_15  and  C_16
REMARK                            x       y       z     vdW  Elec       q    Type
REMARK                         _______ _______ _______ _____ _____    ______ ____
ROOT
ATOM      1  C   UNL     1       6.847   4.570  14.630  0.00  0.00    +0.000 C 
ATOM      2  C   UNL     1       5.794   5.018  15.597  0.00  0.00    +0.000 A 
ATOM      3  C   UNL     1       5.574   6.366  15.838  0.00  0.00    +0.000 A 
ATOM      4  C   UNL     1       4.591   6.755  16.747  0.00  0.00    +0.000 A 
ATOM      5  C   UNL     1       3.772   5.812  17.425  0.00  0.00    +0.000 A 
ATOM      6  C   UNL     1       2.748   6.092  18.362  0.00  0.00    +0.000 A 
ATOM      7  N   UNL     1       2.293   7.355  18.684  0.00  0.00    +0.000 N 
ATOM      8  C   UNL     1       2.243   8.501  17.769  0.00  0.00    +0.000 C 
ATOM      9  C   UNL     1       0.989   9.364  18.011  0.00  0.00    +0.000 C 
ATOM     10  N   UNL     1       0.817   9.680  19.430  0.00  0.00    +0.000 N 
ATOM     11  C   UNL     1       0.631  10.995  19.824  0.00  0.00    +0.000 C 
ATOM     12  O   UNL     1       0.531  11.908  18.997  0.00  0.00    +0.000 OA
ATOM     13  C   UNL     1       0.791   8.491  20.293  0.00  0.00    +0.000 C 
ATOM     14  C   UNL     1       2.067   7.650  20.108  0.00  0.00    +0.000 C 
ATOM     15  N   UNL     1       2.118   5.091  19.013  0.00  0.00    +0.000 NA
ATOM     16  C   UNL     1       2.457   3.837  18.708  0.00  0.00    +0.000 A 
ATOM     17  N   UNL     1       3.371   3.463  17.814  0.00  0.00    +0.000 NA
ATOM     18  C   UNL     1       4.023   4.447  17.190  0.00  0.00    +0.000 A 
ATOM     19  C   UNL     1       5.012   4.079  16.282  0.00  0.00    +0.000 A 
ENDROOT
BRANCH  11  20
ATOM     20  C   UNL     1       0.486  11.294  21.340  0.00  0.00    +0.000 C 
BRANCH  20  21
ATOM     21  N   UNL     1      -0.463  10.308  21.910  0.00  0.00    +0.000 NA
ATOM     22  H   UNL     1      -0.105  10.019  22.824  0.00  0.00    +0.000 HD
ATOM     23  H   UNL     1      -0.470   9.468  21.336  0.00  0.00    +0.000 HD
ENDBRANCH  20  21
BRANCH  20  24
ATOM     24  C   UNL     1       0.004  12.741  21.583  0.00  0.00    +0.000 C 
BRANCH  24  25
ATOM     25  C   UNL     1      -1.490  12.842  21.811  0.00  0.00    +0.000 A 
ATOM     26  C   UNL     1      -2.003  12.709  23.109  0.00  0.00    +0.000 A 
ATOM     27  C   UNL     1      -3.380  12.713  23.333  0.00  0.00    +0.000 A 
ATOM     28  C   UNL     1      -4.254  12.854  22.258  0.00  0.00    +0.000 A 
ATOM     29 CL   UNL     1      -5.952  12.805  22.527  0.00  0.00    +0.000 Cl
ATOM     30  C   UNL     1      -3.761  13.021  20.967  0.00  0.00    +0.000 A 
ATOM     31  C   UNL     1      -2.381  13.026  20.743  0.00  0.00    +0.000 A 
ENDBRANCH  24  25
ENDBRANCH  20  24
ENDBRANCH  11  20
TORSDOF 4
ENDMDL
MODEL 9
REMARK VINA RESULT:      -7.2      2.485      3.079
REMARK  Name = 
REMARK  5 active torsions:
REMARK  status: ('A' for Active; 'I' for Inactive)
REMARK    1  A    between atoms: C_1  and  C_2
REMARK    2  A    between atoms: C_11  and  C_13
REMARK    3  A    between atoms: C_13  and  N_14
REMARK    4  A    between atoms: C_13  and  C_15
REMARK    5  A    between atoms: C_15  and  C_16
REMARK                            x       y       z     vdW  Elec       q    Type
REMARK                         _______ _______ _______ _____ _____    ______ ____
ROOT
ATOM      1  C   UNL     1       2.255   1.656  19.565  0.00  0.00    +0.000 C 
ATOM      2  C   UNL     1       2.234   3.153  19.498  0.00  0.00    +0.000 A 
ATOM      3  C   UNL     1       1.350   3.889  20.273  0.00  0.00    +0.000 A 
ATOM      4  C   UNL     1       1.348   5.280  20.186  0.00  0.00    +0.000 A 
ATOM      5  C   UNL     1       2.249   5.987  19.345  0.00  0.00    +0.000 A 
ATOM      6  C   UNL     1       2.337   7.391  19.181  0.00  0.00    +0.000 A 
ATOM      7  N   UNL     1       1.626   8.320  19.914  0.00  0.00    +0.000 N 
ATOM      8  C   UNL     1       1.213   8.164  21.313  0.00  0.00    +0.000 C 
ATOM      9  C   UNL     1       1.303   9.498  22.082  0.00  0.00    +0.000 C 
ATOM     10  N   UNL     1       0.657  10.588  21.348  0.00  0.00    +0.000 N 
ATOM     11  C   UNL     1      -0.282  11.383  21.985  0.00  0.00    +0.000 C 
ATOM     12  O   UNL     1      -0.538  11.241  23.186  0.00  0.00    +0.000 OA
ATOM     13  C   UNL     1       1.167  10.753  19.981  0.00  0.00    +0.000 C 
ATOM     14  C   UNL     1       1.026   9.446  19.180  0.00  0.00    +0.000 C 
ATOM     15  N   UNL     1       3.171   7.926  18.263  0.00  0.00    +0.000 NA
ATOM     16  C   UNL     1       3.941   7.094  17.558  0.00  0.00    +0.000 A 
ATOM     17  N   UNL     1       3.969   5.767  17.665  0.00  0.00    +0.000 NA
ATOM     18  C   UNL     1       3.123   5.227  18.545  0.00  0.00    +0.000 A 
ATOM     19  C   UNL     1       3.107   3.838  18.643  0.00  0.00    +0.000 A 
ENDROOT
BRANCH  11  20
ATOM     20  C   UNL     1      -0.971  12.506  21.165  0.00  0.00    +0.000 C 
BRANCH  20  21
ATOM     21  N   UNL     1       0.076  13.466  20.740  0.00  0.00    +0.000 NA
ATOM     22  H   UNL     1       0.031  14.277  21.362  0.00  0.00    +0.000 HD
ATOM     23  H   UNL     1      -0.140  13.818  19.809  0.00  0.00    +0.000 HD
ENDBRANCH  20  21
BRANCH  20  24
ATOM     24  C   UNL     1      -2.072  13.209  21.990  0.00  0.00    +0.000 C 
BRANCH  24  25
ATOM     25  C   UNL     1      -3.469  12.945  21.469  0.00  0.00    +0.000 A 
ATOM     26  C   UNL     1      -4.543  12.885  22.367  0.00  0.00    +0.000 A 
ATOM     27  C   UNL     1      -5.825  12.560  21.922  0.00  0.00    +0.000 A 
ATOM     28  C   UNL     1      -6.041  12.293  20.573  0.00  0.00    +0.000 A 
ATOM     29 CL   UNL     1      -7.609  11.839  20.032  0.00  0.00    +0.000 Cl
ATOM     30  C   UNL     1      -4.991  12.381  19.662  0.00  0.00    +0.000 A 
ATOM     31  C   UNL     1      -3.709  12.716  20.106  0.00  0.00    +0.000 A 
ENDBRANCH  24  25
ENDBRANCH  20  24
ENDBRANCH  11  20
TORSDOF 4
ENDMDL
