MODEL 1
REMARK VINA RESULT:      -8.5      0.000      0.000
REMARK  Name = 
REMARK  4 active torsions:
REMARK  status: ('A' for Active; 'I' for Inactive)
REMARK    1  A    between atoms: C_1  and  C_2
REMARK    2  A    between atoms: N_5  and  N_6
REMARK    3  A    between atoms: C_7  and  C_9
REMARK    4  A    between atoms: N_22  and  C_23
REMARK                            x       y       z     vdW  Elec       q    Type
REMARK                         _______ _______ _______ _____ _____    ______ ____
ROOT
ATOM      1  C   UNL     1       1.013   3.693  20.010  0.00  0.00    +0.000 C 
ATOM      2  C   UNL     1       2.521   3.709  19.734  0.00  0.00    +0.000 C 
ATOM      3  C   UNL     1       3.210   4.861  20.463  0.00  0.00    +0.000 C 
ATOM      4  C   UNL     1       2.550   6.171  20.042  0.00  0.00    +0.000 C 
ATOM      5  N   UNL     1       1.724   6.794  20.985  0.00  0.00    +0.000 N 
ATOM      6  N   UNL     1       2.737   6.668  18.868  0.00  0.00    +0.000 NA
ATOM      7  C   UNL     1       3.567   6.004  17.908  0.00  0.00    +0.000 A 
ATOM      8  C   UNL     1       4.357   6.862  17.133  0.00  0.00    +0.000 A 
ATOM      9  C   UNL     1       5.195   6.385  16.125  0.00  0.00    +0.000 A 
ATOM     10  C   UNL     1       5.267   5.025  15.884  0.00  0.00    +0.000 A 
ATOM     11  C   UNL     1       4.478   4.153  16.635  0.00  0.00    +0.000 A 
ATOM     12  C   UNL     1       3.583   4.603  17.636  0.00  0.00    +0.000 A 
ATOM     13  N   UNL     1       2.771   3.672  18.284  0.00  0.00    +0.000 N 
ATOM     14  C   UNL     1       2.268   2.517  17.540  0.00  0.00    +0.000 C 
ATOM     15  H   UNL     1       0.971   6.255  21.412  0.00  0.00    +0.000 HD
ENDROOT
BRANCH   5  16
ATOM     16  N   UNL     1       1.516   8.189  20.955  0.00  0.00    +0.000 N 
ATOM     17  C   UNL     1       0.261   8.634  21.389  0.00  0.00    +0.000 C 
ATOM     18  O   UNL     1      -0.654   7.894  21.726  0.00  0.00    +0.000 OA
ATOM     19  H   UNL     1       2.320   8.763  21.180  0.00  0.00    +0.000 HD
BRANCH  17  20
ATOM     20  C   UNL     1       0.111  10.125  21.449  0.00  0.00    +0.000 A 
ATOM     21  C   UNL     1       0.798  10.959  20.553  0.00  0.00    +0.000 A 
ATOM     22  C   UNL     1       0.711  12.349  20.673  0.00  0.00    +0.000 A 
ATOM     23  C   UNL     1      -0.077  12.916  21.675  0.00  0.00    +0.000 A 
ATOM     24  C   UNL     1      -0.805  12.095  22.536  0.00  0.00    +0.000 A 
ATOM     25  C   UNL     1      -0.720  10.701  22.420  0.00  0.00    +0.000 A 
ENDBRANCH  17  20
ENDBRANCH   5  16
TORSDOF 2
ENDMDL
MODEL 2
REMARK VINA RESULT:      -8.5      0.073      1.011
REMARK  Name = 
REMARK  4 active torsions:
REMARK  status: ('A' for Active; 'I' for Inactive)
REMARK    1  A    between atoms: C_1  and  C_2
REMARK    2  A    between atoms: N_5  and  N_6
REMARK    3  A    between atoms: C_7  and  C_9
REMARK    4  A    between atoms: N_22  and  C_23
REMARK                            x       y       z     vdW  Elec       q    Type
REMARK                         _______ _______ _______ _____ _____    ______ ____
ROOT
ATOM      1  C   UNL     1       0.974   3.727  19.970  0.00  0.00    +0.000 C 
ATOM      2  C   UNL     1       2.486   3.731  19.711  0.00  0.00    +0.000 C 
ATOM      3  C   UNL     1       3.179   4.862  20.468  0.00  0.00    +0.000 C 
ATOM      4  C   UNL     1       2.538   6.187  20.063  0.00  0.00    +0.000 C 
ATOM      5  N   UNL     1       1.708   6.802  21.007  0.00  0.00    +0.000 N 
ATOM      6  N   UNL     1       2.745   6.702  18.900  0.00  0.00    +0.000 NA
ATOM      7  C   UNL     1       3.578   6.046  17.938  0.00  0.00    +0.000 A 
ATOM      8  C   UNL     1       4.387   6.908  17.188  0.00  0.00    +0.000 A 
ATOM      9  C   UNL     1       5.232   6.440  16.182  0.00  0.00    +0.000 A 
ATOM     10  C   UNL     1       5.292   5.083  15.917  0.00  0.00    +0.000 A 
ATOM     11  C   UNL     1       4.485   4.208  16.644  0.00  0.00    +0.000 A 
ATOM     12  C   UNL     1       3.582   4.650  17.643  0.00  0.00    +0.000 A 
ATOM     13  N   UNL     1       2.753   3.716  18.264  0.00  0.00    +0.000 N 
ATOM     14  C   UNL     1       2.246   2.580  17.494  0.00  0.00    +0.000 C 
ATOM     15  H   UNL     1       0.944   6.264  21.416  0.00  0.00    +0.000 HD
ENDROOT
BRANCH   5  16
ATOM     16  N   UNL     1       1.515   8.200  21.000  0.00  0.00    +0.000 N 
ATOM     17  C   UNL     1       0.268   8.652  21.449  0.00  0.00    +0.000 C 
ATOM     18  O   UNL     1      -0.653   7.918  21.782  0.00  0.00    +0.000 OA
ATOM     19  H   UNL     1       2.327   8.762  21.227  0.00  0.00    +0.000 HD
BRANCH  17  20
ATOM     20  C   UNL     1       0.135  10.144  21.532  0.00  0.00    +0.000 A 
ATOM     21  C   UNL     1      -0.663  10.746  22.517  0.00  0.00    +0.000 A 
ATOM     22  C   UNL     1      -0.841  12.132  22.531  0.00  0.00    +0.000 A 
ATOM     23  C   UNL     1      -0.208  12.929  21.576  0.00  0.00    +0.000 A 
ATOM     24  C   UNL     1       0.629  12.343  20.626  0.00  0.00    +0.000 A 
ATOM     25  C   UNL     1       0.809  10.954  20.608  0.00  0.00    +0.000 A 
ENDBRANCH  17  20
ENDBRANCH   5  16
TORSDOF 2
ENDMDL
MODEL 3
REMARK VINA RESULT:      -7.8      0.862      1.077
REMARK  Name = 
REMARK  4 active torsions:
REMARK  status: ('A' for Active; 'I' for Inactive)
REMARK    1  A    between atoms: C_1  and  C_2
REMARK    2  A    between atoms: N_5  and  N_6
REMARK    3  A    between atoms: C_7  and  C_9
REMARK    4  A    between atoms: N_22  and  C_23
REMARK                            x       y       z     vdW  Elec       q    Type
REMARK                         _______ _______ _______ _____ _____    ______ ____
ROOT
ATOM      1  C   UNL     1       1.120   3.851  20.057  0.00  0.00    +0.000 C 
ATOM      2  C   UNL     1       2.634   3.877  19.811  0.00  0.00    +0.000 C 
ATOM      3  C   UNL     1       3.263   5.165  20.339  0.00  0.00    +0.000 C 
ATOM      4  C   UNL     1       2.568   6.355  19.683  0.00  0.00    +0.000 C 
ATOM      5  N   UNL     1       1.697   7.100  20.486  0.00  0.00    +0.000 N 
ATOM      6  N   UNL     1       2.767   6.646  18.444  0.00  0.00    +0.000 NA
ATOM      7  C   UNL     1       3.644   5.858  17.631  0.00  0.00    +0.000 A 
ATOM      8  C   UNL     1       4.424   6.597  16.733  0.00  0.00    +0.000 A 
ATOM      9  C   UNL     1       5.303   5.985  15.840  0.00  0.00    +0.000 A 
ATOM     10  C   UNL     1       5.429   4.607  15.843  0.00  0.00    +0.000 A 
ATOM     11  C   UNL     1       4.652   3.850  16.720  0.00  0.00    +0.000 A 
ATOM     12  C   UNL     1       3.716   4.433  17.610  0.00  0.00    +0.000 A 
ATOM     13  N   UNL     1       2.922   3.598  18.395  0.00  0.00    +0.000 N 
ATOM     14  C   UNL     1       2.478   2.311  17.856  0.00  0.00    +0.000 C 
ATOM     15  H   UNL     1       0.952   6.615  20.986  0.00  0.00    +0.000 HD
ENDROOT
BRANCH   5  16
ATOM     16  N   UNL     1       1.440   8.460  20.208  0.00  0.00    +0.000 N 
ATOM     17  C   UNL     1       0.315   9.014  20.830  0.00  0.00    +0.000 C 
ATOM     18  O   UNL     1      -0.465   8.384  21.533  0.00  0.00    +0.000 OA
ATOM     19  H   UNL     1       2.255   9.052  20.099  0.00  0.00    +0.000 HD
BRANCH  17  20
ATOM     20  C   UNL     1       0.133  10.485  20.602  0.00  0.00    +0.000 A 
ATOM     21  C   UNL     1      -0.959  10.975  19.869  0.00  0.00    +0.000 A 
ATOM     22  C   UNL     1      -1.070  12.342  19.596  0.00  0.00    +0.000 A 
ATOM     23  C   UNL     1      -0.105  13.230  20.069  0.00  0.00    +0.000 A 
ATOM     24  C   UNL     1       0.956  12.758  20.842  0.00  0.00    +0.000 A 
ATOM     25  C   UNL     1       1.072  11.389  21.117  0.00  0.00    +0.000 A 
ENDBRANCH  17  20
ENDBRANCH   5  16
TORSDOF 2
ENDMDL
MODEL 4
REMARK VINA RESULT:      -7.8      0.840      1.001
REMARK  Name = 
REMARK  4 active torsions:
REMARK  status: ('A' for Active; 'I' for Inactive)
REMARK    1  A    between atoms: C_1  and  C_2
REMARK    2  A    between atoms: N_5  and  N_6
REMARK    3  A    between atoms: C_7  and  C_9
REMARK    4  A    between atoms: N_22  and  C_23
REMARK                            x       y       z     vdW  Elec       q    Type
REMARK                         _______ _______ _______ _____ _____    ______ ____
ROOT
ATOM      1  C   UNL     1       1.095   3.862  20.088  0.00  0.00    +0.000 C 
ATOM      2  C   UNL     1       2.609   3.878  19.840  0.00  0.00    +0.000 C 
ATOM      3  C   UNL     1       3.247   5.164  20.361  0.00  0.00    +0.000 C 
ATOM      4  C   UNL     1       2.559   6.355  19.700  0.00  0.00    +0.000 C 
ATOM      5  N   UNL     1       1.694   7.110  20.501  0.00  0.00    +0.000 N 
ATOM      6  N   UNL     1       2.758   6.639  18.460  0.00  0.00    +0.000 NA
ATOM      7  C   UNL     1       3.629   5.842  17.649  0.00  0.00    +0.000 A 
ATOM      8  C   UNL     1       4.411   6.572  16.746  0.00  0.00    +0.000 A 
ATOM      9  C   UNL     1       5.285   5.950  15.855  0.00  0.00    +0.000 A 
ATOM     10  C   UNL     1       5.402   4.572  15.863  0.00  0.00    +0.000 A 
ATOM     11  C   UNL     1       4.622   3.824  16.746  0.00  0.00    +0.000 A 
ATOM     12  C   UNL     1       3.691   4.416  17.634  0.00  0.00    +0.000 A 
ATOM     13  N   UNL     1       2.893   3.590  18.425  0.00  0.00    +0.000 N 
ATOM     14  C   UNL     1       2.440   2.304  17.892  0.00  0.00    +0.000 C 
ATOM     15  H   UNL     1       0.947   6.631  21.006  0.00  0.00    +0.000 HD
ENDROOT
BRANCH   5  16
ATOM     16  N   UNL     1       1.446   8.469  20.218  0.00  0.00    +0.000 N 
ATOM     17  C   UNL     1       0.306   9.024  20.813  0.00  0.00    +0.000 C 
ATOM     18  O   UNL     1      -0.491   8.395  21.496  0.00  0.00    +0.000 OA
ATOM     19  H   UNL     1       2.264   9.061  20.129  0.00  0.00    +0.000 HD
BRANCH  17  20
ATOM     20  C   UNL     1       0.132  10.496  20.581  0.00  0.00    +0.000 A 
ATOM     21  C   UNL     1       1.021  11.428  21.139  0.00  0.00    +0.000 A 
ATOM     22  C   UNL     1       0.798  12.798  20.981  0.00  0.00    +0.000 A 
ATOM     23  C   UNL     1      -0.300  13.249  20.248  0.00  0.00    +0.000 A 
ATOM     24  C   UNL     1      -1.159  12.329  19.646  0.00  0.00    +0.000 A 
ATOM     25  C   UNL     1      -0.940  10.954  19.803  0.00  0.00    +0.000 A 
ENDBRANCH  17  20
ENDBRANCH   5  16
TORSDOF 2
ENDMDL
MODEL 5
REMARK VINA RESULT:      -7.8      1.697      3.437
REMARK  Name = 
REMARK  4 active torsions:
REMARK  status: ('A' for Active; 'I' for Inactive)
REMARK    1  A    between atoms: C_1  and  C_2
REMARK    2  A    between atoms: N_5  and  N_6
REMARK    3  A    between atoms: C_7  and  C_9
REMARK    4  A    between atoms: N_22  and  C_23
REMARK                            x       y       z     vdW  Elec       q    Type
REMARK                         _______ _______ _______ _____ _____    ______ ____
ROOT
ATOM      1  C   UNL     1       4.709   7.022  17.449  0.00  0.00    +0.000 C 
ATOM      2  C   UNL     1       3.851   5.750  17.485  0.00  0.00    +0.000 C 
ATOM      3  C   UNL     1       2.384   6.074  17.759  0.00  0.00    +0.000 C 
ATOM      4  C   UNL     1       2.290   6.850  19.070  0.00  0.00    +0.000 C 
ATOM      5  N   UNL     1       2.004   8.217  18.977  0.00  0.00    +0.000 N 
ATOM      6  N   UNL     1       2.479   6.271  20.205  0.00  0.00    +0.000 NA
ATOM      7  C   UNL     1       2.794   4.876  20.280  0.00  0.00    +0.000 A 
ATOM      8  C   UNL     1       2.183   4.200  21.344  0.00  0.00    +0.000 A 
ATOM      9  C   UNL     1       2.411   2.846  21.587  0.00  0.00    +0.000 A 
ATOM     10  C   UNL     1       3.252   2.134  20.750  0.00  0.00    +0.000 A 
ATOM     11  C   UNL     1       3.881   2.791  19.692  0.00  0.00    +0.000 A 
ATOM     12  C   UNL     1       3.709   4.174  19.440  0.00  0.00    +0.000 A 
ATOM     13  N   UNL     1       4.439   4.769  18.411  0.00  0.00    +0.000 N 
ATOM     14  C   UNL     1       5.794   4.297  18.125  0.00  0.00    +0.000 C 
ATOM     15  H   UNL     1       2.586   8.801  18.376  0.00  0.00    +0.000 HD
ENDROOT
BRANCH   5  16
ATOM     16  N   UNL     1       1.370   8.899  20.036  0.00  0.00    +0.000 N 
ATOM     17  C   UNL     1       0.450   9.889  19.670  0.00  0.00    +0.000 C 
ATOM     18  O   UNL     1       0.219  10.222  18.514  0.00  0.00    +0.000 OA
ATOM     19  H   UNL     1       1.159   8.344  20.858  0.00  0.00    +0.000 HD
BRANCH  17  20
ATOM     20  C   UNL     1      -0.286  10.516  20.816  0.00  0.00    +0.000 A 
ATOM     21  C   UNL     1      -0.220   9.968  22.106  0.00  0.00    +0.000 A 
ATOM     22  C   UNL     1      -0.976  10.517  23.146  0.00  0.00    +0.000 A 
ATOM     23  C   UNL     1      -1.786  11.628  22.911  0.00  0.00    +0.000 A 
ATOM     24  C   UNL     1      -1.817  12.211  21.644  0.00  0.00    +0.000 A 
ATOM     25  C   UNL     1      -1.062  11.663  20.598  0.00  0.00    +0.000 A 
ENDBRANCH  17  20
ENDBRANCH   5  16
TORSDOF 2
ENDMDL
MODEL 6
REMARK VINA RESULT:      -7.8      1.673      3.379
REMARK  Name = 
REMARK  4 active torsions:
REMARK  status: ('A' for Active; 'I' for Inactive)
REMARK    1  A    between atoms: C_1  and  C_2
REMARK    2  A    between atoms: N_5  and  N_6
REMARK    3  A    between atoms: C_7  and  C_9
REMARK    4  A    between atoms: N_22  and  C_23
REMARK                            x       y       z     vdW  Elec       q    Type
REMARK                         _______ _______ _______ _____ _____    ______ ____
ROOT
ATOM      1  C   UNL     1       4.818   6.989  17.415  0.00  0.00    +0.000 C 
ATOM      2  C   UNL     1       3.949   5.726  17.445  0.00  0.00    +0.000 C 
ATOM      3  C   UNL     1       2.480   6.064  17.695  0.00  0.00    +0.000 C 
ATOM      4  C   UNL     1       2.374   6.849  19.000  0.00  0.00    +0.000 C 
ATOM      5  N   UNL     1       2.102   8.218  18.894  0.00  0.00    +0.000 N 
ATOM      6  N   UNL     1       2.540   6.274  20.141  0.00  0.00    +0.000 NA
ATOM      7  C   UNL     1       2.841   4.877  20.229  0.00  0.00    +0.000 A 
ATOM      8  C   UNL     1       2.208   4.213  21.287  0.00  0.00    +0.000 A 
ATOM      9  C   UNL     1       2.420   2.858  21.541  0.00  0.00    +0.000 A 
ATOM     10  C   UNL     1       3.267   2.134  20.721  0.00  0.00    +0.000 A 
ATOM     11  C   UNL     1       3.918   2.779  19.668  0.00  0.00    +0.000 A 
ATOM     12  C   UNL     1       3.763   4.162  19.406  0.00  0.00    +0.000 A 
ATOM     13  N   UNL     1       4.513   4.744  18.385  0.00  0.00    +0.000 N 
ATOM     14  C   UNL     1       5.868   4.258  18.122  0.00  0.00    +0.000 C 
ATOM     15  H   UNL     1       2.699   8.793  18.299  0.00  0.00    +0.000 HD
ENDROOT
BRANCH   5  16
ATOM     16  N   UNL     1       1.458   8.911  19.940  0.00  0.00    +0.000 N 
ATOM     17  C   UNL     1       0.434   9.787  19.560  0.00  0.00    +0.000 C 
ATOM     18  O   UNL     1       0.118  10.017  18.400  0.00  0.00    +0.000 OA
ATOM     19  H   UNL     1       1.339   8.397  20.806  0.00  0.00    +0.000 HD
BRANCH  17  20
ATOM     20  C   UNL     1      -0.302  10.423  20.701  0.00  0.00    +0.000 A 
ATOM     21  C   UNL     1      -1.093  11.567  20.506  0.00  0.00    +0.000 A 
ATOM     22  C   UNL     1      -1.707  12.195  21.593  0.00  0.00    +0.000 A 
ATOM     23  C   UNL     1      -1.553  11.676  22.879  0.00  0.00    +0.000 A 
ATOM     24  C   UNL     1      -0.813  10.510  23.075  0.00  0.00    +0.000 A 
ATOM     25  C   UNL     1      -0.195   9.878  21.988  0.00  0.00    +0.000 A 
ENDBRANCH  17  20
ENDBRANCH   5  16
TORSDOF 2
ENDMDL
MODEL 7
REMARK VINA RESULT:      -7.6      1.960      7.583
REMARK  Name = 
REMARK  4 active torsions:
REMARK  status: ('A' for Active; 'I' for Inactive)
REMARK    1  A    between atoms: C_1  and  C_2
REMARK    2  A    between atoms: N_5  and  N_6
REMARK    3  A    between atoms: C_7  and  C_9
REMARK    4  A    between atoms: N_22  and  C_23
REMARK                            x       y       z     vdW  Elec       q    Type
REMARK                         _______ _______ _______ _____ _____    ______ ____
ROOT
ATOM      1  C   UNL     1       0.774   9.473  23.403  0.00  0.00    +0.000 C 
ATOM      2  C   UNL     1      -0.512   9.448  22.567  0.00  0.00    +0.000 C 
ATOM      3  C   UNL     1      -0.501   8.301  21.558  0.00  0.00    +0.000 C 
ATOM      4  C   UNL     1       0.738   8.437  20.677  0.00  0.00    +0.000 C 
ATOM      5  N   UNL     1       1.775   7.523  20.899  0.00  0.00    +0.000 N 
ATOM      6  N   UNL     1       0.824   9.360  19.782  0.00  0.00    +0.000 NA
ATOM      7  C   UNL     1      -0.237  10.301  19.585  0.00  0.00    +0.000 A 
ATOM      8  C   UNL     1      -0.478  10.632  18.246  0.00  0.00    +0.000 A 
ATOM      9  C   UNL     1      -1.450  11.562  17.878  0.00  0.00    +0.000 A 
ATOM     10  C   UNL     1      -2.217  12.171  18.856  0.00  0.00    +0.000 A 
ATOM     11  C   UNL     1      -1.985  11.865  20.197  0.00  0.00    +0.000 A 
ATOM     12  C   UNL     1      -0.977  10.960  20.612  0.00  0.00    +0.000 A 
ATOM     13  N   UNL     1      -0.758  10.773  21.977  0.00  0.00    +0.000 N 
ATOM     14  C   UNL     1      -0.930  11.901  22.893  0.00  0.00    +0.000 C 
ATOM     15  H   UNL     1       2.145   7.419  21.843  0.00  0.00    +0.000 HD
ENDROOT
BRANCH   5  16
ATOM     16  N   UNL     1       2.674   7.184  19.866  0.00  0.00    +0.000 N 
ATOM     17  C   UNL     1       2.522   5.906  19.312  0.00  0.00    +0.000 C 
ATOM     18  O   UNL     1       1.713   5.076  19.705  0.00  0.00    +0.000 OA
ATOM     19  H   UNL     1       2.938   7.937  19.241  0.00  0.00    +0.000 HD
BRANCH  17  20
ATOM     20  C   UNL     1       3.419   5.618  18.145  0.00  0.00    +0.000 A 
ATOM     21  C   UNL     1       3.589   4.309  17.668  0.00  0.00    +0.000 A 
ATOM     22  C   UNL     1       4.490   4.047  16.632  0.00  0.00    +0.000 A 
ATOM     23  C   UNL     1       5.212   5.090  16.052  0.00  0.00    +0.000 A 
ATOM     24  C   UNL     1       5.011   6.401  16.485  0.00  0.00    +0.000 A 
ATOM     25  C   UNL     1       4.109   6.668  17.524  0.00  0.00    +0.000 A 
ENDBRANCH  17  20
ENDBRANCH   5  16
TORSDOF 2
ENDMDL
MODEL 8
REMARK VINA RESULT:      -7.6      1.948      7.542
REMARK  Name = 
REMARK  4 active torsions:
REMARK  status: ('A' for Active; 'I' for Inactive)
REMARK    1  A    between atoms: C_1  and  C_2
REMARK    2  A    between atoms: N_5  and  N_6
REMARK    3  A    between atoms: C_7  and  C_9
REMARK    4  A    between atoms: N_22  and  C_23
REMARK                            x       y       z     vdW  Elec       q    Type
REMARK                         _______ _______ _______ _____ _____    ______ ____
ROOT
ATOM      1  C   UNL     1       0.690   9.410  23.447  0.00  0.00    +0.000 C 
ATOM      2  C   UNL     1      -0.568   9.398  22.568  0.00  0.00    +0.000 C 
ATOM      3  C   UNL     1      -0.525   8.263  21.547  0.00  0.00    +0.000 C 
ATOM      4  C   UNL     1       0.742   8.406  20.709  0.00  0.00    +0.000 C 
ATOM      5  N   UNL     1       1.769   7.487  20.954  0.00  0.00    +0.000 N 
ATOM      6  N   UNL     1       0.860   9.339  19.828  0.00  0.00    +0.000 NA
ATOM      7  C   UNL     1      -0.192  10.285  19.607  0.00  0.00    +0.000 A 
ATOM      8  C   UNL     1      -0.387  10.632  18.265  0.00  0.00    +0.000 A 
ATOM      9  C   UNL     1      -1.344  11.569  17.876  0.00  0.00    +0.000 A 
ATOM     10  C   UNL     1      -2.141  12.169  18.834  0.00  0.00    +0.000 A 
ATOM     11  C   UNL     1      -1.955  11.847  20.179  0.00  0.00    +0.000 A 
ATOM     12  C   UNL     1      -0.964  10.935  20.616  0.00  0.00    +0.000 A 
ATOM     13  N   UNL     1      -0.790  10.731  21.985  0.00  0.00    +0.000 N 
ATOM     14  C   UNL     1      -0.990  11.849  22.909  0.00  0.00    +0.000 C 
ATOM     15  H   UNL     1       2.107   7.371  21.909  0.00  0.00    +0.000 HD
ENDROOT
BRANCH   5  16
ATOM     16  N   UNL     1       2.701   7.157  19.947  0.00  0.00    +0.000 N 
ATOM     17  C   UNL     1       2.556   5.892  19.364  0.00  0.00    +0.000 C 
ATOM     18  O   UNL     1       1.724   5.064  19.711  0.00  0.00    +0.000 OA
ATOM     19  H   UNL     1       2.996   7.919  19.348  0.00  0.00    +0.000 HD
BRANCH  17  20
ATOM     20  C   UNL     1       3.491   5.617  18.225  0.00  0.00    +0.000 A 
ATOM     21  C   UNL     1       4.147   6.662  17.556  0.00  0.00    +0.000 A 
ATOM     22  C   UNL     1       4.952   6.395  16.445  0.00  0.00    +0.000 A 
ATOM     23  C   UNL     1       5.125   5.082  16.006  0.00  0.00    +0.000 A 
ATOM     24  C   UNL     1       4.520   4.032  16.697  0.00  0.00    +0.000 A 
ATOM     25  C   UNL     1       3.711   4.296  17.810  0.00  0.00    +0.000 A 
ENDBRANCH  17  20
ENDBRANCH   5  16
TORSDOF 2
ENDMDL
MODEL 9
REMARK VINA RESULT:      -7.6      3.868      9.173
REMARK  Name = 
REMARK  4 active torsions:
REMARK  status: ('A' for Active; 'I' for Inactive)
REMARK    1  A    between atoms: C_1  and  C_2
REMARK    2  A    between atoms: N_5  and  N_6
REMARK    3  A    between atoms: C_7  and  C_9
REMARK    4  A    between atoms: N_22  and  C_23
REMARK                            x       y       z     vdW  Elec       q    Type
REMARK                         _______ _______ _______ _____ _____    ______ ____
ROOT
ATOM      1  C   UNL     1       3.967   7.575  17.806  0.00  0.00    +0.000 C 
ATOM      2  C   UNL     1       4.098   6.468  18.860  0.00  0.00    +0.000 C 
ATOM      3  C   UNL     1       5.033   5.356  18.388  0.00  0.00    +0.000 C 
ATOM      4  C   UNL     1       4.513   4.808  17.062  0.00  0.00    +0.000 C 
ATOM      5  N   UNL     1       5.233   5.149  15.911  0.00  0.00    +0.000 N 
ATOM      6  N   UNL     1       3.453   4.078  17.010  0.00  0.00    +0.000 NA
ATOM      7  C   UNL     1       2.716   3.758  18.195  0.00  0.00    +0.000 A 
ATOM      8  C   UNL     1       2.215   2.451  18.232  0.00  0.00    +0.000 A 
ATOM      9  C   UNL     1       1.442   1.986  19.296  0.00  0.00    +0.000 A 
ATOM     10  C   UNL     1       1.168   2.827  20.359  0.00  0.00    +0.000 A 
ATOM     11  C   UNL     1       1.646   4.137  20.337  0.00  0.00    +0.000 A 
ATOM     12  C   UNL     1       2.395   4.660  19.254  0.00  0.00    +0.000 A 
ATOM     13  N   UNL     1       2.765   6.004  19.275  0.00  0.00    +0.000 N 
ATOM     14  C   UNL     1       1.863   6.988  19.877  0.00  0.00    +0.000 C 
ATOM     15  H   UNL     1       5.422   6.134  15.724  0.00  0.00    +0.000 HD
ENDROOT
BRANCH   5  16
ATOM     16  N   UNL     1       5.212   4.318  14.772  0.00  0.00    +0.000 N 
ATOM     17  C   UNL     1       6.271   4.483  13.870  0.00  0.00    +0.000 C 
ATOM     18  O   UNL     1       7.153   5.324  13.987  0.00  0.00    +0.000 OA
ATOM     19  H   UNL     1       4.859   3.379  14.913  0.00  0.00    +0.000 HD
BRANCH  17  20
ATOM     20  C   UNL     1       6.278   3.511  12.727  0.00  0.00    +0.000 A 
ATOM     21  C   UNL     1       5.085   2.952  12.244  0.00  0.00    +0.000 A 
ATOM     22  C   UNL     1       5.116   1.987  11.233  0.00  0.00    +0.000 A 
ATOM     23  C   UNL     1       6.334   1.588  10.684  0.00  0.00    +0.000 A 
ATOM     24  C   UNL     1       7.521   2.177  11.122  0.00  0.00    +0.000 A 
ATOM     25  C   UNL     1       7.495   3.144  12.136  0.00  0.00    +0.000 A 
ENDBRANCH  17  20
ENDBRANCH   5  16
TORSDOF 2
ENDMDL
