MODEL 1
REMARK VINA RESULT:      -7.4      0.000      0.000
REMARK  Name = 
REMARK  3 active torsions:
REMARK  status: ('A' for Active; 'I' for Inactive)
REMARK    1  A    between atoms: C_1  and  C_2
REMARK    2  A    between atoms: N_7  and  C_8
REMARK    3  A    between atoms: C_11  and  O_12
REMARK                            x       y       z     vdW  Elec       q    Type
REMARK                         _______ _______ _______ _____ _____    ______ ____
ROOT
ATOM      1  C   UNL     1       7.230   5.047  13.542  0.00  0.00    +0.000 C 
ATOM      2  C   UNL     1       6.734   4.978  14.957  0.00  0.00    +0.000 A 
ATOM      3  C   UNL     1       5.628   4.276  15.260  0.00  0.00    +0.000 A 
ATOM      4  N   UNL     1       5.191   4.276  16.543  0.00  0.00    +0.000 N 
ATOM      5  C   UNL     1       4.114   3.658  17.116  0.00  0.00    +0.000 A 
ATOM      6  O   UNL     1       3.317   2.933  16.537  0.00  0.00    +0.000 OA
ATOM      7  N   UNL     1       4.160   4.046  18.483  0.00  0.00    +0.000 N 
ATOM      8  N   UNL     1       5.263   4.873  18.712  0.00  0.00    +0.000 NA
ATOM      9  C   UNL     1       5.803   4.955  17.531  0.00  0.00    +0.000 A 
ATOM     10  C   UNL     1       7.053   5.705  17.136  0.00  0.00    +0.000 A 
ATOM     11  N   UNL     1       7.760   6.382  18.095  0.00  0.00    +0.000 N 
ATOM     12  N   UNL     1       7.473   5.684  15.896  0.00  0.00    +0.000 NA
ATOM     13  H   UNL     1       7.622   6.073  19.051  0.00  0.00    +0.000 HD
ATOM     14  H   UNL     1       8.723   6.562  17.838  0.00  0.00    +0.000 HD
ENDROOT
BRANCH   7  15
ATOM     15  C   UNL     1       3.298   3.670  19.531  0.00  0.00    +0.000 A 
ATOM     16  C   UNL     1       2.012   4.220  19.643  0.00  0.00    +0.000 A 
ATOM     17  C   UNL     1       1.138   3.819  20.657  0.00  0.00    +0.000 A 
ATOM     18  C   UNL     1       1.556   2.872  21.581  0.00  0.00    +0.000 A 
ATOM     19  C   UNL     1       2.832   2.330  21.510  0.00  0.00    +0.000 A 
ATOM     20  C   UNL     1       3.701   2.726  20.486  0.00  0.00    +0.000 A 
BRANCH  18  21
ATOM     21  O   UNL     1       0.730   2.445  22.576  0.00  0.00    +0.000 OA
ATOM     22  H   UNL     1       0.545   1.501  22.436  0.00  0.00    +0.000 HD
ENDBRANCH  18  21
ENDBRANCH   7  15
TORSDOF 2
ENDMDL
MODEL 2
REMARK VINA RESULT:      -7.3      0.104      1.110
REMARK  Name = 
REMARK  3 active torsions:
REMARK  status: ('A' for Active; 'I' for Inactive)
REMARK    1  A    between atoms: C_1  and  C_2
REMARK    2  A    between atoms: N_7  and  C_8
REMARK    3  A    between atoms: C_11  and  O_12
REMARK                            x       y       z     vdW  Elec       q    Type
REMARK                         _______ _______ _______ _____ _____    ______ ____
ROOT
ATOM      1  C   UNL     1       7.313   5.025  13.543  0.00  0.00    +0.000 C 
ATOM      2  C   UNL     1       6.786   4.972  14.947  0.00  0.00    +0.000 A 
ATOM      3  C   UNL     1       5.717   4.214  15.247  0.00  0.00    +0.000 A 
ATOM      4  N   UNL     1       5.247   4.229  16.519  0.00  0.00    +0.000 N 
ATOM      5  C   UNL     1       4.195   3.565  17.087  0.00  0.00    +0.000 A 
ATOM      6  O   UNL     1       3.459   2.773  16.513  0.00  0.00    +0.000 OA
ATOM      7  N   UNL     1       4.181   4.000  18.439  0.00  0.00    +0.000 N 
ATOM      8  N   UNL     1       5.225   4.901  18.666  0.00  0.00    +0.000 NA
ATOM      9  C   UNL     1       5.790   4.976  17.497  0.00  0.00    +0.000 A 
ATOM     10  C   UNL     1       7.002   5.789  17.106  0.00  0.00    +0.000 A 
ATOM     11  N   UNL     1       7.641   6.540  18.058  0.00  0.00    +0.000 N 
ATOM     12  N   UNL     1       7.455   5.753  15.879  0.00  0.00    +0.000 NA
ATOM     13  H   UNL     1       7.497   6.255  19.021  0.00  0.00    +0.000 HD
ATOM     14  H   UNL     1       8.597   6.771  17.818  0.00  0.00    +0.000 HD
ENDROOT
BRANCH   7  15
ATOM     15  C   UNL     1       3.316   3.607  19.479  0.00  0.00    +0.000 A 
ATOM     16  C   UNL     1       3.716   2.658  20.432  0.00  0.00    +0.000 A 
ATOM     17  C   UNL     1       2.877   2.295  21.490  0.00  0.00    +0.000 A 
ATOM     18  C   UNL     1       1.619   2.871  21.589  0.00  0.00    +0.000 A 
ATOM     19  C   UNL     1       1.187   3.793  20.645  0.00  0.00    +0.000 A 
ATOM     20  C   UNL     1       2.034   4.163  19.594  0.00  0.00    +0.000 A 
BRANCH  18  21
ATOM     21  O   UNL     1       0.777   2.554  22.612  0.00  0.00    +0.000 OA
ATOM     22  H   UNL     1       1.005   3.106  23.379  0.00  0.00    +0.000 HD
ENDBRANCH  18  21
ENDBRANCH   7  15
TORSDOF 2
ENDMDL
MODEL 3
REMARK VINA RESULT:      -7.1      4.047      6.828
REMARK  Name = 
REMARK  3 active torsions:
REMARK  status: ('A' for Active; 'I' for Inactive)
REMARK    1  A    between atoms: C_1  and  C_2
REMARK    2  A    between atoms: N_7  and  C_8
REMARK    3  A    between atoms: C_11  and  O_12
REMARK                            x       y       z     vdW  Elec       q    Type
REMARK                         _______ _______ _______ _____ _____    ______ ____
ROOT
ATOM      1  C   UNL     1       0.000   9.298  22.384  0.00  0.00    +0.000 C 
ATOM      2  C   UNL     1       0.696   8.922  21.109  0.00  0.00    +0.000 A 
ATOM      3  C   UNL     1       1.368   7.762  21.014  0.00  0.00    +0.000 A 
ATOM      4  N   UNL     1       2.019   7.482  19.858  0.00  0.00    +0.000 N 
ATOM      5  C   UNL     1       2.764   6.393  19.498  0.00  0.00    +0.000 A 
ATOM      6  O   UNL     1       2.970   5.408  20.194  0.00  0.00    +0.000 OA
ATOM      7  N   UNL     1       3.208   6.680  18.178  0.00  0.00    +0.000 N 
ATOM      8  N   UNL     1       2.715   7.920  17.763  0.00  0.00    +0.000 NA
ATOM      9  C   UNL     1       2.037   8.314  18.801  0.00  0.00    +0.000 A 
ATOM     10  C   UNL     1       1.246   9.592  18.958  0.00  0.00    +0.000 A 
ATOM     11  N   UNL     1       1.177  10.471  17.909  0.00  0.00    +0.000 N 
ATOM     12  N   UNL     1       0.609   9.843  20.074  0.00  0.00    +0.000 NA
ATOM     13  H   UNL     1       1.355  10.082  16.990  0.00  0.00    +0.000 HD
ATOM     14  H   UNL     1       0.388  11.103  17.961  0.00  0.00    +0.000 HD
ENDROOT
BRANCH   7  15
ATOM     15  C   UNL     1       3.989   5.880  17.322  0.00  0.00    +0.000 A 
ATOM     16  C   UNL     1       4.918   6.456  16.442  0.00  0.00    +0.000 A 
ATOM     17  C   UNL     1       5.726   5.665  15.620  0.00  0.00    +0.000 A 
ATOM     18  C   UNL     1       5.594   4.284  15.663  0.00  0.00    +0.000 A 
ATOM     19  C   UNL     1       4.665   3.688  16.506  0.00  0.00    +0.000 A 
ATOM     20  C   UNL     1       3.866   4.483  17.335  0.00  0.00    +0.000 A 
BRANCH  18  21
ATOM     21  O   UNL     1       6.371   3.477  14.889  0.00  0.00    +0.000 OA
ATOM     22  H   UNL     1       6.811   4.026  14.218  0.00  0.00    +0.000 HD
ENDBRANCH  18  21
ENDBRANCH   7  15
TORSDOF 2
ENDMDL
MODEL 4
REMARK VINA RESULT:      -7.1      4.086      6.863
REMARK  Name = 
REMARK  3 active torsions:
REMARK  status: ('A' for Active; 'I' for Inactive)
REMARK    1  A    between atoms: C_1  and  C_2
REMARK    2  A    between atoms: N_7  and  C_8
REMARK    3  A    between atoms: C_11  and  O_12
REMARK                            x       y       z     vdW  Elec       q    Type
REMARK                         _______ _______ _______ _____ _____    ______ ____
ROOT
ATOM      1  C   UNL     1      -0.122   9.419  22.394  0.00  0.00    +0.000 C 
ATOM      2  C   UNL     1       0.615   9.030  21.145  0.00  0.00    +0.000 A 
ATOM      3  C   UNL     1       1.234   7.840  21.060  0.00  0.00    +0.000 A 
ATOM      4  N   UNL     1       1.924   7.547  19.931  0.00  0.00    +0.000 N 
ATOM      5  C   UNL     1       2.632   6.429  19.586  0.00  0.00    +0.000 A 
ATOM      6  O   UNL     1       2.758   5.424  20.273  0.00  0.00    +0.000 OA
ATOM      7  N   UNL     1       3.151   6.715  18.293  0.00  0.00    +0.000 N 
ATOM      8  N   UNL     1       2.737   7.984  17.879  0.00  0.00    +0.000 NA
ATOM      9  C   UNL     1       2.032   8.394  18.891  0.00  0.00    +0.000 A 
ATOM     10  C   UNL     1       1.296   9.706  19.034  0.00  0.00    +0.000 A 
ATOM     11  N   UNL     1       1.318  10.604  17.999  0.00  0.00    +0.000 N 
ATOM     12  N   UNL     1       0.620   9.970  20.124  0.00  0.00    +0.000 NA
ATOM     13  H   UNL     1       1.520  10.221  17.082  0.00  0.00    +0.000 HD
ATOM     14  H   UNL     1       0.559  11.273  18.026  0.00  0.00    +0.000 HD
ENDROOT
BRANCH   7  15
ATOM     15  C   UNL     1       3.932   5.892  17.460  0.00  0.00    +0.000 A 
ATOM     16  C   UNL     1       3.720   4.506  17.407  0.00  0.00    +0.000 A 
ATOM     17  C   UNL     1       4.465   3.690  16.551  0.00  0.00    +0.000 A 
ATOM     18  C   UNL     1       5.445   4.260  15.750  0.00  0.00    +0.000 A 
ATOM     19  C   UNL     1       5.694   5.625  15.801  0.00  0.00    +0.000 A 
ATOM     20  C   UNL     1       4.938   6.440  16.651  0.00  0.00    +0.000 A 
BRANCH  18  21
ATOM     21  O   UNL     1       6.183   3.502  14.892  0.00  0.00    +0.000 OA
ATOM     22  H   UNL     1       6.174   2.583  15.209  0.00  0.00    +0.000 HD
ENDBRANCH  18  21
ENDBRANCH   7  15
TORSDOF 2
ENDMDL
MODEL 5
REMARK VINA RESULT:      -6.7      2.554      3.073
REMARK  Name = 
REMARK  3 active torsions:
REMARK  status: ('A' for Active; 'I' for Inactive)
REMARK    1  A    between atoms: C_1  and  C_2
REMARK    2  A    between atoms: N_7  and  C_8
REMARK    3  A    between atoms: C_11  and  O_12
REMARK                            x       y       z     vdW  Elec       q    Type
REMARK                         _______ _______ _______ _____ _____    ______ ____
ROOT
ATOM      1  C   UNL     1       8.561   9.193  17.542  0.00  0.00    +0.000 C 
ATOM      2  C   UNL     1       7.820   7.960  17.969  0.00  0.00    +0.000 A 
ATOM      3  C   UNL     1       6.577   7.719  17.519  0.00  0.00    +0.000 A 
ATOM      4  N   UNL     1       5.928   6.616  17.965  0.00  0.00    +0.000 N 
ATOM      5  C   UNL     1       4.678   6.140  17.675  0.00  0.00    +0.000 A 
ATOM      6  O   UNL     1       3.885   6.650  16.895  0.00  0.00    +0.000 OA
ATOM      7  N   UNL     1       4.548   4.964  18.462  0.00  0.00    +0.000 N 
ATOM      8  N   UNL     1       5.717   4.744  19.197  0.00  0.00    +0.000 NA
ATOM      9  C   UNL     1       6.461   5.752  18.848  0.00  0.00    +0.000 A 
ATOM     10  C   UNL     1       7.869   6.062  19.300  0.00  0.00    +0.000 A 
ATOM     11  N   UNL     1       8.500   5.204  20.163  0.00  0.00    +0.000 N 
ATOM     12  N   UNL     1       8.491   7.122  18.850  0.00  0.00    +0.000 NA
ATOM     13  H   UNL     1       8.147   4.254  20.184  0.00  0.00    +0.000 HD
ATOM     14  H   UNL     1       9.509   5.286  20.150  0.00  0.00    +0.000 HD
ENDROOT
BRANCH   7  15
ATOM     15  C   UNL     1       3.465   4.066  18.525  0.00  0.00    +0.000 A 
ATOM     16  C   UNL     1       2.326   4.360  19.289  0.00  0.00    +0.000 A 
ATOM     17  C   UNL     1       1.231   3.491  19.322  0.00  0.00    +0.000 A 
ATOM     18  C   UNL     1       1.280   2.308  18.599  0.00  0.00    +0.000 A 
ATOM     19  C   UNL     1       2.405   1.979  17.855  0.00  0.00    +0.000 A 
ATOM     20  C   UNL     1       3.495   2.857  17.816  0.00  0.00    +0.000 A 
BRANCH  18  21
ATOM     21  O   UNL     1       0.229   1.441  18.593  0.00  0.00    +0.000 OA
ATOM     22  H   UNL     1       0.021   1.205  19.513  0.00  0.00    +0.000 HD
ENDBRANCH  18  21
ENDBRANCH   7  15
TORSDOF 2
ENDMDL
MODEL 6
REMARK VINA RESULT:      -6.7      2.591      3.218
REMARK  Name = 
REMARK  3 active torsions:
REMARK  status: ('A' for Active; 'I' for Inactive)
REMARK    1  A    between atoms: C_1  and  C_2
REMARK    2  A    between atoms: N_7  and  C_8
REMARK    3  A    between atoms: C_11  and  O_12
REMARK                            x       y       z     vdW  Elec       q    Type
REMARK                         _______ _______ _______ _____ _____    ______ ____
ROOT
ATOM      1  C   UNL     1       8.583   9.238  17.577  0.00  0.00    +0.000 C 
ATOM      2  C   UNL     1       7.834   8.001  17.976  0.00  0.00    +0.000 A 
ATOM      3  C   UNL     1       6.599   7.766  17.500  0.00  0.00    +0.000 A 
ATOM      4  N   UNL     1       5.941   6.658  17.921  0.00  0.00    +0.000 N 
ATOM      5  C   UNL     1       4.697   6.187  17.602  0.00  0.00    +0.000 A 
ATOM      6  O   UNL     1       3.918   6.706  16.815  0.00  0.00    +0.000 OA
ATOM      7  N   UNL     1       4.552   5.001  18.373  0.00  0.00    +0.000 N 
ATOM      8  N   UNL     1       5.707   4.772  19.126  0.00  0.00    +0.000 NA
ATOM      9  C   UNL     1       6.458   5.783  18.803  0.00  0.00    +0.000 A 
ATOM     10  C   UNL     1       7.858   6.086  19.284  0.00  0.00    +0.000 A 
ATOM     11  N   UNL     1       8.473   5.218  20.147  0.00  0.00    +0.000 N 
ATOM     12  N   UNL     1       8.488   7.152  18.858  0.00  0.00    +0.000 NA
ATOM     13  H   UNL     1       8.119   4.268  20.151  0.00  0.00    +0.000 HD
ATOM     14  H   UNL     1       9.482   5.299  20.154  0.00  0.00    +0.000 HD
ENDROOT
BRANCH   7  15
ATOM     15  C   UNL     1       3.468   4.103  18.406  0.00  0.00    +0.000 A 
ATOM     16  C   UNL     1       3.569   2.826  17.833  0.00  0.00    +0.000 A 
ATOM     17  C   UNL     1       2.509   1.917  17.899  0.00  0.00    +0.000 A 
ATOM     18  C   UNL     1       1.330   2.289  18.529  0.00  0.00    +0.000 A 
ATOM     19  C   UNL     1       1.193   3.556  19.081  0.00  0.00    +0.000 A 
ATOM     20  C   UNL     1       2.260   4.460  19.023  0.00  0.00    +0.000 A 
BRANCH  18  21
ATOM     21  O   UNL     1       0.280   1.428  18.627  0.00  0.00    +0.000 OA
ATOM     22  H   UNL     1      -0.311   1.577  17.869  0.00  0.00    +0.000 HD
ENDBRANCH  18  21
ENDBRANCH   7  15
TORSDOF 2
ENDMDL
MODEL 7
REMARK VINA RESULT:      -6.7      2.134      6.514
REMARK  Name = 
REMARK  3 active torsions:
REMARK  status: ('A' for Active; 'I' for Inactive)
REMARK    1  A    between atoms: C_1  and  C_2
REMARK    2  A    between atoms: N_7  and  C_8
REMARK    3  A    between atoms: C_11  and  O_12
REMARK                            x       y       z     vdW  Elec       q    Type
REMARK                         _______ _______ _______ _____ _____    ______ ____
ROOT
ATOM      1  C   UNL     1       1.105   2.488  22.077  0.00  0.00    +0.000 C 
ATOM      2  C   UNL     1       1.849   3.281  21.043  0.00  0.00    +0.000 A 
ATOM      3  C   UNL     1       2.556   2.660  20.084  0.00  0.00    +0.000 A 
ATOM      4  N   UNL     1       3.249   3.416  19.196  0.00  0.00    +0.000 N 
ATOM      5  C   UNL     1       4.036   3.049  18.140  0.00  0.00    +0.000 A 
ATOM      6  O   UNL     1       4.251   1.901  17.775  0.00  0.00    +0.000 OA
ATOM      7  N   UNL     1       4.509   4.276  17.600  0.00  0.00    +0.000 N 
ATOM      8  N   UNL     1       3.992   5.353  18.325  0.00  0.00    +0.000 NA
ATOM      9  C   UNL     1       3.274   4.760  19.233  0.00  0.00    +0.000 A 
ATOM     10  C   UNL     1       2.441   5.403  20.318  0.00  0.00    +0.000 A 
ATOM     11  N   UNL     1       2.376   6.770  20.393  0.00  0.00    +0.000 N 
ATOM     12  N   UNL     1       1.765   4.662  21.159  0.00  0.00    +0.000 NA
ATOM     13  H   UNL     1       2.592   7.273  19.540  0.00  0.00    +0.000 HD
ATOM     14  H   UNL     1       1.568   7.111  20.898  0.00  0.00    +0.000 HD
ENDROOT
BRANCH   7  15
ATOM     15  C   UNL     1       5.339   4.480  16.480  0.00  0.00    +0.000 A 
ATOM     16  C   UNL     1       4.893   4.177  15.185  0.00  0.00    +0.000 A 
ATOM     17  C   UNL     1       5.697   4.416  14.067  0.00  0.00    +0.000 A 
ATOM     18  C   UNL     1       6.966   4.948  14.243  0.00  0.00    +0.000 A 
ATOM     19  C   UNL     1       7.444   5.234  15.515  0.00  0.00    +0.000 A 
ATOM     20  C   UNL     1       6.631   5.003  16.631  0.00  0.00    +0.000 A 
BRANCH  18  21
ATOM     21  O   UNL     1       7.775   5.209  13.178  0.00  0.00    +0.000 OA
ATOM     22  H   UNL     1       7.297   4.975  12.365  0.00  0.00    +0.000 HD
ENDBRANCH  18  21
ENDBRANCH   7  15
TORSDOF 2
ENDMDL
MODEL 8
REMARK VINA RESULT:      -6.6      4.953      6.518
REMARK  Name = 
REMARK  3 active torsions:
REMARK  status: ('A' for Active; 'I' for Inactive)
REMARK    1  A    between atoms: C_1  and  C_2
REMARK    2  A    between atoms: N_7  and  C_8
REMARK    3  A    between atoms: C_11  and  O_12
REMARK                            x       y       z     vdW  Elec       q    Type
REMARK                         _______ _______ _______ _____ _____    ______ ____
ROOT
ATOM      1  C   UNL     1      -0.090  12.257  18.883  0.00  0.00    +0.000 C 
ATOM      2  C   UNL     1       0.418  10.956  19.431  0.00  0.00    +0.000 A 
ATOM      3  C   UNL     1       1.141  10.125  18.661  0.00  0.00    +0.000 A 
ATOM      4  N   UNL     1       1.543   8.940  19.183  0.00  0.00    +0.000 N 
ATOM      5  C   UNL     1       2.276   7.927  18.629  0.00  0.00    +0.000 A 
ATOM      6  O   UNL     1       2.747   7.922  17.500  0.00  0.00    +0.000 OA
ATOM      7  N   UNL     1       2.354   6.940  19.649  0.00  0.00    +0.000 N 
ATOM      8  N   UNL     1       1.684   7.377  20.795  0.00  0.00    +0.000 NA
ATOM      9  C   UNL     1       1.243   8.546  20.433  0.00  0.00    +0.000 A 
ATOM     10  C   UNL     1       0.448   9.530  21.259  0.00  0.00    +0.000 A 
ATOM     11  N   UNL     1       0.143   9.222  22.560  0.00  0.00    +0.000 N 
ATOM     12  N   UNL     1       0.079  10.677  20.749  0.00  0.00    +0.000 NA
ATOM     13  H   UNL     1       0.740   8.534  23.006  0.00  0.00    +0.000 HD
ATOM     14  H   UNL     1      -0.078  10.030  23.127  0.00  0.00    +0.000 HD
ENDROOT
BRANCH   7  15
ATOM     15  C   UNL     1       3.020   5.699  19.620  0.00  0.00    +0.000 A 
ATOM     16  C   UNL     1       4.349   5.602  19.179  0.00  0.00    +0.000 A 
ATOM     17  C   UNL     1       5.027   4.380  19.188  0.00  0.00    +0.000 A 
ATOM     18  C   UNL     1       4.370   3.239  19.624  0.00  0.00    +0.000 A 
ATOM     19  C   UNL     1       3.046   3.301  20.041  0.00  0.00    +0.000 A 
ATOM     20  C   UNL     1       2.374   4.528  20.042  0.00  0.00    +0.000 A 
BRANCH  18  21
ATOM     21  O   UNL     1       5.000   2.032  19.661  0.00  0.00    +0.000 OA
ATOM     22  H   UNL     1       4.417   1.369  19.253  0.00  0.00    +0.000 HD
ENDBRANCH  18  21
ENDBRANCH   7  15
TORSDOF 2
ENDMDL
MODEL 9
REMARK VINA RESULT:      -6.6      2.147      6.559
REMARK  Name = 
REMARK  3 active torsions:
REMARK  status: ('A' for Active; 'I' for Inactive)
REMARK    1  A    between atoms: C_1  and  C_2
REMARK    2  A    between atoms: N_7  and  C_8
REMARK    3  A    between atoms: C_11  and  O_12
REMARK                            x       y       z     vdW  Elec       q    Type
REMARK                         _______ _______ _______ _____ _____    ______ ____
ROOT
ATOM      1  C   UNL     1       1.151   2.519  21.964  0.00  0.00    +0.000 C 
ATOM      2  C   UNL     1       1.890   3.302  20.918  0.00  0.00    +0.000 A 
ATOM      3  C   UNL     1       2.561   2.672  19.939  0.00  0.00    +0.000 A 
ATOM      4  N   UNL     1       3.250   3.418  19.041  0.00  0.00    +0.000 N 
ATOM      5  C   UNL     1       4.005   3.041  17.964  0.00  0.00    +0.000 A 
ATOM      6  O   UNL     1       4.185   1.891  17.587  0.00  0.00    +0.000 OA
ATOM      7  N   UNL     1       4.494   4.260  17.422  0.00  0.00    +0.000 N 
ATOM      8  N   UNL     1       4.018   5.343  18.166  0.00  0.00    +0.000 NA
ATOM      9  C   UNL     1       3.307   4.761  19.086  0.00  0.00    +0.000 A 
ATOM     10  C   UNL     1       2.514   5.415  20.194  0.00  0.00    +0.000 A 
ATOM     11  N   UNL     1       2.483   6.782  20.280  0.00  0.00    +0.000 N 
ATOM     12  N   UNL     1       1.840   4.684  21.046  0.00  0.00    +0.000 NA
ATOM     13  H   UNL     1       2.691   7.286  19.425  0.00  0.00    +0.000 HD
ATOM     14  H   UNL     1       1.694   7.138  20.806  0.00  0.00    +0.000 HD
ENDROOT
BRANCH   7  15
ATOM     15  C   UNL     1       5.302   4.453  16.285  0.00  0.00    +0.000 A 
ATOM     16  C   UNL     1       6.612   4.943  16.403  0.00  0.00    +0.000 A 
ATOM     17  C   UNL     1       7.432   5.097  15.282  0.00  0.00    +0.000 A 
ATOM     18  C   UNL     1       6.936   4.775  14.027  0.00  0.00    +0.000 A 
ATOM     19  C   UNL     1       5.636   4.312  13.877  0.00  0.00    +0.000 A 
ATOM     20  C   UNL     1       4.821   4.149  15.004  0.00  0.00    +0.000 A 
BRANCH  18  21
ATOM     21  O   UNL     1       7.708   4.897  12.911  0.00  0.00    +0.000 OA
ATOM     22  H   UNL     1       7.249   5.480  12.283  0.00  0.00    +0.000 HD
ENDBRANCH  18  21
ENDBRANCH   7  15
TORSDOF 2
ENDMDL
