MODEL 1
REMARK VINA RESULT:      -7.6      0.000      0.000
REMARK  Name = 
REMARK  12 active torsions:
REMARK  status: ('A' for Active; 'I' for Inactive)
REMARK    1  A    between atoms: C_1  and  C_2
REMARK    2  A    between atoms: C_2  and  C_3
REMARK    3  A    between atoms: C_3  and  C_4
REMARK    4  A    between atoms: C_4  and  C_5
REMARK    5  A    between atoms: C_5  and  C_6
REMARK    6  A    between atoms: C_6  and  C_7
REMARK    7  A    between atoms: C_7  and  C_8
REMARK    8  A    between atoms: C_8  and  O_9
REMARK    9  A    between atoms: O_9  and  C_10
REMARK   10  A    between atoms: C_10  and  C_11
REMARK   11  A    between atoms: C_10  and  C_20
REMARK   12  A    between atoms: C_14  and  N_15
REMARK                            x       y       z     vdW  Elec       q    Type
REMARK                         _______ _______ _______ _____ _____    ______ ____
ROOT
ATOM      1  C   UNL     1       4.243   6.270  18.008  0.00  0.00    +0.000 C 
ENDROOT
BRANCH   1   2
ATOM      2  C   UNL     1       3.989   4.809  18.249  0.00  0.00    +0.000 A 
ATOM      3  C   UNL     1       2.976   4.101  17.729  0.00  0.00    +0.000 A 
ATOM      4  N   UNL     1       2.881   2.750  17.901  0.00  0.00    +0.000 N 
ATOM      5  C   UNL     1       3.821   2.005  18.554  0.00  0.00    +0.000 A 
ATOM      6  O   UNL     1       3.725   0.789  18.669  0.00  0.00    +0.000 OA
ATOM      7  N   UNL     1       4.878   2.706  19.062  0.00  0.00    +0.000 N 
ATOM      8  C   UNL     1       5.029   4.065  19.003  0.00  0.00    +0.000 A 
ATOM      9  O   UNL     1       5.984   4.634  19.525  0.00  0.00    +0.000 OA
ATOM     10  H   UNL     1       2.108   2.233  17.497  0.00  0.00    +0.000 HD
ATOM     11  H   UNL     1       5.584   2.179  19.550  0.00  0.00    +0.000 HD
ENDBRANCH   1   2
BRANCH   1  12
ATOM     12  C   UNL     1       3.108   7.192  18.443  0.00  0.00    +0.000 A 
ATOM     13  C   UNL     1       2.671   8.254  17.633  0.00  0.00    +0.000 A 
ATOM     14  C   UNL     1       1.742   9.183  18.113  0.00  0.00    +0.000 A 
ATOM     15  C   UNL     1       1.246   9.056  19.417  0.00  0.00    +0.000 A 
ATOM     16  C   UNL     1       1.649   7.990  20.230  0.00  0.00    +0.000 A 
ATOM     17  C   UNL     1       2.567   7.060  19.737  0.00  0.00    +0.000 A 
BRANCH  15  18
ATOM     18  N   UNL     1       0.321  10.064  19.948  0.00  0.00    +0.000 N 
ATOM     19  O   UNL     1      -0.809  10.132  19.442  0.00  0.00    +0.000 OA
ATOM     20  O   UNL     1       0.727  10.796  20.862  0.00  0.00    +0.000 OA
ENDBRANCH  15  18
ENDBRANCH   1  12
BRANCH   1  21
ATOM     21  O   UNL     1       4.521   6.445  16.604  0.00  0.00    +0.000 OA
BRANCH  21  22
ATOM     22  C   UNL     1       5.649   5.735  16.099  0.00  0.00    +0.000 C 
BRANCH  22  23
ATOM     23  C   UNL     1       5.532   5.381  14.622  0.00  0.00    +0.000 C 
BRANCH  23  24
ATOM     24  C   UNL     1       6.073   3.986  14.368  0.00  0.00    +0.000 C 
BRANCH  24  25
ATOM     25  C   UNL     1       6.368   3.788  12.889  0.00  0.00    +0.000 C 
BRANCH  25  26
ATOM     26  C   UNL     1       5.402   2.769  12.291  0.00  0.00    +0.000 C 
BRANCH  26  27
ATOM     27  C   UNL     1       4.914   3.231  10.926  0.00  0.00    +0.000 C 
BRANCH  27  29
ATOM     28  C   UNL     1       2.954   4.098   9.635  0.00  0.00    +0.000 C 
ATOM     29  C   UNL     1       3.408   3.463  10.935  0.00  0.00    +0.000 C 
ENDBRANCH  27  29
ENDBRANCH  26  27
ENDBRANCH  25  26
ENDBRANCH  24  25
ENDBRANCH  23  24
ENDBRANCH  22  23
ENDBRANCH  21  22
ENDBRANCH   1  21
TORSDOF 11
ENDMDL
MODEL 2
REMARK VINA RESULT:      -7.6      3.346      7.203
REMARK  Name = 
REMARK  12 active torsions:
REMARK  status: ('A' for Active; 'I' for Inactive)
REMARK    1  A    between atoms: C_1  and  C_2
REMARK    2  A    between atoms: C_2  and  C_3
REMARK    3  A    between atoms: C_3  and  C_4
REMARK    4  A    between atoms: C_4  and  C_5
REMARK    5  A    between atoms: C_5  and  C_6
REMARK    6  A    between atoms: C_6  and  C_7
REMARK    7  A    between atoms: C_7  and  C_8
REMARK    8  A    between atoms: C_8  and  O_9
REMARK    9  A    between atoms: O_9  and  C_10
REMARK   10  A    between atoms: C_10  and  C_11
REMARK   11  A    between atoms: C_10  and  C_20
REMARK   12  A    between atoms: C_14  and  N_15
REMARK                            x       y       z     vdW  Elec       q    Type
REMARK                         _______ _______ _______ _____ _____    ______ ____
ROOT
ATOM      1  C   UNL     1       2.729   6.479  19.442  0.00  0.00    +0.000 C 
ENDROOT
BRANCH   1   2
ATOM      2  C   UNL     1       2.163   7.838  19.140  0.00  0.00    +0.000 A 
ATOM      3  C   UNL     1       2.144   8.420  17.933  0.00  0.00    +0.000 A 
ATOM      4  N   UNL     1       1.506   9.608  17.719  0.00  0.00    +0.000 N 
ATOM      5  C   UNL     1       0.793  10.265  18.681  0.00  0.00    +0.000 A 
ATOM      6  O   UNL     1       0.206  11.316  18.453  0.00  0.00    +0.000 OA
ATOM      7  N   UNL     1       0.775   9.669  19.909  0.00  0.00    +0.000 N 
ATOM      8  C   UNL     1       1.438   8.519  20.242  0.00  0.00    +0.000 A 
ATOM      9  O   UNL     1       1.414   8.064  21.383  0.00  0.00    +0.000 OA
ATOM     10  H   UNL     1       1.501  10.030  16.797  0.00  0.00    +0.000 HD
ATOM     11  H   UNL     1       0.257  10.136  20.636  0.00  0.00    +0.000 HD
ENDBRANCH   1   2
BRANCH   1  12
ATOM     12  C   UNL     1       3.983   6.123  18.649  0.00  0.00    +0.000 A 
ATOM     13  C   UNL     1       3.943   5.926  17.259  0.00  0.00    +0.000 A 
ATOM     14  C   UNL     1       5.064   5.447  16.573  0.00  0.00    +0.000 A 
ATOM     15  C   UNL     1       6.237   5.155  17.282  0.00  0.00    +0.000 A 
ATOM     16  C   UNL     1       6.305   5.370  18.663  0.00  0.00    +0.000 A 
ATOM     17  C   UNL     1       5.184   5.861  19.337  0.00  0.00    +0.000 A 
BRANCH  15  18
ATOM     18  N   UNL     1       7.395   4.591  16.577  0.00  0.00    +0.000 N 
ATOM     19  O   UNL     1       7.387   4.624  15.338  0.00  0.00    +0.000 OA
ATOM     20  O   UNL     1       8.306   4.103  17.261  0.00  0.00    +0.000 OA
ENDBRANCH  15  18
ENDBRANCH   1  12
BRANCH   1  21
ATOM     21  O   UNL     1       1.692   5.505  19.205  0.00  0.00    +0.000 OA
BRANCH  21  22
ATOM     22  C   UNL     1       1.109   4.920  20.367  0.00  0.00    +0.000 C 
BRANCH  22  23
ATOM     23  C   UNL     1       0.767   3.445  20.197  0.00  0.00    +0.000 C 
BRANCH  23  24
ATOM     24  C   UNL     1       1.456   2.616  21.265  0.00  0.00    +0.000 C 
BRANCH  24  25
ATOM     25  C   UNL     1       2.913   3.031  21.406  0.00  0.00    +0.000 C 
BRANCH  25  26
ATOM     26  C   UNL     1       3.819   2.011  20.722  0.00  0.00    +0.000 C 
BRANCH  26  27
ATOM     27  C   UNL     1       4.202   2.486  19.328  0.00  0.00    +0.000 C 
BRANCH  27  29
ATOM     28  C   UNL     1       2.526   2.364  17.474  0.00  0.00    +0.000 C 
ATOM     29  C   UNL     1       3.576   1.600  18.259  0.00  0.00    +0.000 C 
ENDBRANCH  27  29
ENDBRANCH  26  27
ENDBRANCH  25  26
ENDBRANCH  24  25
ENDBRANCH  23  24
ENDBRANCH  22  23
ENDBRANCH  21  22
ENDBRANCH   1  21
TORSDOF 11
ENDMDL
MODEL 3
REMARK VINA RESULT:      -7.6      3.393      7.378
REMARK  Name = 
REMARK  12 active torsions:
REMARK  status: ('A' for Active; 'I' for Inactive)
REMARK    1  A    between atoms: C_1  and  C_2
REMARK    2  A    between atoms: C_2  and  C_3
REMARK    3  A    between atoms: C_3  and  C_4
REMARK    4  A    between atoms: C_4  and  C_5
REMARK    5  A    between atoms: C_5  and  C_6
REMARK    6  A    between atoms: C_6  and  C_7
REMARK    7  A    between atoms: C_7  and  C_8
REMARK    8  A    between atoms: C_8  and  O_9
REMARK    9  A    between atoms: O_9  and  C_10
REMARK   10  A    between atoms: C_10  and  C_11
REMARK   11  A    between atoms: C_10  and  C_20
REMARK   12  A    between atoms: C_14  and  N_15
REMARK                            x       y       z     vdW  Elec       q    Type
REMARK                         _______ _______ _______ _____ _____    ______ ____
ROOT
ATOM      1  C   UNL     1       2.391   5.812  18.242  0.00  0.00    +0.000 C 
ENDROOT
BRANCH   1   2
ATOM      2  C   UNL     1       2.177   4.834  19.363  0.00  0.00    +0.000 A 
ATOM      3  C   UNL     1       2.628   4.978  20.617  0.00  0.00    +0.000 A 
ATOM      4  N   UNL     1       2.291   4.102  21.607  0.00  0.00    +0.000 N 
ATOM      5  C   UNL     1       1.433   3.054  21.427  0.00  0.00    +0.000 A 
ATOM      6  O   UNL     1       1.125   2.299  22.341  0.00  0.00    +0.000 OA
ATOM      7  N   UNL     1       0.937   2.911  20.162  0.00  0.00    +0.000 N 
ATOM      8  C   UNL     1       1.267   3.693  19.088  0.00  0.00    +0.000 A 
ATOM      9  O   UNL     1       0.817   3.477  17.966  0.00  0.00    +0.000 OA
ATOM     10  H   UNL     1       2.642   4.231  22.549  0.00  0.00    +0.000 HD
ATOM     11  H   UNL     1       0.303   2.145  20.004  0.00  0.00    +0.000 HD
ENDBRANCH   1   2
BRANCH   1  12
ATOM     12  C   UNL     1       3.644   5.559  17.409  0.00  0.00    +0.000 A 
ATOM     13  C   UNL     1       4.355   6.613  16.811  0.00  0.00    +0.000 A 
ATOM     14  C   UNL     1       5.404   6.353  15.924  0.00  0.00    +0.000 A 
ATOM     15  C   UNL     1       5.745   5.028  15.623  0.00  0.00    +0.000 A 
ATOM     16  C   UNL     1       5.066   3.964  16.229  0.00  0.00    +0.000 A 
ATOM     17  C   UNL     1       4.028   4.234  17.124  0.00  0.00    +0.000 A 
BRANCH  15  18
ATOM     18  N   UNL     1       6.802   4.750  14.643  0.00  0.00    +0.000 N 
ATOM     19  O   UNL     1       7.857   5.395  14.735  0.00  0.00    +0.000 OA
ATOM     20  O   UNL     1       6.573   3.896  13.774  0.00  0.00    +0.000 OA
ENDBRANCH  15  18
ENDBRANCH   1  12
BRANCH   1  21
ATOM     21  O   UNL     1       2.427   7.136  18.812  0.00  0.00    +0.000 OA
BRANCH  21  22
ATOM     22  C   UNL     1       1.814   8.164  18.037  0.00  0.00    +0.000 C 
BRANCH  22  23
ATOM     23  C   UNL     1       1.642   9.475  18.796  0.00  0.00    +0.000 C 
BRANCH  23  24
ATOM     24  C   UNL     1       0.188   9.675  19.181  0.00  0.00    +0.000 C 
BRANCH  24  25
ATOM     25  C   UNL     1      -0.338  10.989  18.622  0.00  0.00    +0.000 C 
BRANCH  25  26
ATOM     26  C   UNL     1      -1.806  10.846  18.233  0.00  0.00    +0.000 C 
BRANCH  26  27
ATOM     27  C   UNL     1      -1.967   9.822  17.118  0.00  0.00    +0.000 C 
BRANCH  27  29
ATOM     28  C   UNL     1      -3.914  11.212  16.383  0.00  0.00    +0.000 C 
ATOM     29  C   UNL     1      -2.699  10.426  15.927  0.00  0.00    +0.000 C 
ENDBRANCH  27  29
ENDBRANCH  26  27
ENDBRANCH  25  26
ENDBRANCH  24  25
ENDBRANCH  23  24
ENDBRANCH  22  23
ENDBRANCH  21  22
ENDBRANCH   1  21
TORSDOF 11
ENDMDL
MODEL 4
REMARK VINA RESULT:      -7.5      3.404      8.054
REMARK  Name = 
REMARK  12 active torsions:
REMARK  status: ('A' for Active; 'I' for Inactive)
REMARK    1  A    between atoms: C_1  and  C_2
REMARK    2  A    between atoms: C_2  and  C_3
REMARK    3  A    between atoms: C_3  and  C_4
REMARK    4  A    between atoms: C_4  and  C_5
REMARK    5  A    between atoms: C_5  and  C_6
REMARK    6  A    between atoms: C_6  and  C_7
REMARK    7  A    between atoms: C_7  and  C_8
REMARK    8  A    between atoms: C_8  and  O_9
REMARK    9  A    between atoms: O_9  and  C_10
REMARK   10  A    between atoms: C_10  and  C_11
REMARK   11  A    between atoms: C_10  and  C_20
REMARK   12  A    between atoms: C_14  and  N_15
REMARK                            x       y       z     vdW  Elec       q    Type
REMARK                         _______ _______ _______ _____ _____    ______ ____
ROOT
ATOM      1  C   UNL     1       2.416   5.791  18.186  0.00  0.00    +0.000 C 
ENDROOT
BRANCH   1   2
ATOM      2  C   UNL     1       2.209   4.835  19.327  0.00  0.00    +0.000 A 
ATOM      3  C   UNL     1       2.722   4.974  20.558  0.00  0.00    +0.000 A 
ATOM      4  N   UNL     1       2.391   4.124  21.574  0.00  0.00    +0.000 N 
ATOM      5  C   UNL     1       1.482   3.113  21.445  0.00  0.00    +0.000 A 
ATOM      6  O   UNL     1       1.183   2.382  22.382  0.00  0.00    +0.000 OA
ATOM      7  N   UNL     1       0.925   2.977  20.205  0.00  0.00    +0.000 N 
ATOM      8  C   UNL     1       1.241   3.732  19.107  0.00  0.00    +0.000 A 
ATOM      9  O   UNL     1       0.732   3.523  18.009  0.00  0.00    +0.000 OA
ATOM     10  H   UNL     1       2.788   4.249  22.498  0.00  0.00    +0.000 HD
ATOM     11  H   UNL     1       0.253   2.237  20.085  0.00  0.00    +0.000 HD
ENDBRANCH   1   2
BRANCH   1  12
ATOM     12  C   UNL     1       3.681   5.543  17.370  0.00  0.00    +0.000 A 
ATOM     13  C   UNL     1       4.442   6.604  16.852  0.00  0.00    +0.000 A 
ATOM     14  C   UNL     1       5.506   6.359  15.977  0.00  0.00    +0.000 A 
ATOM     15  C   UNL     1       5.812   5.042  15.610  0.00  0.00    +0.000 A 
ATOM     16  C   UNL     1       5.082   3.970  16.137  0.00  0.00    +0.000 A 
ATOM     17  C   UNL     1       4.030   4.224  17.020  0.00  0.00    +0.000 A 
BRANCH  15  18
ATOM     18  N   UNL     1       6.885   4.784  14.642  0.00  0.00    +0.000 N 
ATOM     19  O   UNL     1       6.764   3.800  13.898  0.00  0.00    +0.000 OA
ATOM     20  O   UNL     1       7.853   5.558  14.634  0.00  0.00    +0.000 OA
ENDBRANCH  15  18
ENDBRANCH   1  12
BRANCH   1  21
ATOM     21  O   UNL     1       2.419   7.129  18.723  0.00  0.00    +0.000 OA
BRANCH  21  22
ATOM     22  C   UNL     1       1.583   8.071  18.057  0.00  0.00    +0.000 C 
BRANCH  22  23
ATOM     23  C   UNL     1       1.333   9.338  18.864  0.00  0.00    +0.000 C 
BRANCH  23  24
ATOM     24  C   UNL     1       0.193  10.136  18.257  0.00  0.00    +0.000 C 
BRANCH  24  25
ATOM     25  C   UNL     1      -0.423  11.062  19.295  0.00  0.00    +0.000 C 
BRANCH  25  26
ATOM     26  C   UNL     1      -0.571  10.335  20.628  0.00  0.00    +0.000 C 
BRANCH  26  27
ATOM     27  C   UNL     1      -0.703  11.333  21.769  0.00  0.00    +0.000 C 
BRANCH  27  29
ATOM     28  C   UNL     1      -0.147   9.233  23.010  0.00  0.00    +0.000 C 
ATOM     29  C   UNL     1      -0.756  10.618  23.113  0.00  0.00    +0.000 C 
ENDBRANCH  27  29
ENDBRANCH  26  27
ENDBRANCH  25  26
ENDBRANCH  24  25
ENDBRANCH  23  24
ENDBRANCH  22  23
ENDBRANCH  21  22
ENDBRANCH   1  21
TORSDOF 11
ENDMDL
MODEL 5
REMARK VINA RESULT:      -7.5      3.438      4.135
REMARK  Name = 
REMARK  12 active torsions:
REMARK  status: ('A' for Active; 'I' for Inactive)
REMARK    1  A    between atoms: C_1  and  C_2
REMARK    2  A    between atoms: C_2  and  C_3
REMARK    3  A    between atoms: C_3  and  C_4
REMARK    4  A    between atoms: C_4  and  C_5
REMARK    5  A    between atoms: C_5  and  C_6
REMARK    6  A    between atoms: C_6  and  C_7
REMARK    7  A    between atoms: C_7  and  C_8
REMARK    8  A    between atoms: C_8  and  O_9
REMARK    9  A    between atoms: O_9  and  C_10
REMARK   10  A    between atoms: C_10  and  C_11
REMARK   11  A    between atoms: C_10  and  C_20
REMARK   12  A    between atoms: C_14  and  N_15
REMARK                            x       y       z     vdW  Elec       q    Type
REMARK                         _______ _______ _______ _____ _____    ______ ____
ROOT
ATOM      1  C   UNL     1       5.801   4.339  17.340  0.00  0.00    +0.000 C 
ENDROOT
BRANCH   1   2
ATOM      2  C   UNL     1       4.419   4.101  17.880  0.00  0.00    +0.000 A 
ATOM      3  C   UNL     1       3.275   4.375  17.236  0.00  0.00    +0.000 A 
ATOM      4  N   UNL     1       2.060   4.021  17.746  0.00  0.00    +0.000 N 
ATOM      5  C   UNL     1       1.906   3.318  18.908  0.00  0.00    +0.000 A 
ATOM      6  O   UNL     1       0.804   2.988  19.329  0.00  0.00    +0.000 OA
ATOM      7  N   UNL     1       3.063   3.002  19.562  0.00  0.00    +0.000 N 
ATOM      8  C   UNL     1       4.322   3.371  19.169  0.00  0.00    +0.000 A 
ATOM      9  O   UNL     1       5.316   3.090  19.833  0.00  0.00    +0.000 OA
ATOM     10  H   UNL     1       1.208   4.235  17.241  0.00  0.00    +0.000 HD
ATOM     11  H   UNL     1       2.975   2.486  20.422  0.00  0.00    +0.000 HD
ENDBRANCH   1   2
BRANCH   1  12
ATOM     12  C   UNL     1       6.398   5.697  17.697  0.00  0.00    +0.000 A 
ATOM     13  C   UNL     1       5.915   6.886  17.125  0.00  0.00    +0.000 A 
ATOM     14  C   UNL     1       6.574   8.100  17.341  0.00  0.00    +0.000 A 
ATOM     15  C   UNL     1       7.731   8.130  18.131  0.00  0.00    +0.000 A 
ATOM     16  C   UNL     1       8.212   6.961  18.731  0.00  0.00    +0.000 A 
ATOM     17  C   UNL     1       7.539   5.755  18.520  0.00  0.00    +0.000 A 
BRANCH  15  18
ATOM     18  N   UNL     1       8.463   9.391  18.306  0.00  0.00    +0.000 N 
ATOM     19  O   UNL     1       8.222  10.312  17.512  0.00  0.00    +0.000 OA
ATOM     20  O   UNL     1       9.286   9.456  19.230  0.00  0.00    +0.000 OA
ENDBRANCH  15  18
ENDBRANCH   1  12
BRANCH   1  21
ATOM     21  O   UNL     1       5.751   4.173  15.909  0.00  0.00    +0.000 OA
BRANCH  21  22
ATOM     22  C   UNL     1       6.975   4.396  15.213  0.00  0.00    +0.000 C 
BRANCH  22  23
ATOM     23  C   UNL     1       6.798   4.545  13.707  0.00  0.00    +0.000 C 
BRANCH  23  24
ATOM     24  C   UNL     1       5.678   3.648  13.214  0.00  0.00    +0.000 C 
BRANCH  24  25
ATOM     25  C   UNL     1       6.174   2.733  12.104  0.00  0.00    +0.000 C 
BRANCH  25  26
ATOM     26  C   UNL     1       5.030   2.391  11.154  0.00  0.00    +0.000 C 
BRANCH  26  27
ATOM     27  C   UNL     1       3.987   3.499  11.150  0.00  0.00    +0.000 C 
BRANCH  27  29
ATOM     28  C   UNL     1       2.697   4.581   9.300  0.00  0.00    +0.000 C 
ATOM     29  C   UNL     1       2.968   3.284  10.039  0.00  0.00    +0.000 C 
ENDBRANCH  27  29
ENDBRANCH  26  27
ENDBRANCH  25  26
ENDBRANCH  24  25
ENDBRANCH  23  24
ENDBRANCH  22  23
ENDBRANCH  21  22
ENDBRANCH   1  21
TORSDOF 11
ENDMDL
MODEL 6
REMARK VINA RESULT:      -7.5      1.731      2.399
REMARK  Name = 
REMARK  12 active torsions:
REMARK  status: ('A' for Active; 'I' for Inactive)
REMARK    1  A    between atoms: C_1  and  C_2
REMARK    2  A    between atoms: C_2  and  C_3
REMARK    3  A    between atoms: C_3  and  C_4
REMARK    4  A    between atoms: C_4  and  C_5
REMARK    5  A    between atoms: C_5  and  C_6
REMARK    6  A    between atoms: C_6  and  C_7
REMARK    7  A    between atoms: C_7  and  C_8
REMARK    8  A    between atoms: C_8  and  O_9
REMARK    9  A    between atoms: O_9  and  C_10
REMARK   10  A    between atoms: C_10  and  C_11
REMARK   11  A    between atoms: C_10  and  C_20
REMARK   12  A    between atoms: C_14  and  N_15
REMARK                            x       y       z     vdW  Elec       q    Type
REMARK                         _______ _______ _______ _____ _____    ______ ____
ROOT
ATOM      1  C   UNL     1       3.065   6.467  19.041  0.00  0.00    +0.000 C 
ENDROOT
BRANCH   1   2
ATOM      2  C   UNL     1       2.233   5.220  18.937  0.00  0.00    +0.000 A 
ATOM      3  C   UNL     1       1.832   4.647  17.793  0.00  0.00    +0.000 A 
ATOM      4  N   UNL     1       1.178   3.450  17.780  0.00  0.00    +0.000 N 
ATOM      5  C   UNL     1       0.931   2.712  18.904  0.00  0.00    +0.000 A 
ATOM      6  O   UNL     1       0.367   1.626  18.860  0.00  0.00    +0.000 OA
ATOM      7  N   UNL     1       1.363   3.266  20.076  0.00  0.00    +0.000 N 
ATOM      8  C   UNL     1       1.964   4.489  20.201  0.00  0.00    +0.000 A 
ATOM      9  O   UNL     1       2.284   4.945  21.296  0.00  0.00    +0.000 OA
ATOM     10  H   UNL     1       0.886   3.033  16.904  0.00  0.00    +0.000 HD
ATOM     11  H   UNL     1       1.190   2.742  20.919  0.00  0.00    +0.000 HD
ENDBRANCH   1   2
BRANCH   1  12
ATOM     12  C   UNL     1       2.262   7.763  19.106  0.00  0.00    +0.000 A 
ATOM     13  C   UNL     1       1.673   8.204  20.303  0.00  0.00    +0.000 A 
ATOM     14  C   UNL     1       0.811   9.305  20.311  0.00  0.00    +0.000 A 
ATOM     15  C   UNL     1       0.528   9.972  19.112  0.00  0.00    +0.000 A 
ATOM     16  C   UNL     1       1.125   9.564  17.914  0.00  0.00    +0.000 A 
ATOM     17  C   UNL     1       1.995   8.471  17.919  0.00  0.00    +0.000 A 
BRANCH  15  18
ATOM     18  N   UNL     1      -0.426  11.088  19.104  0.00  0.00    +0.000 N 
ATOM     19  O   UNL     1      -1.170  11.202  18.119  0.00  0.00    +0.000 OA
ATOM     20  O   UNL     1      -0.424  11.856  20.076  0.00  0.00    +0.000 OA
ENDBRANCH  15  18
ENDBRANCH   1  12
BRANCH   1  21
ATOM     21  O   UNL     1       3.968   6.492  17.918  0.00  0.00    +0.000 OA
BRANCH  21  22
ATOM     22  C   UNL     1       5.209   5.816  18.101  0.00  0.00    +0.000 C 
BRANCH  22  23
ATOM     23  C   UNL     1       5.525   4.817  16.994  0.00  0.00    +0.000 C 
BRANCH  23  24
ATOM     24  C   UNL     1       5.669   5.531  15.663  0.00  0.00    +0.000 C 
BRANCH  24  25
ATOM     25  C   UNL     1       6.753   4.876  14.819  0.00  0.00    +0.000 C 
BRANCH  25  26
ATOM     26  C   UNL     1       6.181   3.678  14.066  0.00  0.00    +0.000 C 
BRANCH  26  27
ATOM     27  C   UNL     1       6.356   3.857  12.565  0.00  0.00    +0.000 C 
BRANCH  27  29
ATOM     28  C   UNL     1       4.244   3.274  11.357  0.00  0.00    +0.000 C 
ATOM     29  C   UNL     1       5.607   2.775  11.797  0.00  0.00    +0.000 C 
ENDBRANCH  27  29
ENDBRANCH  26  27
ENDBRANCH  25  26
ENDBRANCH  24  25
ENDBRANCH  23  24
ENDBRANCH  22  23
ENDBRANCH  21  22
ENDBRANCH   1  21
TORSDOF 11
ENDMDL
MODEL 7
REMARK VINA RESULT:      -7.4      3.369      8.109
REMARK  Name = 
REMARK  12 active torsions:
REMARK  status: ('A' for Active; 'I' for Inactive)
REMARK    1  A    between atoms: C_1  and  C_2
REMARK    2  A    between atoms: C_2  and  C_3
REMARK    3  A    between atoms: C_3  and  C_4
REMARK    4  A    between atoms: C_4  and  C_5
REMARK    5  A    between atoms: C_5  and  C_6
REMARK    6  A    between atoms: C_6  and  C_7
REMARK    7  A    between atoms: C_7  and  C_8
REMARK    8  A    between atoms: C_8  and  O_9
REMARK    9  A    between atoms: O_9  and  C_10
REMARK   10  A    between atoms: C_10  and  C_11
REMARK   11  A    between atoms: C_10  and  C_20
REMARK   12  A    between atoms: C_14  and  N_15
REMARK                            x       y       z     vdW  Elec       q    Type
REMARK                         _______ _______ _______ _____ _____    ______ ____
ROOT
ATOM      1  C   UNL     1       2.537   5.882  18.279  0.00  0.00    +0.000 C 
ENDROOT
BRANCH   1   2
ATOM      2  C   UNL     1       2.290   4.868  19.361  0.00  0.00    +0.000 A 
ATOM      3  C   UNL     1       2.759   4.940  20.615  0.00  0.00    +0.000 A 
ATOM      4  N   UNL     1       2.393   4.039  21.572  0.00  0.00    +0.000 N 
ATOM      5  C   UNL     1       1.487   3.039  21.359  0.00  0.00    +0.000 A 
ATOM      6  O   UNL     1       1.155   2.260  22.244  0.00  0.00    +0.000 OA
ATOM      7  N   UNL     1       0.974   2.971  20.095  0.00  0.00    +0.000 N 
ATOM      8  C   UNL     1       1.328   3.781  19.050  0.00  0.00    +0.000 A 
ATOM      9  O   UNL     1       0.858   3.631  17.925  0.00  0.00    +0.000 OA
ATOM     10  H   UNL     1       2.757   4.114  22.514  0.00  0.00    +0.000 HD
ATOM     11  H   UNL     1       0.305   2.239  19.912  0.00  0.00    +0.000 HD
ENDBRANCH   1   2
BRANCH   1  12
ATOM     12  C   UNL     1       3.755   5.595  17.407  0.00  0.00    +0.000 A 
ATOM     13  C   UNL     1       4.504   6.633  16.826  0.00  0.00    +0.000 A 
ATOM     14  C   UNL     1       5.518   6.351  15.905  0.00  0.00    +0.000 A 
ATOM     15  C   UNL     1       5.786   5.022  15.553  0.00  0.00    +0.000 A 
ATOM     16  C   UNL     1       5.069   3.974  16.141  0.00  0.00    +0.000 A 
ATOM     17  C   UNL     1       4.067   4.264  17.070  0.00  0.00    +0.000 A 
BRANCH  15  18
ATOM     18  N   UNL     1       6.804   4.726  14.538  0.00  0.00    +0.000 N 
ATOM     19  O   UNL     1       7.856   5.382  14.569  0.00  0.00    +0.000 OA
ATOM     20  O   UNL     1       6.548   3.846  13.703  0.00  0.00    +0.000 OA
ENDBRANCH  15  18
ENDBRANCH   1  12
BRANCH   1  21
ATOM     21  O   UNL     1       2.660   7.175  18.905  0.00  0.00    +0.000 OA
BRANCH  21  22
ATOM     22  C   UNL     1       1.578   8.077  18.688  0.00  0.00    +0.000 C 
BRANCH  22  23
ATOM     23  C   UNL     1       1.972   9.319  17.898  0.00  0.00    +0.000 C 
BRANCH  23  24
ATOM     24  C   UNL     1       1.340  10.557  18.507  0.00  0.00    +0.000 C 
BRANCH  24  25
ATOM     25  C   UNL     1       0.858  10.270  19.921  0.00  0.00    +0.000 C 
BRANCH  25  26
ATOM     26  C   UNL     1       0.823  11.560  20.736  0.00  0.00    +0.000 C 
BRANCH  26  27
ATOM     27  C   UNL     1      -0.591  11.852  21.216  0.00  0.00    +0.000 C 
BRANCH  27  29
ATOM     28  C   UNL     1      -2.090  11.744  23.215  0.00  0.00    +0.000 C 
ATOM     29  C   UNL     1      -0.879  11.139  22.530  0.00  0.00    +0.000 C 
ENDBRANCH  27  29
ENDBRANCH  26  27
ENDBRANCH  25  26
ENDBRANCH  24  25
ENDBRANCH  23  24
ENDBRANCH  22  23
ENDBRANCH  21  22
ENDBRANCH   1  21
TORSDOF 11
ENDMDL
MODEL 8
REMARK VINA RESULT:      -7.4      3.725      7.426
REMARK  Name = 
REMARK  12 active torsions:
REMARK  status: ('A' for Active; 'I' for Inactive)
REMARK    1  A    between atoms: C_1  and  C_2
REMARK    2  A    between atoms: C_2  and  C_3
REMARK    3  A    between atoms: C_3  and  C_4
REMARK    4  A    between atoms: C_4  and  C_5
REMARK    5  A    between atoms: C_5  and  C_6
REMARK    6  A    between atoms: C_6  and  C_7
REMARK    7  A    between atoms: C_7  and  C_8
REMARK    8  A    between atoms: C_8  and  O_9
REMARK    9  A    between atoms: O_9  and  C_10
REMARK   10  A    between atoms: C_10  and  C_11
REMARK   11  A    between atoms: C_10  and  C_20
REMARK   12  A    between atoms: C_14  and  N_15
REMARK                            x       y       z     vdW  Elec       q    Type
REMARK                         _______ _______ _______ _____ _____    ______ ____
ROOT
ATOM      1  C   UNL     1       4.972   4.686  17.739  0.00  0.00    +0.000 C 
ENDROOT
BRANCH   1   2
ATOM      2  C   UNL     1       3.715   3.882  17.920  0.00  0.00    +0.000 A 
ATOM      3  C   UNL     1       3.663   2.561  18.140  0.00  0.00    +0.000 A 
ATOM      4  N   UNL     1       2.487   1.923  18.411  0.00  0.00    +0.000 N 
ATOM      5  C   UNL     1       1.291   2.570  18.540  0.00  0.00    +0.000 A 
ATOM      6  O   UNL     1       0.254   1.976  18.812  0.00  0.00    +0.000 OA
ATOM      7  N   UNL     1       1.330   3.922  18.351  0.00  0.00    +0.000 N 
ATOM      8  C   UNL     1       2.443   4.642  18.008  0.00  0.00    +0.000 A 
ATOM      9  O   UNL     1       2.394   5.853  17.808  0.00  0.00    +0.000 OA
ATOM     10  H   UNL     1       2.471   0.923  18.577  0.00  0.00    +0.000 HD
ATOM     11  H   UNL     1       0.460   4.421  18.438  0.00  0.00    +0.000 HD
ENDBRANCH   1   2
BRANCH   1  12
ATOM     12  C   UNL     1       5.639   4.523  16.377  0.00  0.00    +0.000 A 
ATOM     13  C   UNL     1       6.992   4.847  16.177  0.00  0.00    +0.000 A 
ATOM     14  C   UNL     1       7.544   4.843  14.892  0.00  0.00    +0.000 A 
ATOM     15  C   UNL     1       6.739   4.519  13.792  0.00  0.00    +0.000 A 
ATOM     16  C   UNL     1       5.396   4.168  13.974  0.00  0.00    +0.000 A 
ATOM     17  C   UNL     1       4.857   4.162  15.263  0.00  0.00    +0.000 A 
BRANCH  15  18
ATOM     18  N   UNL     1       7.297   4.577  12.436  0.00  0.00    +0.000 N 
ATOM     19  O   UNL     1       7.070   3.622  11.679  0.00  0.00    +0.000 OA
ATOM     20  O   UNL     1       7.972   5.571  12.131  0.00  0.00    +0.000 OA
ENDBRANCH  15  18
ENDBRANCH   1  12
BRANCH   1  21
ATOM     21  O   UNL     1       5.886   4.320  18.793  0.00  0.00    +0.000 OA
BRANCH  21  22
ATOM     22  C   UNL     1       6.477   5.402  19.508  0.00  0.00    +0.000 C 
BRANCH  22  23
ATOM     23  C   UNL     1       7.972   5.553  19.255  0.00  0.00    +0.000 C 
BRANCH  23  24
ATOM     24  C   UNL     1       8.332   7.015  19.067  0.00  0.00    +0.000 C 
BRANCH  24  25
ATOM     25  C   UNL     1       7.751   7.546  17.766  0.00  0.00    +0.000 C 
BRANCH  25  26
ATOM     26  C   UNL     1       7.827   9.070  17.739  0.00  0.00    +0.000 C 
BRANCH  26  27
ATOM     27  C   UNL     1       8.844   9.573  18.753  0.00  0.00    +0.000 C 
BRANCH  27  29
ATOM     28  C   UNL     1      10.311  11.513  19.338  0.00  0.00    +0.000 C 
ATOM     29  C   UNL     1       9.593  10.786  18.217  0.00  0.00    +0.000 C 
ENDBRANCH  27  29
ENDBRANCH  26  27
ENDBRANCH  25  26
ENDBRANCH  24  25
ENDBRANCH  23  24
ENDBRANCH  22  23
ENDBRANCH  21  22
ENDBRANCH   1  21
TORSDOF 11
ENDMDL
MODEL 9
REMARK VINA RESULT:      -7.4      2.837      5.293
REMARK  Name = 
REMARK  12 active torsions:
REMARK  status: ('A' for Active; 'I' for Inactive)
REMARK    1  A    between atoms: C_1  and  C_2
REMARK    2  A    between atoms: C_2  and  C_3
REMARK    3  A    between atoms: C_3  and  C_4
REMARK    4  A    between atoms: C_4  and  C_5
REMARK    5  A    between atoms: C_5  and  C_6
REMARK    6  A    between atoms: C_6  and  C_7
REMARK    7  A    between atoms: C_7  and  C_8
REMARK    8  A    between atoms: C_8  and  O_9
REMARK    9  A    between atoms: O_9  and  C_10
REMARK   10  A    between atoms: C_10  and  C_11
REMARK   11  A    between atoms: C_10  and  C_20
REMARK   12  A    between atoms: C_14  and  N_15
REMARK                            x       y       z     vdW  Elec       q    Type
REMARK                         _______ _______ _______ _____ _____    ______ ____
ROOT
ATOM      1  C   UNL     1       3.830   5.466  18.316  0.00  0.00    +0.000 C 
ENDROOT
BRANCH   1   2
ATOM      2  C   UNL     1       4.909   5.606  17.279  0.00  0.00    +0.000 A 
ATOM      3  C   UNL     1       5.976   6.412  17.372  0.00  0.00    +0.000 A 
ATOM      4  N   UNL     1       6.973   6.395  16.440  0.00  0.00    +0.000 N 
ATOM      5  C   UNL     1       7.002   5.530  15.382  0.00  0.00    +0.000 A 
ATOM      6  O   UNL     1       7.924   5.517  14.576  0.00  0.00    +0.000 OA
ATOM      7  N   UNL     1       5.938   4.678  15.290  0.00  0.00    +0.000 N 
ATOM      8  C   UNL     1       4.858   4.665  16.132  0.00  0.00    +0.000 A 
ATOM      9  O   UNL     1       3.913   3.900  15.960  0.00  0.00    +0.000 OA
ATOM     10  H   UNL     1       7.772   7.011  16.530  0.00  0.00    +0.000 HD
ATOM     11  H   UNL     1       5.935   4.032  14.517  0.00  0.00    +0.000 HD
ENDBRANCH   1   2
BRANCH   1  12
ATOM     12  C   UNL     1       3.085   6.759  18.635  0.00  0.00    +0.000 A 
ATOM     13  C   UNL     1       2.451   6.956  19.873  0.00  0.00    +0.000 A 
ATOM     14  C   UNL     1       1.641   8.076  20.090  0.00  0.00    +0.000 A 
ATOM     15  C   UNL     1       1.456   9.007  19.060  0.00  0.00    +0.000 A 
ATOM     16  C   UNL     1       2.100   8.842  17.828  0.00  0.00    +0.000 A 
ATOM     17  C   UNL     1       2.917   7.727  17.626  0.00  0.00    +0.000 A 
BRANCH  15  18
ATOM     18  N   UNL     1       0.556  10.149  19.261  0.00  0.00    +0.000 N 
ATOM     19  O   UNL     1       0.585  10.718  20.362  0.00  0.00    +0.000 OA
ATOM     20  O   UNL     1      -0.189  10.469  18.323  0.00  0.00    +0.000 OA
ENDBRANCH  15  18
ENDBRANCH   1  12
BRANCH   1  21
ATOM     21  O   UNL     1       4.432   4.926  19.510  0.00  0.00    +0.000 OA
BRANCH  21  22
ATOM     22  C   UNL     1       5.093   3.672  19.362  0.00  0.00    +0.000 C 
BRANCH  22  23
ATOM     23  C   UNL     1       4.212   2.477  19.705  0.00  0.00    +0.000 C 
BRANCH  23  24
ATOM     24  C   UNL     1       3.774   1.763  18.440  0.00  0.00    +0.000 C 
BRANCH  24  25
ATOM     25  C   UNL     1       2.261   1.606  18.410  0.00  0.00    +0.000 C 
BRANCH  25  26
ATOM     26  C   UNL     1       1.591   2.977  18.368  0.00  0.00    +0.000 C 
BRANCH  26  27
ATOM     27  C   UNL     1       0.530   3.088  19.453  0.00  0.00    +0.000 C 
BRANCH  27  29
ATOM     28  C   UNL     1       1.398   2.761  21.777  0.00  0.00    +0.000 C 
ATOM     29  C   UNL     1       1.089   3.776  20.692  0.00  0.00    +0.000 C 
ENDBRANCH  27  29
ENDBRANCH  26  27
ENDBRANCH  25  26
ENDBRANCH  24  25
ENDBRANCH  23  24
ENDBRANCH  22  23
ENDBRANCH  21  22
ENDBRANCH   1  21
TORSDOF 11
ENDMDL
