MODEL 1
REMARK VINA RESULT:      -7.8      0.000      0.000
REMARK  Name = 
REMARK  3 active torsions:
REMARK  status: ('A' for Active; 'I' for Inactive)
REMARK    1  A    between atoms: C_2  and  C_3
REMARK    2  A    between atoms: C_3  and  N_4
REMARK    3  A    between atoms: N_18  and  C_19
REMARK                            x       y       z     vdW  Elec       q    Type
REMARK                         _______ _______ _______ _____ _____    ______ ____
ROOT
ATOM      1  N   UNL     1       4.711   4.679  17.546  0.00  0.00    +0.000 N 
ATOM      2  C   UNL     1       5.356   4.171  18.674  0.00  0.00    +0.000 C 
ATOM      3  O   UNL     1       5.109   3.065  19.149  0.00  0.00    +0.000 OA
ATOM      4  C   UNL     1       6.168   5.196  19.441  0.00  0.00    +0.000 C 
ATOM      5  C   UNL     1       7.242   5.937  18.673  0.00  0.00    +0.000 C 
ATOM      6  S   UNL     1       6.630   6.888  17.306  0.00  0.00    +0.000 S 
ATOM      7  O   UNL     1       7.699   7.750  16.853  0.00  0.00    +0.000 OA
ATOM      8  O   UNL     1       5.328   7.438  17.641  0.00  0.00    +0.000 OA
ATOM      9  C   UNL     1       6.398   5.634  16.076  0.00  0.00    +0.000 A 
ATOM     10  C   UNL     1       7.169   5.636  14.910  0.00  0.00    +0.000 A 
ATOM     11  C   UNL     1       7.034   4.589  13.999  0.00  0.00    +0.000 A 
ATOM     12  C   UNL     1       6.131   3.557  14.256  0.00  0.00    +0.000 A 
ATOM     13  C   UNL     1       5.340   3.577  15.413  0.00  0.00    +0.000 A 
ATOM     14  C   UNL     1       5.469   4.621  16.337  0.00  0.00    +0.000 A 
ENDROOT
BRANCH   1  15
ATOM     15  C   UNL     1       3.282   4.379  17.468  0.00  0.00    +0.000 C 
BRANCH  15  17
ATOM     16  O   UNL     1       1.613   4.805  19.129  0.00  0.00    +0.000 OA
ATOM     17  C   UNL     1       2.398   5.303  18.320  0.00  0.00    +0.000 C 
ATOM     18  N   UNL     1       2.655   6.661  18.172  0.00  0.00    +0.000 N 
ATOM     19  H   UNL     1       3.177   6.947  17.343  0.00  0.00    +0.000 HD
BRANCH  18  20
ATOM     20  C   UNL     1       2.082   7.714  18.931  0.00  0.00    +0.000 A 
ATOM     21  C   UNL     1       1.852   7.639  20.307  0.00  0.00    +0.000 A 
ATOM     22  C   UNL     1       1.232   8.691  20.989  0.00  0.00    +0.000 A 
ATOM     23  C   UNL     1       0.851   9.831  20.294  0.00  0.00    +0.000 A 
ATOM     24  F   UNL     1       0.229  10.824  20.940  0.00  0.00    +0.000 F 
ATOM     25  C   UNL     1       1.107   9.948  18.934  0.00  0.00    +0.000 A 
ATOM     26  C   UNL     1       1.733   8.895  18.255  0.00  0.00    +0.000 A 
ENDBRANCH  18  20
ENDBRANCH  15  17
ENDBRANCH   1  15
TORSDOF 3
ENDMDL
MODEL 2
REMARK VINA RESULT:      -7.0      3.106      4.654
REMARK  Name = 
REMARK  3 active torsions:
REMARK  status: ('A' for Active; 'I' for Inactive)
REMARK    1  A    between atoms: C_2  and  C_3
REMARK    2  A    between atoms: C_3  and  N_4
REMARK    3  A    between atoms: N_18  and  C_19
REMARK                            x       y       z     vdW  Elec       q    Type
REMARK                         _______ _______ _______ _____ _____    ______ ____
ROOT
ATOM      1  N   UNL     1       5.657   6.522  17.104  0.00  0.00    +0.000 N 
ATOM      2  C   UNL     1       6.034   5.711  16.034  0.00  0.00    +0.000 C 
ATOM      3  O   UNL     1       5.692   5.925  14.873  0.00  0.00    +0.000 OA
ATOM      4  C   UNL     1       6.649   4.386  16.443  0.00  0.00    +0.000 C 
ATOM      5  C   UNL     1       7.865   4.441  17.343  0.00  0.00    +0.000 C 
ATOM      6  S   UNL     1       7.571   5.222  18.910  0.00  0.00    +0.000 S 
ATOM      7  O   UNL     1       8.711   4.952  19.758  0.00  0.00    +0.000 OA
ATOM      8  O   UNL     1       6.224   4.914  19.360  0.00  0.00    +0.000 OA
ATOM      9  C   UNL     1       7.627   6.936  18.470  0.00  0.00    +0.000 A 
ATOM     10  C   UNL     1       8.640   7.762  18.967  0.00  0.00    +0.000 A 
ATOM     11  C   UNL     1       8.718   9.085  18.535  0.00  0.00    +0.000 A 
ATOM     12  C   UNL     1       7.784   9.573  17.620  0.00  0.00    +0.000 A 
ATOM     13  C   UNL     1       6.754   8.748  17.149  0.00  0.00    +0.000 A 
ATOM     14  C   UNL     1       6.668   7.416  17.572  0.00  0.00    +0.000 A 
ENDROOT
BRANCH   1  15
ATOM     15  C   UNL     1       4.283   7.019  17.044  0.00  0.00    +0.000 C 
BRANCH  15  17
ATOM     16  O   UNL     1       2.491   7.214  18.616  0.00  0.00    +0.000 OA
ATOM     17  C   UNL     1       3.370   6.483  18.157  0.00  0.00    +0.000 C 
ATOM     18  N   UNL     1       3.558   5.144  18.475  0.00  0.00    +0.000 N 
ATOM     19  H   UNL     1       4.432   4.712  18.173  0.00  0.00    +0.000 HD
BRANCH  18  20
ATOM     20  C   UNL     1       2.766   4.370  19.363  0.00  0.00    +0.000 A 
ATOM     21  C   UNL     1       1.663   3.615  18.956  0.00  0.00    +0.000 A 
ATOM     22  C   UNL     1       0.889   2.917  19.890  0.00  0.00    +0.000 A 
ATOM     23  C   UNL     1       1.227   2.964  21.235  0.00  0.00    +0.000 A 
ATOM     24  F   UNL     1       0.467   2.322  22.131  0.00  0.00    +0.000 F 
ATOM     25  C   UNL     1       2.343   3.671  21.659  0.00  0.00    +0.000 A 
ATOM     26  C   UNL     1       3.120   4.365  20.722  0.00  0.00    +0.000 A 
ENDBRANCH  18  20
ENDBRANCH  15  17
ENDBRANCH   1  15
TORSDOF 3
ENDMDL
MODEL 3
REMARK VINA RESULT:      -6.9      3.689      7.101
REMARK  Name = 
REMARK  3 active torsions:
REMARK  status: ('A' for Active; 'I' for Inactive)
REMARK    1  A    between atoms: C_2  and  C_3
REMARK    2  A    between atoms: C_3  and  N_4
REMARK    3  A    between atoms: N_18  and  C_19
REMARK                            x       y       z     vdW  Elec       q    Type
REMARK                         _______ _______ _______ _____ _____    ______ ____
ROOT
ATOM      1  N   UNL     1       4.396   5.520  18.425  0.00  0.00    +0.000 N 
ATOM      2  C   UNL     1       5.469   4.934  19.095  0.00  0.00    +0.000 C 
ATOM      3  O   UNL     1       6.362   5.582  19.635  0.00  0.00    +0.000 OA
ATOM      4  C   UNL     1       5.612   3.442  18.856  0.00  0.00    +0.000 C 
ATOM      5  C   UNL     1       4.417   2.575  19.190  0.00  0.00    +0.000 C 
ATOM      6  S   UNL     1       2.955   2.968  18.263  0.00  0.00    +0.000 S 
ATOM      7  O   UNL     1       2.001   1.901  18.471  0.00  0.00    +0.000 OA
ATOM      8  O   UNL     1       3.327   3.378  16.920  0.00  0.00    +0.000 OA
ATOM      9  C   UNL     1       2.358   4.394  19.128  0.00  0.00    +0.000 A 
ATOM     10  C   UNL     1       1.141   4.346  19.815  0.00  0.00    +0.000 A 
ATOM     11  C   UNL     1       0.734   5.449  20.564  0.00  0.00    +0.000 A 
ATOM     12  C   UNL     1       1.539   6.588  20.617  0.00  0.00    +0.000 A 
ATOM     13  C   UNL     1       2.745   6.639  19.902  0.00  0.00    +0.000 A 
ATOM     14  C   UNL     1       3.165   5.535  19.149  0.00  0.00    +0.000 A 
ENDROOT
BRANCH   1  15
ATOM     15  C   UNL     1       4.736   6.704  17.637  0.00  0.00    +0.000 C 
BRANCH  15  17
ATOM     16  O   UNL     1       4.858   7.330  15.331  0.00  0.00    +0.000 OA
ATOM     17  C   UNL     1       4.990   6.418  16.149  0.00  0.00    +0.000 C 
ATOM     18  N   UNL     1       5.467   5.143  15.870  0.00  0.00    +0.000 N 
ATOM     19  H   UNL     1       5.345   4.433  16.592  0.00  0.00    +0.000 HD
BRANCH  18  20
ATOM     20  C   UNL     1       5.905   4.665  14.608  0.00  0.00    +0.000 A 
ATOM     21  C   UNL     1       5.155   3.800  13.806  0.00  0.00    +0.000 A 
ATOM     22  C   UNL     1       5.668   3.320  12.596  0.00  0.00    +0.000 A 
ATOM     23  C   UNL     1       6.931   3.716  12.179  0.00  0.00    +0.000 A 
ATOM     24  F   UNL     1       7.433   3.231  11.037  0.00  0.00    +0.000 F 
ATOM     25  C   UNL     1       7.678   4.608  12.936  0.00  0.00    +0.000 A 
ATOM     26  C   UNL     1       7.161   5.092  14.145  0.00  0.00    +0.000 A 
ENDBRANCH  18  20
ENDBRANCH  15  17
ENDBRANCH   1  15
TORSDOF 3
ENDMDL
MODEL 4
REMARK VINA RESULT:      -6.9      3.649      7.137
REMARK  Name = 
REMARK  3 active torsions:
REMARK  status: ('A' for Active; 'I' for Inactive)
REMARK    1  A    between atoms: C_2  and  C_3
REMARK    2  A    between atoms: C_3  and  N_4
REMARK    3  A    between atoms: N_18  and  C_19
REMARK                            x       y       z     vdW  Elec       q    Type
REMARK                         _______ _______ _______ _____ _____    ______ ____
ROOT
ATOM      1  N   UNL     1       4.252   5.468  18.481  0.00  0.00    +0.000 N 
ATOM      2  C   UNL     1       5.345   4.905  19.139  0.00  0.00    +0.000 C 
ATOM      3  O   UNL     1       6.230   5.573  19.669  0.00  0.00    +0.000 OA
ATOM      4  C   UNL     1       5.516   3.417  18.900  0.00  0.00    +0.000 C 
ATOM      5  C   UNL     1       4.343   2.525  19.248  0.00  0.00    +0.000 C 
ATOM      6  S   UNL     1       2.863   2.886  18.337  0.00  0.00    +0.000 S 
ATOM      7  O   UNL     1       1.934   1.800  18.556  0.00  0.00    +0.000 OA
ATOM      8  O   UNL     1       3.212   3.302  16.990  0.00  0.00    +0.000 OA
ATOM      9  C   UNL     1       2.246   4.300  19.207  0.00  0.00    +0.000 A 
ATOM     10  C   UNL     1       1.038   4.228  19.907  0.00  0.00    +0.000 A 
ATOM     11  C   UNL     1       0.617   5.323  20.660  0.00  0.00    +0.000 A 
ATOM     12  C   UNL     1       1.398   6.478  20.702  0.00  0.00    +0.000 A 
ATOM     13  C   UNL     1       2.595   6.554  19.975  0.00  0.00    +0.000 A 
ATOM     14  C   UNL     1       3.029   5.458  19.219  0.00  0.00    +0.000 A 
ENDROOT
BRANCH   1  15
ATOM     15  C   UNL     1       4.560   6.658  17.688  0.00  0.00    +0.000 C 
BRANCH  15  17
ATOM     16  O   UNL     1       6.525   7.005  16.368  0.00  0.00    +0.000 OA
ATOM     17  C   UNL     1       5.463   6.389  16.475  0.00  0.00    +0.000 C 
ATOM     18  N   UNL     1       5.035   5.363  15.641  0.00  0.00    +0.000 N 
ATOM     19  H   UNL     1       4.060   5.074  15.723  0.00  0.00    +0.000 HD
BRANCH  18  20
ATOM     20  C   UNL     1       5.743   4.825  14.536  0.00  0.00    +0.000 A 
ATOM     21  C   UNL     1       7.060   5.171  14.219  0.00  0.00    +0.000 A 
ATOM     22  C   UNL     1       7.685   4.648  13.082  0.00  0.00    +0.000 A 
ATOM     23  C   UNL     1       6.995   3.764  12.264  0.00  0.00    +0.000 A 
ATOM     24  F   UNL     1       7.582   3.289  11.159  0.00  0.00    +0.000 F 
ATOM     25  C   UNL     1       5.701   3.372  12.579  0.00  0.00    +0.000 A 
ATOM     26  C   UNL     1       5.079   3.893  13.722  0.00  0.00    +0.000 A 
ENDBRANCH  18  20
ENDBRANCH  15  17
ENDBRANCH   1  15
TORSDOF 3
ENDMDL
MODEL 5
REMARK VINA RESULT:      -6.7      3.772      7.242
REMARK  Name = 
REMARK  3 active torsions:
REMARK  status: ('A' for Active; 'I' for Inactive)
REMARK    1  A    between atoms: C_2  and  C_3
REMARK    2  A    between atoms: C_3  and  N_4
REMARK    3  A    between atoms: N_18  and  C_19
REMARK                            x       y       z     vdW  Elec       q    Type
REMARK                         _______ _______ _______ _____ _____    ______ ____
ROOT
ATOM      1  N   UNL     1       5.291   5.530  17.830  0.00  0.00    +0.000 N 
ATOM      2  C   UNL     1       5.671   4.988  19.058  0.00  0.00    +0.000 C 
ATOM      3  O   UNL     1       6.551   5.474  19.764  0.00  0.00    +0.000 OA
ATOM      4  C   UNL     1       5.127   3.597  19.319  0.00  0.00    +0.000 C 
ATOM      5  C   UNL     1       3.625   3.423  19.260  0.00  0.00    +0.000 C 
ATOM      6  S   UNL     1       2.911   3.817  17.683  0.00  0.00    +0.000 S 
ATOM      7  O   UNL     1       1.546   3.341  17.684  0.00  0.00    +0.000 OA
ATOM      8  O   UNL     1       3.829   3.430  16.625  0.00  0.00    +0.000 OA
ATOM      9  C   UNL     1       2.860   5.586  17.747  0.00  0.00    +0.000 A 
ATOM     10  C   UNL     1       1.634   6.259  17.756  0.00  0.00    +0.000 A 
ATOM     11  C   UNL     1       1.615   7.645  17.900  0.00  0.00    +0.000 A 
ATOM     12  C   UNL     1       2.815   8.346  18.026  0.00  0.00    +0.000 A 
ATOM     13  C   UNL     1       4.042   7.669  17.987  0.00  0.00    +0.000 A 
ATOM     14  C   UNL     1       4.072   6.276  17.847  0.00  0.00    +0.000 A 
ENDROOT
BRANCH   1  15
ATOM     15  C   UNL     1       6.393   6.045  17.018  0.00  0.00    +0.000 C 
BRANCH  15  17
ATOM     16  O   UNL     1       7.782   4.359  16.043  0.00  0.00    +0.000 OA
ATOM     17  C   UNL     1       6.822   5.112  15.875  0.00  0.00    +0.000 C 
ATOM     18  N   UNL     1       5.990   5.128  14.762  0.00  0.00    +0.000 N 
ATOM     19  H   UNL     1       5.358   5.923  14.666  0.00  0.00    +0.000 HD
BRANCH  18  20
ATOM     20  C   UNL     1       6.079   4.275  13.632  0.00  0.00    +0.000 A 
ATOM     21  C   UNL     1       5.022   3.481  13.178  0.00  0.00    +0.000 A 
ATOM     22  C   UNL     1       5.190   2.617  12.090  0.00  0.00    +0.000 A 
ATOM     23  C   UNL     1       6.417   2.556  11.445  0.00  0.00    +0.000 A 
ATOM     24  F   UNL     1       6.587   1.706  10.424  0.00  0.00    +0.000 F 
ATOM     25  C   UNL     1       7.470   3.365  11.849  0.00  0.00    +0.000 A 
ATOM     26  C   UNL     1       7.298   4.233  12.935  0.00  0.00    +0.000 A 
ENDBRANCH  18  20
ENDBRANCH  15  17
ENDBRANCH   1  15
TORSDOF 3
ENDMDL
MODEL 6
REMARK VINA RESULT:      -6.7      1.065      1.511
REMARK  Name = 
REMARK  3 active torsions:
REMARK  status: ('A' for Active; 'I' for Inactive)
REMARK    1  A    between atoms: C_2  and  C_3
REMARK    2  A    between atoms: C_3  and  N_4
REMARK    3  A    between atoms: N_18  and  C_19
REMARK                            x       y       z     vdW  Elec       q    Type
REMARK                         _______ _______ _______ _____ _____    ______ ____
ROOT
ATOM      1  N   UNL     1       4.820   5.212  18.019  0.00  0.00    +0.000 N 
ATOM      2  C   UNL     1       5.522   4.607  19.062  0.00  0.00    +0.000 C 
ATOM      3  O   UNL     1       5.115   3.616  19.662  0.00  0.00    +0.000 OA
ATOM      4  C   UNL     1       6.678   5.433  19.595  0.00  0.00    +0.000 C 
ATOM      5  C   UNL     1       7.736   5.857  18.600  0.00  0.00    +0.000 C 
ATOM      6  S   UNL     1       7.124   6.872  17.279  0.00  0.00    +0.000 S 
ATOM      7  O   UNL     1       8.265   7.427  16.584  0.00  0.00    +0.000 OA
ATOM      8  O   UNL     1       6.071   7.737  17.780  0.00  0.00    +0.000 OA
ATOM      9  C   UNL     1       6.386   5.664  16.214  0.00  0.00    +0.000 A 
ATOM     10  C   UNL     1       6.910   5.430  14.940  0.00  0.00    +0.000 A 
ATOM     11  C   UNL     1       6.372   4.412  14.155  0.00  0.00    +0.000 A 
ATOM     12  C   UNL     1       5.314   3.644  14.644  0.00  0.00    +0.000 A 
ATOM     13  C   UNL     1       4.774   3.904  15.911  0.00  0.00    +0.000 A 
ATOM     14  C   UNL     1       5.310   4.921  16.710  0.00  0.00    +0.000 A 
ENDROOT
BRANCH   1  15
ATOM     15  C   UNL     1       3.371   5.268  18.207  0.00  0.00    +0.000 C 
BRANCH  15  17
ATOM     16  O   UNL     1       2.743   7.472  17.520  0.00  0.00    +0.000 OA
ATOM     17  C   UNL     1       2.823   6.681  18.461  0.00  0.00    +0.000 C 
ATOM     18  N   UNL     1       2.352   6.904  19.749  0.00  0.00    +0.000 N 
ATOM     19  H   UNL     1       2.652   6.252  20.473  0.00  0.00    +0.000 HD
BRANCH  18  20
ATOM     20  C   UNL     1       1.679   8.065  20.210  0.00  0.00    +0.000 A 
ATOM     21  C   UNL     1       1.344   9.143  19.386  0.00  0.00    +0.000 A 
ATOM     22  C   UNL     1       0.731  10.285  19.913  0.00  0.00    +0.000 A 
ATOM     23  C   UNL     1       0.438  10.344  21.268  0.00  0.00    +0.000 A 
ATOM     24  F   UNL     1      -0.120  11.449  21.777  0.00  0.00    +0.000 F 
ATOM     25  C   UNL     1       0.722   9.270  22.101  0.00  0.00    +0.000 A 
ATOM     26  C   UNL     1       1.331   8.126  21.570  0.00  0.00    +0.000 A 
ENDBRANCH  18  20
ENDBRANCH  15  17
ENDBRANCH   1  15
TORSDOF 3
ENDMDL
MODEL 7
REMARK VINA RESULT:      -6.5      5.046      8.423
REMARK  Name = 
REMARK  3 active torsions:
REMARK  status: ('A' for Active; 'I' for Inactive)
REMARK    1  A    between atoms: C_2  and  C_3
REMARK    2  A    between atoms: C_3  and  N_4
REMARK    3  A    between atoms: N_18  and  C_19
REMARK                            x       y       z     vdW  Elec       q    Type
REMARK                         _______ _______ _______ _____ _____    ______ ____
ROOT
ATOM      1  N   UNL     1       0.186  11.191  21.293  0.00  0.00    +0.000 N 
ATOM      2  C   UNL     1      -0.806  11.780  22.075  0.00  0.00    +0.000 C 
ATOM      3  O   UNL     1      -0.650  12.064  23.260  0.00  0.00    +0.000 OA
ATOM      4  C   UNL     1      -2.184  11.776  21.440  0.00  0.00    +0.000 C 
ATOM      5  C   UNL     1      -2.316  12.427  20.080  0.00  0.00    +0.000 C 
ATOM      6  S   UNL     1      -1.316  11.678  18.818  0.00  0.00    +0.000 S 
ATOM      7  O   UNL     1      -1.749  12.203  17.542  0.00  0.00    +0.000 OA
ATOM      8  O   UNL     1      -1.244  10.245  19.044  0.00  0.00    +0.000 OA
ATOM      9  C   UNL     1       0.276  12.372  19.168  0.00  0.00    +0.000 A 
ATOM     10  C   UNL     1       0.889  13.232  18.252  0.00  0.00    +0.000 A 
ATOM     11  C   UNL     1       2.099  13.838  18.587  0.00  0.00    +0.000 A 
ATOM     12  C   UNL     1       2.687  13.577  19.825  0.00  0.00    +0.000 A 
ATOM     13  C   UNL     1       2.081  12.691  20.727  0.00  0.00    +0.000 A 
ATOM     14  C   UNL     1       0.863  12.080  20.402  0.00  0.00    +0.000 A 
ENDROOT
BRANCH   1  15
ATOM     15  C   UNL     1       0.984  10.174  21.976  0.00  0.00    +0.000 C 
BRANCH  15  17
ATOM     16  O   UNL     1      -0.348   8.257  21.450  0.00  0.00    +0.000 OA
ATOM     17  C   UNL     1       0.781   8.749  21.438  0.00  0.00    +0.000 C 
ATOM     18  N   UNL     1       1.909   8.172  20.866  0.00  0.00    +0.000 N 
ATOM     19  H   UNL     1       2.811   8.592  21.093  0.00  0.00    +0.000 HD
BRANCH  18  20
ATOM     20  C   UNL     1       1.965   6.931  20.181  0.00  0.00    +0.000 A 
ATOM     21  C   UNL     1       1.622   5.709  20.766  0.00  0.00    +0.000 A 
ATOM     22  C   UNL     1       1.752   4.512  20.053  0.00  0.00    +0.000 A 
ATOM     23  C   UNL     1       2.215   4.538  18.746  0.00  0.00    +0.000 A 
ATOM     24  F   UNL     1       2.370   3.389  18.076  0.00  0.00    +0.000 F 
ATOM     25  C   UNL     1       2.523   5.742  18.128  0.00  0.00    +0.000 A 
ATOM     26  C   UNL     1       2.386   6.940  18.841  0.00  0.00    +0.000 A 
ENDBRANCH  18  20
ENDBRANCH  15  17
ENDBRANCH   1  15
TORSDOF 3
ENDMDL
MODEL 8
REMARK VINA RESULT:      -6.3      6.814      9.172
REMARK  Name = 
REMARK  3 active torsions:
REMARK  status: ('A' for Active; 'I' for Inactive)
REMARK    1  A    between atoms: C_2  and  C_3
REMARK    2  A    between atoms: C_3  and  N_4
REMARK    3  A    between atoms: N_18  and  C_19
REMARK                            x       y       z     vdW  Elec       q    Type
REMARK                         _______ _______ _______ _____ _____    ______ ____
ROOT
ATOM      1  N   UNL     1      -0.924  12.164  20.006  0.00  0.00    +0.000 N 
ATOM      2  C   UNL     1      -0.800  11.483  21.217  0.00  0.00    +0.000 C 
ATOM      3  O   UNL     1      -1.482  11.738  22.206  0.00  0.00    +0.000 OA
ATOM      4  C   UNL     1       0.434  10.606  21.313  0.00  0.00    +0.000 C 
ATOM      5  C   UNL     1       0.612   9.548  20.246  0.00  0.00    +0.000 C 
ATOM      6  S   UNL     1       0.737  10.196  18.598  0.00  0.00    +0.000 S 
ATOM      7  O   UNL     1       1.183   9.124  17.735  0.00  0.00    +0.000 OA
ATOM      8  O   UNL     1       1.444  11.465  18.628  0.00  0.00    +0.000 OA
ATOM      9  C   UNL     1      -0.961  10.520  18.213  0.00  0.00    +0.000 A 
ATOM     10  C   UNL     1      -1.606   9.805  17.200  0.00  0.00    +0.000 A 
ATOM     11  C   UNL     1      -2.966  10.011  16.975  0.00  0.00    +0.000 A 
ATOM     12  C   UNL     1      -3.666  10.931  17.756  0.00  0.00    +0.000 A 
ATOM     13  C   UNL     1      -3.007  11.667  18.751  0.00  0.00    +0.000 A 
ATOM     14  C   UNL     1      -1.642  11.464  18.988  0.00  0.00    +0.000 A 
ENDROOT
BRANCH   1  15
ATOM     15  C   UNL     1      -1.150  13.603  20.131  0.00  0.00    +0.000 C 
BRANCH  15  17
ATOM     16  O   UNL     1      -0.488  15.378  18.671  0.00  0.00    +0.000 OA
ATOM     17  C   UNL     1      -0.107  14.469  19.410  0.00  0.00    +0.000 C 
ATOM     18  N   UNL     1       1.213  14.209  19.758  0.00  0.00    +0.000 N 
ATOM     19  H   UNL     1       1.405  13.318  20.218  0.00  0.00    +0.000 HD
BRANCH  18  20
ATOM     20  C   UNL     1       2.354  14.945  19.346  0.00  0.00    +0.000 A 
ATOM     21  C   UNL     1       3.045  14.697  18.156  0.00  0.00    +0.000 A 
ATOM     22  C   UNL     1       4.198  15.422  17.834  0.00  0.00    +0.000 A 
ATOM     23  C   UNL     1       4.654  16.408  18.697  0.00  0.00    +0.000 A 
ATOM     24  F   UNL     1       5.775  17.079  18.403  0.00  0.00    +0.000 F 
ATOM     25  C   UNL     1       3.962  16.702  19.864  0.00  0.00    +0.000 A 
ATOM     26  C   UNL     1       2.805  15.979  20.183  0.00  0.00    +0.000 A 
ENDBRANCH  18  20
ENDBRANCH  15  17
ENDBRANCH   1  15
TORSDOF 3
ENDMDL
MODEL 9
REMARK VINA RESULT:      -6.3      9.100     12.439
REMARK  Name = 
REMARK  3 active torsions:
REMARK  status: ('A' for Active; 'I' for Inactive)
REMARK    1  A    between atoms: C_2  and  C_3
REMARK    2  A    between atoms: C_3  and  N_4
REMARK    3  A    between atoms: N_18  and  C_19
REMARK                            x       y       z     vdW  Elec       q    Type
REMARK                         _______ _______ _______ _____ _____    ______ ____
ROOT
ATOM      1  N   UNL     1      -5.050  13.964  21.010  0.00  0.00    +0.000 N 
ATOM      2  C   UNL     1      -4.888  15.349  20.984  0.00  0.00    +0.000 C 
ATOM      3  O   UNL     1      -5.823  16.134  20.851  0.00  0.00    +0.000 OA
ATOM      4  C   UNL     1      -3.448  15.803  20.837  0.00  0.00    +0.000 C 
ATOM      5  C   UNL     1      -2.461  15.309  21.873  0.00  0.00    +0.000 C 
ATOM      6  S   UNL     1      -2.295  13.543  21.931  0.00  0.00    +0.000 S 
ATOM      7  O   UNL     1      -1.138  13.235  22.743  0.00  0.00    +0.000 OA
ATOM      8  O   UNL     1      -2.425  12.999  20.591  0.00  0.00    +0.000 OA
ATOM      9  C   UNL     1      -3.734  13.081  22.855  0.00  0.00    +0.000 A 
ATOM     10  C   UNL     1      -3.605  12.498  24.120  0.00  0.00    +0.000 A 
ATOM     11  C   UNL     1      -4.750  12.227  24.868  0.00  0.00    +0.000 A 
ATOM     12  C   UNL     1      -6.008  12.532  24.347  0.00  0.00    +0.000 A 
ATOM     13  C   UNL     1      -6.131  13.090  23.067  0.00  0.00    +0.000 A 
ATOM     14  C   UNL     1      -4.987  13.370  22.308  0.00  0.00    +0.000 A 
ENDROOT
BRANCH   1  15
ATOM     15  C   UNL     1      -6.044  13.445  20.072  0.00  0.00    +0.000 C 
BRANCH  15  17
ATOM     16  O   UNL     1      -6.278  11.212  19.243  0.00  0.00    +0.000 OA
ATOM     17  C   UNL     1      -5.573  12.223  19.268  0.00  0.00    +0.000 C 
ATOM     18  N   UNL     1      -4.412  12.419  18.530  0.00  0.00    +0.000 N 
ATOM     19  H   UNL     1      -3.827  13.214  18.787  0.00  0.00    +0.000 HD
BRANCH  18  20
ATOM     20  C   UNL     1      -3.838  11.509  17.606  0.00  0.00    +0.000 A 
ATOM     21  C   UNL     1      -2.744  10.692  17.903  0.00  0.00    +0.000 A 
ATOM     22  C   UNL     1      -2.188   9.855  16.929  0.00  0.00    +0.000 A 
ATOM     23  C   UNL     1      -2.737   9.824  15.655  0.00  0.00    +0.000 A 
ATOM     24  F   UNL     1      -2.185   9.047  14.715  0.00  0.00    +0.000 F 
ATOM     25  C   UNL     1      -3.850  10.594  15.346  0.00  0.00    +0.000 A 
ATOM     26  C   UNL     1      -4.409  11.427  16.325  0.00  0.00    +0.000 A 
ENDBRANCH  18  20
ENDBRANCH  15  17
ENDBRANCH   1  15
TORSDOF 3
ENDMDL
