MODEL 1
REMARK VINA RESULT:      -5.9      0.000      0.000
REMARK  Name = 
REMARK  18 active torsions:
REMARK  status: ('A' for Active; 'I' for Inactive)
REMARK    1  A    between atoms: C_1  and  O_2
REMARK    2  A    between atoms: O_2  and  C_3
REMARK    3  A    between atoms: C_3  and  C_5
REMARK    4  A    between atoms: N_10  and  C_11
REMARK    5  A    between atoms: C_11  and  C_12
REMARK    6  A    between atoms: C_11  and  C_24
REMARK    7  A    between atoms: C_14  and  O_15
REMARK    8  A    between atoms: O_15  and  C_16
REMARK    9  A    between atoms: C_17  and  O_18
REMARK   10  A    between atoms: O_18  and  C_19
REMARK   11  A    between atoms: C_20  and  O_21
REMARK   12  A    between atoms: O_21  and  C_22
REMARK   13  A    between atoms: C_26  and  O_27
REMARK   14  A    between atoms: O_27  and  C_28
REMARK   15  A    between atoms: C_29  and  O_30
REMARK   16  A    between atoms: O_30  and  C_31
REMARK   17  A    between atoms: C_32  and  O_33
REMARK   18  A    between atoms: O_33  and  C_34
REMARK                            x       y       z     vdW  Elec       q    Type
REMARK                         _______ _______ _______ _____ _____    ______ ____
ROOT
ATOM      1  C   UNL     1      -0.236  11.678  20.133  0.00  0.00    +0.000 C 
ENDROOT
BRANCH   1   7
ATOM      2  C   UNL     1       0.432   9.250  20.616  0.00  0.00    +0.000 C 
ATOM      3  C   UNL     1       1.529   8.351  20.052  0.00  0.00    +0.000 C 
ATOM      4  C   UNL     1       1.721   8.833  18.628  0.00  0.00    +0.000 C 
ATOM      5  C   UNL     1       1.340  10.286  18.704  0.00  0.00    +0.000 C 
ATOM      6  O   UNL     1       1.606  11.105  17.828  0.00  0.00    +0.000 OA
ATOM      7  N   UNL     1       0.530  10.464  19.814  0.00  0.00    +0.000 N 
BRANCH   2   8
ATOM      8  C   UNL     1       0.692   9.447  22.113  0.00  0.00    +0.000 C 
ATOM      9  O   UNL     1       1.772   9.745  22.609  0.00  0.00    +0.000 OA
BRANCH   8  11
ATOM     10  C   UNL     1      -1.090  10.472  23.227  0.00  0.00    +0.000 C 
ATOM     11  O   UNL     1      -0.458   9.255  22.819  0.00  0.00    +0.000 OA
ENDBRANCH   8  11
ENDBRANCH   2   8
ENDBRANCH   1   7
BRANCH   1  12
ATOM     12  C   UNL     1       0.603  12.911  19.860  0.00  0.00    +0.000 A 
ATOM     13  C   UNL     1       1.879  13.049  20.405  0.00  0.00    +0.000 A 
ATOM     14  C   UNL     1       2.661  14.173  20.143  0.00  0.00    +0.000 A 
ATOM     15  C   UNL     1       2.120  15.241  19.391  0.00  0.00    +0.000 A 
ATOM     16  C   UNL     1       0.804  15.140  18.895  0.00  0.00    +0.000 A 
ATOM     17  C   UNL     1       0.087  13.955  19.093  0.00  0.00    +0.000 A 
BRANCH  14  18
ATOM     18  O   UNL     1       3.951  14.282  20.613  0.00  0.00    +0.000 OA
ATOM     19  C   UNL     1       4.077  14.340  22.038  0.00  0.00    +0.000 C 
ENDBRANCH  14  18
BRANCH  15  20
ATOM     20  O   UNL     1       2.936  16.343  19.267  0.00  0.00    +0.000 OA
ATOM     21  C   UNL     1       3.649  16.481  18.045  0.00  0.00    +0.000 C 
ENDBRANCH  15  20
BRANCH  16  22
ATOM     22  O   UNL     1       0.246  16.184  18.198  0.00  0.00    +0.000 OA
ATOM     23  C   UNL     1      -0.748  16.941  18.889  0.00  0.00    +0.000 C 
ENDBRANCH  16  22
ENDBRANCH   1  12
BRANCH   1  24
ATOM     24  C   UNL     1      -1.659  11.752  19.565  0.00  0.00    +0.000 A 
ATOM     25  C   UNL     1      -2.004  11.156  18.355  0.00  0.00    +0.000 A 
ATOM     26  C   UNL     1      -3.313  11.171  17.866  0.00  0.00    +0.000 A 
ATOM     27  C   UNL     1      -4.326  11.848  18.576  0.00  0.00    +0.000 A 
ATOM     28  C   UNL     1      -3.996  12.508  19.777  0.00  0.00    +0.000 A 
ATOM     29  C   UNL     1      -2.676  12.434  20.262  0.00  0.00    +0.000 A 
BRANCH  26  30
ATOM     30  O   UNL     1      -3.652  10.533  16.691  0.00  0.00    +0.000 OA
ATOM     31  C   UNL     1      -2.569   9.892  16.017  0.00  0.00    +0.000 C 
ENDBRANCH  26  30
BRANCH  27  32
ATOM     32  O   UNL     1      -5.565  11.852  17.976  0.00  0.00    +0.000 OA
ATOM     33  C   UNL     1      -6.511  10.890  18.427  0.00  0.00    +0.000 C 
ENDBRANCH  27  32
BRANCH  28  34
ATOM     34  O   UNL     1      -4.980  13.219  20.414  0.00  0.00    +0.000 OA
ATOM     35  C   UNL     1      -5.477  12.731  21.653  0.00  0.00    +0.000 C 
ENDBRANCH  28  34
ENDBRANCH   1  24
TORSDOF 11
ENDMDL
MODEL 2
REMARK VINA RESULT:      -5.7      1.745      6.839
REMARK  Name = 
REMARK  18 active torsions:
REMARK  status: ('A' for Active; 'I' for Inactive)
REMARK    1  A    between atoms: C_1  and  O_2
REMARK    2  A    between atoms: O_2  and  C_3
REMARK    3  A    between atoms: C_3  and  C_5
REMARK    4  A    between atoms: N_10  and  C_11
REMARK    5  A    between atoms: C_11  and  C_12
REMARK    6  A    between atoms: C_11  and  C_24
REMARK    7  A    between atoms: C_14  and  O_15
REMARK    8  A    between atoms: O_15  and  C_16
REMARK    9  A    between atoms: C_17  and  O_18
REMARK   10  A    between atoms: O_18  and  C_19
REMARK   11  A    between atoms: C_20  and  O_21
REMARK   12  A    between atoms: O_21  and  C_22
REMARK   13  A    between atoms: C_26  and  O_27
REMARK   14  A    between atoms: O_27  and  C_28
REMARK   15  A    between atoms: C_29  and  O_30
REMARK   16  A    between atoms: O_30  and  C_31
REMARK   17  A    between atoms: C_32  and  O_33
REMARK   18  A    between atoms: O_33  and  C_34
REMARK                            x       y       z     vdW  Elec       q    Type
REMARK                         _______ _______ _______ _____ _____    ______ ____
ROOT
ATOM      1  C   UNL     1       0.719  10.791  18.951  0.00  0.00    +0.000 C 
ENDROOT
BRANCH   1   7
ATOM      2  C   UNL     1       2.059   8.697  19.579  0.00  0.00    +0.000 C 
ATOM      3  C   UNL     1       1.779   7.543  20.537  0.00  0.00    +0.000 C 
ATOM      4  C   UNL     1       0.934   8.157  21.635  0.00  0.00    +0.000 C 
ATOM      5  C   UNL     1       0.218   9.276  20.931  0.00  0.00    +0.000 C 
ATOM      6  O   UNL     1      -0.760   9.856  21.396  0.00  0.00    +0.000 OA
ATOM      7  N   UNL     1       0.945   9.611  19.800  0.00  0.00    +0.000 N 
BRANCH   2   8
ATOM      8  C   UNL     1       2.153   8.132  18.158  0.00  0.00    +0.000 C 
ATOM      9  O   UNL     1       2.108   8.797  17.129  0.00  0.00    +0.000 OA
BRANCH   8  11
ATOM     10  C   UNL     1       3.586   6.331  17.745  0.00  0.00    +0.000 C 
ATOM     11  O   UNL     1       2.305   6.778  18.199  0.00  0.00    +0.000 OA
ENDBRANCH   8  11
ENDBRANCH   2   8
ENDBRANCH   1   7
BRANCH   1  12
ATOM     12  C   UNL     1      -0.756  10.924  18.624  0.00  0.00    +0.000 A 
ATOM     13  C   UNL     1      -1.317  10.246  17.542  0.00  0.00    +0.000 A 
ATOM     14  C   UNL     1      -2.675  10.352  17.247  0.00  0.00    +0.000 A 
ATOM     15  C   UNL     1      -3.486  11.235  17.995  0.00  0.00    +0.000 A 
ATOM     16  C   UNL     1      -2.912  11.978  19.046  0.00  0.00    +0.000 A 
ATOM     17  C   UNL     1      -1.568  11.770  19.377  0.00  0.00    +0.000 A 
BRANCH  14  18
ATOM     18  O   UNL     1      -3.253   9.625  16.229  0.00  0.00    +0.000 OA
ATOM     19  C   UNL     1      -2.972  10.099  14.908  0.00  0.00    +0.000 C 
ENDBRANCH  14  18
BRANCH  15  20
ATOM     20  O   UNL     1      -4.791  11.338  17.567  0.00  0.00    +0.000 OA
ATOM     21  C   UNL     1      -5.787  10.745  18.390  0.00  0.00    +0.000 C 
ENDBRANCH  15  20
BRANCH  16  22
ATOM     22  O   UNL     1      -3.674  12.873  19.757  0.00  0.00    +0.000 OA
ATOM     23  C   UNL     1      -3.448  12.913  21.166  0.00  0.00    +0.000 C 
ENDBRANCH  16  22
ENDBRANCH   1  12
BRANCH   1  24
ATOM     24  C   UNL     1       1.375  12.098  19.415  0.00  0.00    +0.000 A 
ATOM     25  C   UNL     1       1.031  12.711  20.617  0.00  0.00    +0.000 A 
ATOM     26  C   UNL     1       1.671  13.869  21.069  0.00  0.00    +0.000 A 
ATOM     27  C   UNL     1       2.665  14.482  20.280  0.00  0.00    +0.000 A 
ATOM     28  C   UNL     1       2.997  13.914  19.032  0.00  0.00    +0.000 A 
ATOM     29  C   UNL     1       2.363  12.723  18.629  0.00  0.00    +0.000 A 
BRANCH  26  30
ATOM     30  O   UNL     1       1.357  14.438  22.285  0.00  0.00    +0.000 OA
ATOM     31  C   UNL     1      -0.032  14.699  22.489  0.00  0.00    +0.000 C 
ENDBRANCH  26  30
BRANCH  27  32
ATOM     32  O   UNL     1       3.188  15.649  20.791  0.00  0.00    +0.000 OA
ATOM     33  C   UNL     1       4.457  15.570  21.428  0.00  0.00    +0.000 C 
ENDBRANCH  27  32
BRANCH  28  34
ATOM     34  O   UNL     1       3.915  14.567  18.250  0.00  0.00    +0.000 OA
ATOM     35  C   UNL     1       3.457  15.589  17.375  0.00  0.00    +0.000 C 
ENDBRANCH  28  34
ENDBRANCH   1  24
TORSDOF 11
ENDMDL
MODEL 3
REMARK VINA RESULT:      -5.7      1.606      6.673
REMARK  Name = 
REMARK  18 active torsions:
REMARK  status: ('A' for Active; 'I' for Inactive)
REMARK    1  A    between atoms: C_1  and  O_2
REMARK    2  A    between atoms: O_2  and  C_3
REMARK    3  A    between atoms: C_3  and  C_5
REMARK    4  A    between atoms: N_10  and  C_11
REMARK    5  A    between atoms: C_11  and  C_12
REMARK    6  A    between atoms: C_11  and  C_24
REMARK    7  A    between atoms: C_14  and  O_15
REMARK    8  A    between atoms: O_15  and  C_16
REMARK    9  A    between atoms: C_17  and  O_18
REMARK   10  A    between atoms: O_18  and  C_19
REMARK   11  A    between atoms: C_20  and  O_21
REMARK   12  A    between atoms: O_21  and  C_22
REMARK   13  A    between atoms: C_26  and  O_27
REMARK   14  A    between atoms: O_27  and  C_28
REMARK   15  A    between atoms: C_29  and  O_30
REMARK   16  A    between atoms: O_30  and  C_31
REMARK   17  A    between atoms: C_32  and  O_33
REMARK   18  A    between atoms: O_33  and  C_34
REMARK                            x       y       z     vdW  Elec       q    Type
REMARK                         _______ _______ _______ _____ _____    ______ ____
ROOT
ATOM      1  C   UNL     1      -0.609  11.758  19.361  0.00  0.00    +0.000 C 
ENDROOT
BRANCH   1   7
ATOM      2  C   UNL     1      -1.363  11.848  21.810  0.00  0.00    +0.000 C 
ATOM      3  C   UNL     1      -0.902  11.103  23.059  0.00  0.00    +0.000 C 
ATOM      4  C   UNL     1      -0.434   9.755  22.546  0.00  0.00    +0.000 C 
ATOM      5  C   UNL     1       0.021  10.060  21.146  0.00  0.00    +0.000 C 
ATOM      6  O   UNL     1       0.713   9.299  20.475  0.00  0.00    +0.000 OA
ATOM      7  N   UNL     1      -0.603  11.226  20.732  0.00  0.00    +0.000 N 
BRANCH   2   8
ATOM      8  C   UNL     1      -1.087  13.342  22.010  0.00  0.00    +0.000 C 
ATOM      9  O   UNL     1      -1.899  14.241  21.827  0.00  0.00    +0.000 OA
BRANCH   8  11
ATOM     10  C   UNL     1       0.607  14.900  22.420  0.00  0.00    +0.000 C 
ATOM     11  O   UNL     1       0.195  13.530  22.434  0.00  0.00    +0.000 OA
ENDBRANCH   8  11
ENDBRANCH   2   8
ENDBRANCH   1   7
BRANCH   1  12
ATOM     12  C   UNL     1      -2.024  11.781  18.816  0.00  0.00    +0.000 A 
ATOM     13  C   UNL     1      -3.112  12.042  19.649  0.00  0.00    +0.000 A 
ATOM     14  C   UNL     1      -4.413  12.081  19.150  0.00  0.00    +0.000 A 
ATOM     15  C   UNL     1      -4.652  11.755  17.796  0.00  0.00    +0.000 A 
ATOM     16  C   UNL     1      -3.565  11.420  16.963  0.00  0.00    +0.000 A 
ATOM     17  C   UNL     1      -2.264  11.491  17.474  0.00  0.00    +0.000 A 
BRANCH  14  18
ATOM     18  O   UNL     1      -5.484  12.415  19.949  0.00  0.00    +0.000 OA
ATOM     19  C   UNL     1      -5.436  13.730  20.513  0.00  0.00    +0.000 C 
ENDBRANCH  14  18
BRANCH  15  20
ATOM     20  O   UNL     1      -5.978  11.731  17.424  0.00  0.00    +0.000 OA
ATOM     21  C   UNL     1      -6.531  12.945  16.933  0.00  0.00    +0.000 C 
ENDBRANCH  15  20
BRANCH  16  22
ATOM     22  O   UNL     1      -3.781  11.059  15.656  0.00  0.00    +0.000 OA
ATOM     23  C   UNL     1      -2.960  10.007  15.149  0.00  0.00    +0.000 C 
ENDBRANCH  16  22
ENDBRANCH   1  12
BRANCH   1  24
ATOM     24  C   UNL     1       0.168  13.062  19.134  0.00  0.00    +0.000 A 
ATOM     25  C   UNL     1      -0.462  14.236  18.728  0.00  0.00    +0.000 A 
ATOM     26  C   UNL     1       0.235  15.439  18.580  0.00  0.00    +0.000 A 
ATOM     27  C   UNL     1       1.628  15.481  18.794  0.00  0.00    +0.000 A 
ATOM     28  C   UNL     1       2.301  14.295  19.154  0.00  0.00    +0.000 A 
ATOM     29  C   UNL     1       1.561  13.112  19.337  0.00  0.00    +0.000 A 
BRANCH  26  30
ATOM     30  O   UNL     1      -0.409  16.605  18.226  0.00  0.00    +0.000 OA
ATOM     31  C   UNL     1      -1.241  17.169  19.240  0.00  0.00    +0.000 C 
ENDBRANCH  26  30
BRANCH  27  32
ATOM     32  O   UNL     1       2.223  16.700  18.563  0.00  0.00    +0.000 OA
ATOM     33  C   UNL     1       2.897  16.871  17.322  0.00  0.00    +0.000 C 
ENDBRANCH  27  32
BRANCH  28  34
ATOM     34  O   UNL     1       3.665  14.344  19.288  0.00  0.00    +0.000 OA
ATOM     35  C   UNL     1       4.212  14.660  20.561  0.00  0.00    +0.000 C 
ENDBRANCH  28  34
ENDBRANCH   1  24
TORSDOF 11
ENDMDL
MODEL 4
REMARK VINA RESULT:      -5.6      1.221      1.238
REMARK  Name = 
REMARK  18 active torsions:
REMARK  status: ('A' for Active; 'I' for Inactive)
REMARK    1  A    between atoms: C_1  and  O_2
REMARK    2  A    between atoms: O_2  and  C_3
REMARK    3  A    between atoms: C_3  and  C_5
REMARK    4  A    between atoms: N_10  and  C_11
REMARK    5  A    between atoms: C_11  and  C_12
REMARK    6  A    between atoms: C_11  and  C_24
REMARK    7  A    between atoms: C_14  and  O_15
REMARK    8  A    between atoms: O_15  and  C_16
REMARK    9  A    between atoms: C_17  and  O_18
REMARK   10  A    between atoms: O_18  and  C_19
REMARK   11  A    between atoms: C_20  and  O_21
REMARK   12  A    between atoms: O_21  and  C_22
REMARK   13  A    between atoms: C_26  and  O_27
REMARK   14  A    between atoms: O_27  and  C_28
REMARK   15  A    between atoms: C_29  and  O_30
REMARK   16  A    between atoms: O_30  and  C_31
REMARK   17  A    between atoms: C_32  and  O_33
REMARK   18  A    between atoms: O_33  and  C_34
REMARK                            x       y       z     vdW  Elec       q    Type
REMARK                         _______ _______ _______ _____ _____    ______ ____
ROOT
ATOM      1  C   UNL     1      -0.871  11.913  20.277  0.00  0.00    +0.000 C 
ENDROOT
BRANCH   1   7
ATOM      2  C   UNL     1       0.229   9.598  20.286  0.00  0.00    +0.000 C 
ATOM      3  C   UNL     1       1.460   9.038  19.579  0.00  0.00    +0.000 C 
ATOM      4  C   UNL     1       1.540   9.817  18.282  0.00  0.00    +0.000 C 
ATOM      5  C   UNL     1       0.906  11.134  18.633  0.00  0.00    +0.000 C 
ATOM      6  O   UNL     1       1.007  12.144  17.940  0.00  0.00    +0.000 OA
ATOM      7  N   UNL     1       0.095  10.943  19.741  0.00  0.00    +0.000 N 
BRANCH   2   8
ATOM      8  C   UNL     1       0.474   9.540  21.798  0.00  0.00    +0.000 C 
ATOM      9  O   UNL     1       1.562   9.680  22.343  0.00  0.00    +0.000 OA
BRANCH   8  11
ATOM     10  C   UNL     1      -1.117  10.425  23.266  0.00  0.00    +0.000 C 
ATOM     11  O   UNL     1      -0.700   9.322  22.456  0.00  0.00    +0.000 OA
ENDBRANCH   8  11
ENDBRANCH   2   8
ENDBRANCH   1   7
BRANCH   1  12
ATOM     12  C   UNL     1      -0.214  13.272  20.431  0.00  0.00    +0.000 A 
ATOM     13  C   UNL     1       0.813  13.474  21.353  0.00  0.00    +0.000 A 
ATOM     14  C   UNL     1       1.431  14.716  21.487  0.00  0.00    +0.000 A 
ATOM     15  C   UNL     1       0.948  15.821  20.749  0.00  0.00    +0.000 A 
ATOM     16  C   UNL     1      -0.137  15.641  19.867  0.00  0.00    +0.000 A 
ATOM     17  C   UNL     1      -0.666  14.359  19.684  0.00  0.00    +0.000 A 
BRANCH  14  18
ATOM     18  O   UNL     1       2.498  14.905  22.337  0.00  0.00    +0.000 OA
ATOM     19  C   UNL     1       3.757  14.430  21.847  0.00  0.00    +0.000 C 
ENDBRANCH  14  18
BRANCH  15  20
ATOM     20  O   UNL     1       1.564  17.022  21.021  0.00  0.00    +0.000 OA
ATOM     21  C   UNL     1       2.519  17.484  20.076  0.00  0.00    +0.000 C 
ENDBRANCH  15  20
BRANCH  16  22
ATOM     22  O   UNL     1      -0.648  16.711  19.174  0.00  0.00    +0.000 OA
ATOM     23  C   UNL     1      -1.856  17.274  19.686  0.00  0.00    +0.000 C 
ENDBRANCH  16  22
ENDBRANCH   1  12
BRANCH   1  24
ATOM     24  C   UNL     1      -2.242  11.958  19.590  0.00  0.00    +0.000 A 
ATOM     25  C   UNL     1      -2.431  11.503  18.287  0.00  0.00    +0.000 A 
ATOM     26  C   UNL     1      -3.691  11.487  17.682  0.00  0.00    +0.000 A 
ATOM     27  C   UNL     1      -4.814  11.987  18.372  0.00  0.00    +0.000 A 
ATOM     28  C   UNL     1      -4.644  12.505  19.673  0.00  0.00    +0.000 A 
ATOM     29  C   UNL     1      -3.368  12.464  20.267  0.00  0.00    +0.000 A 
BRANCH  26  30
ATOM     30  O   UNL     1      -3.874  10.987  16.411  0.00  0.00    +0.000 OA
ATOM     31  C   UNL     1      -2.682  10.552  15.754  0.00  0.00    +0.000 C 
ENDBRANCH  26  30
BRANCH  27  32
ATOM     32  O   UNL     1      -5.994  11.979  17.663  0.00  0.00    +0.000 OA
ATOM     33  C   UNL     1      -6.412  13.208  17.080  0.00  0.00    +0.000 C 
ENDBRANCH  27  32
BRANCH  28  34
ATOM     34  O   UNL     1      -5.736  13.051  20.297  0.00  0.00    +0.000 OA
ATOM     35  C   UNL     1      -6.506  12.227  21.163  0.00  0.00    +0.000 C 
ENDBRANCH  28  34
ENDBRANCH   1  24
TORSDOF 11
ENDMDL
MODEL 5
REMARK VINA RESULT:      -5.6      1.072      3.195
REMARK  Name = 
REMARK  18 active torsions:
REMARK  status: ('A' for Active; 'I' for Inactive)
REMARK    1  A    between atoms: C_1  and  O_2
REMARK    2  A    between atoms: O_2  and  C_3
REMARK    3  A    between atoms: C_3  and  C_5
REMARK    4  A    between atoms: N_10  and  C_11
REMARK    5  A    between atoms: C_11  and  C_12
REMARK    6  A    between atoms: C_11  and  C_24
REMARK    7  A    between atoms: C_14  and  O_15
REMARK    8  A    between atoms: O_15  and  C_16
REMARK    9  A    between atoms: C_17  and  O_18
REMARK   10  A    between atoms: O_18  and  C_19
REMARK   11  A    between atoms: C_20  and  O_21
REMARK   12  A    between atoms: O_21  and  C_22
REMARK   13  A    between atoms: C_26  and  O_27
REMARK   14  A    between atoms: O_27  and  C_28
REMARK   15  A    between atoms: C_29  and  O_30
REMARK   16  A    between atoms: O_30  and  C_31
REMARK   17  A    between atoms: C_32  and  O_33
REMARK   18  A    between atoms: O_33  and  C_34
REMARK                            x       y       z     vdW  Elec       q    Type
REMARK                         _______ _______ _______ _____ _____    ______ ____
ROOT
ATOM      1  C   UNL     1      -0.696  11.784  20.342  0.00  0.00    +0.000 C 
ENDROOT
BRANCH   1   7
ATOM      2  C   UNL     1       0.322   9.432  20.400  0.00  0.00    +0.000 C 
ATOM      3  C   UNL     1       1.529   8.814  19.700  0.00  0.00    +0.000 C 
ATOM      4  C   UNL     1       1.630   9.560  18.385  0.00  0.00    +0.000 C 
ATOM      5  C   UNL     1       1.045  10.906  18.709  0.00  0.00    +0.000 C 
ATOM      6  O   UNL     1       1.178  11.896  17.994  0.00  0.00    +0.000 OA
ATOM      7  N   UNL     1       0.233  10.768  19.824  0.00  0.00    +0.000 N 
BRANCH   2   8
ATOM      8  C   UNL     1       0.571   9.400  21.911  0.00  0.00    +0.000 C 
ATOM      9  O   UNL     1       1.662   9.546  22.450  0.00  0.00    +0.000 OA
BRANCH   8  11
ATOM     10  C   UNL     1      -1.067  10.346  23.285  0.00  0.00    +0.000 C 
ATOM     11  O   UNL     1      -0.601   9.194  22.576  0.00  0.00    +0.000 OA
ENDBRANCH   8  11
ENDBRANCH   2   8
ENDBRANCH   1   7
BRANCH   1  12
ATOM     12  C   UNL     1      -0.010  13.136  20.403  0.00  0.00    +0.000 A 
ATOM     13  C   UNL     1      -0.316  14.140  19.485  0.00  0.00    +0.000 A 
ATOM     14  C   UNL     1       0.299  15.389  19.548  0.00  0.00    +0.000 A 
ATOM     15  C   UNL     1       1.323  15.618  20.495  0.00  0.00    +0.000 A 
ATOM     16  C   UNL     1       1.688  14.584  21.381  0.00  0.00    +0.000 A 
ATOM     17  C   UNL     1       0.979  13.378  21.355  0.00  0.00    +0.000 A 
BRANCH  14  18
ATOM     18  O   UNL     1      -0.053  16.412  18.695  0.00  0.00    +0.000 OA
ATOM     19  C   UNL     1      -1.255  17.108  19.044  0.00  0.00    +0.000 C 
ENDBRANCH  14  18
BRANCH  15  20
ATOM     20  O   UNL     1       1.932  16.850  20.414  0.00  0.00    +0.000 OA
ATOM     21  C   UNL     1       1.570  17.812  21.396  0.00  0.00    +0.000 C 
ENDBRANCH  15  20
BRANCH  16  22
ATOM     22  O   UNL     1       2.710  14.772  22.280  0.00  0.00    +0.000 OA
ATOM     23  C   UNL     1       4.025  14.475  21.809  0.00  0.00    +0.000 C 
ENDBRANCH  16  22
ENDBRANCH   1  12
BRANCH   1  24
ATOM     24  C   UNL     1      -2.090  11.820  19.702  0.00  0.00    +0.000 A 
ATOM     25  C   UNL     1      -3.167  12.459  20.311  0.00  0.00    +0.000 A 
ATOM     26  C   UNL     1      -4.421  12.545  19.701  0.00  0.00    +0.000 A 
ATOM     27  C   UNL     1      -4.644  11.932  18.451  0.00  0.00    +0.000 A 
ATOM     28  C   UNL     1      -3.586  11.232  17.834  0.00  0.00    +0.000 A 
ATOM     29  C   UNL     1      -2.324  11.203  18.457  0.00  0.00    +0.000 A 
BRANCH  26  30
ATOM     30  O   UNL     1      -5.466  13.223  20.292  0.00  0.00    +0.000 OA
ATOM     31  C   UNL     1      -6.004  12.606  21.462  0.00  0.00    +0.000 C 
ENDBRANCH  26  30
BRANCH  27  32
ATOM     32  O   UNL     1      -5.929  12.026  17.968  0.00  0.00    +0.000 OA
ATOM     33  C   UNL     1      -6.192  13.041  17.006  0.00  0.00    +0.000 C 
ENDBRANCH  27  32
BRANCH  28  34
ATOM     34  O   UNL     1      -3.845  10.583  16.654  0.00  0.00    +0.000 OA
ATOM     35  C   UNL     1      -3.069  10.918  15.511  0.00  0.00    +0.000 C 
ENDBRANCH  28  34
ENDBRANCH   1  24
TORSDOF 11
ENDMDL
MODEL 6
REMARK VINA RESULT:      -5.6      0.950      2.305
REMARK  Name = 
REMARK  18 active torsions:
REMARK  status: ('A' for Active; 'I' for Inactive)
REMARK    1  A    between atoms: C_1  and  O_2
REMARK    2  A    between atoms: O_2  and  C_3
REMARK    3  A    between atoms: C_3  and  C_5
REMARK    4  A    between atoms: N_10  and  C_11
REMARK    5  A    between atoms: C_11  and  C_12
REMARK    6  A    between atoms: C_11  and  C_24
REMARK    7  A    between atoms: C_14  and  O_15
REMARK    8  A    between atoms: O_15  and  C_16
REMARK    9  A    between atoms: C_17  and  O_18
REMARK   10  A    between atoms: O_18  and  C_19
REMARK   11  A    between atoms: C_20  and  O_21
REMARK   12  A    between atoms: O_21  and  C_22
REMARK   13  A    between atoms: C_26  and  O_27
REMARK   14  A    between atoms: O_27  and  C_28
REMARK   15  A    between atoms: C_29  and  O_30
REMARK   16  A    between atoms: O_30  and  C_31
REMARK   17  A    between atoms: C_32  and  O_33
REMARK   18  A    between atoms: O_33  and  C_34
REMARK                            x       y       z     vdW  Elec       q    Type
REMARK                         _______ _______ _______ _____ _____    ______ ____
ROOT
ATOM      1  C   UNL     1      -0.619  11.947  20.315  0.00  0.00    +0.000 C 
ENDROOT
BRANCH   1   7
ATOM      2  C   UNL     1       0.272   9.549  20.479  0.00  0.00    +0.000 C 
ATOM      3  C   UNL     1       1.457   8.842  19.827  0.00  0.00    +0.000 C 
ATOM      4  C   UNL     1       1.621   9.532  18.488  0.00  0.00    +0.000 C 
ATOM      5  C   UNL     1       1.102  10.919  18.750  0.00  0.00    +0.000 C 
ATOM      6  O   UNL     1       1.300  11.872  18.002  0.00  0.00    +0.000 OA
ATOM      7  N   UNL     1       0.264  10.865  19.853  0.00  0.00    +0.000 N 
BRANCH   2   8
ATOM      8  C   UNL     1       0.492   9.561  21.995  0.00  0.00    +0.000 C 
ATOM      9  O   UNL     1       1.572   9.721  22.551  0.00  0.00    +0.000 OA
BRANCH   8  11
ATOM     10  C   UNL     1      -1.193  10.564  23.269  0.00  0.00    +0.000 C 
ATOM     11  O   UNL     1      -0.693   9.378  22.644  0.00  0.00    +0.000 OA
ENDBRANCH   8  11
ENDBRANCH   2   8
ENDBRANCH   1   7
BRANCH   1  12
ATOM     12  C   UNL     1       0.116  13.273  20.275  0.00  0.00    +0.000 A 
ATOM     13  C   UNL     1      -0.195  14.240  19.320  0.00  0.00    +0.000 A 
ATOM     14  C   UNL     1       0.466  15.467  19.290  0.00  0.00    +0.000 A 
ATOM     15  C   UNL     1       1.538  15.705  20.179  0.00  0.00    +0.000 A 
ATOM     16  C   UNL     1       1.906  14.705  21.102  0.00  0.00    +0.000 A 
ATOM     17  C   UNL     1       1.154  13.526  21.170  0.00  0.00    +0.000 A 
BRANCH  14  18
ATOM     18  O   UNL     1       0.112  16.458  18.401  0.00  0.00    +0.000 OA
ATOM     19  C   UNL     1      -1.072  17.187  18.742  0.00  0.00    +0.000 C 
ENDBRANCH  14  18
BRANCH  15  20
ATOM     20  O   UNL     1       2.186  16.908  20.008  0.00  0.00    +0.000 OA
ATOM     21  C   UNL     1       1.885  17.939  20.939  0.00  0.00    +0.000 C 
ENDBRANCH  15  20
BRANCH  16  22
ATOM     22  O   UNL     1       2.973  14.900  21.945  0.00  0.00    +0.000 OA
ATOM     23  C   UNL     1       4.196  14.268  21.569  0.00  0.00    +0.000 C 
ENDBRANCH  16  22
ENDBRANCH   1  12
BRANCH   1  24
ATOM     24  C   UNL     1      -2.021  11.992  19.693  0.00  0.00    +0.000 A 
ATOM     25  C   UNL     1      -2.297  11.427  18.451  0.00  0.00    +0.000 A 
ATOM     26  C   UNL     1      -3.586  11.414  17.911  0.00  0.00    +0.000 A 
ATOM     27  C   UNL     1      -4.650  12.029  18.603  0.00  0.00    +0.000 A 
ATOM     28  C   UNL     1      -4.390  12.657  19.838  0.00  0.00    +0.000 A 
ATOM     29  C   UNL     1      -3.088  12.612  20.373  0.00  0.00    +0.000 A 
BRANCH  26  30
ATOM     30  O   UNL     1      -3.856  10.808  16.702  0.00  0.00    +0.000 OA
ATOM     31  C   UNL     1      -2.819  10.915  15.727  0.00  0.00    +0.000 C 
ENDBRANCH  26  30
BRANCH  27  32
ATOM     32  O   UNL     1      -5.864  12.011  17.955  0.00  0.00    +0.000 OA
ATOM     33  C   UNL     1      -6.806  11.026  18.362  0.00  0.00    +0.000 C 
ENDBRANCH  27  32
BRANCH  28  34
ATOM     34  O   UNL     1      -5.424  13.310  20.459  0.00  0.00    +0.000 OA
ATOM     35  C   UNL     1      -5.517  14.721  20.321  0.00  0.00    +0.000 C 
ENDBRANCH  28  34
ENDBRANCH   1  24
TORSDOF 11
ENDMDL
MODEL 7
REMARK VINA RESULT:      -5.6      1.666      6.249
REMARK  Name = 
REMARK  18 active torsions:
REMARK  status: ('A' for Active; 'I' for Inactive)
REMARK    1  A    between atoms: C_1  and  O_2
REMARK    2  A    between atoms: O_2  and  C_3
REMARK    3  A    between atoms: C_3  and  C_5
REMARK    4  A    between atoms: N_10  and  C_11
REMARK    5  A    between atoms: C_11  and  C_12
REMARK    6  A    between atoms: C_11  and  C_24
REMARK    7  A    between atoms: C_14  and  O_15
REMARK    8  A    between atoms: O_15  and  C_16
REMARK    9  A    between atoms: C_17  and  O_18
REMARK   10  A    between atoms: O_18  and  C_19
REMARK   11  A    between atoms: C_20  and  O_21
REMARK   12  A    between atoms: O_21  and  C_22
REMARK   13  A    between atoms: C_26  and  O_27
REMARK   14  A    between atoms: O_27  and  C_28
REMARK   15  A    between atoms: C_29  and  O_30
REMARK   16  A    between atoms: O_30  and  C_31
REMARK   17  A    between atoms: C_32  and  O_33
REMARK   18  A    between atoms: O_33  and  C_34
REMARK                            x       y       z     vdW  Elec       q    Type
REMARK                         _______ _______ _______ _____ _____    ______ ____
ROOT
ATOM      1  C   UNL     1      -0.293  11.688  18.660  0.00  0.00    +0.000 C 
ENDROOT
BRANCH   1   7
ATOM      2  C   UNL     1      -0.460  11.105  21.152  0.00  0.00    +0.000 C 
ATOM      3  C   UNL     1       0.296  10.115  22.031  0.00  0.00    +0.000 C 
ATOM      4  C   UNL     1       0.664   8.980  21.097  0.00  0.00    +0.000 C 
ATOM      5  C   UNL     1       0.774   9.658  19.760  0.00  0.00    +0.000 C 
ATOM      6  O   UNL     1       1.309   9.147  18.780  0.00  0.00    +0.000 OA
ATOM      7  N   UNL     1       0.043  10.835  19.810  0.00  0.00    +0.000 N 
BRANCH   2   8
ATOM      8  C   UNL     1      -0.181  12.520  21.668  0.00  0.00    +0.000 C 
ATOM      9  O   UNL     1       0.932  13.012  21.812  0.00  0.00    +0.000 OA
BRANCH   8  11
ATOM     10  C   UNL     1      -2.064  12.615  23.051  0.00  0.00    +0.000 C 
ATOM     11  O   UNL     1      -1.353  13.163  21.937  0.00  0.00    +0.000 OA
ENDBRANCH   8  11
ENDBRANCH   2   8
ENDBRANCH   1   7
BRANCH   1  12
ATOM     12  C   UNL     1      -1.783  11.624  18.382  0.00  0.00    +0.000 A 
ATOM     13  C   UNL     1      -2.266  11.253  17.128  0.00  0.00    +0.000 A 
ATOM     14  C   UNL     1      -3.634  11.176  16.872  0.00  0.00    +0.000 A 
ATOM     15  C   UNL     1      -4.555  11.575  17.868  0.00  0.00    +0.000 A 
ATOM     16  C   UNL     1      -4.073  12.021  19.116  0.00  0.00    +0.000 A 
ATOM     17  C   UNL     1      -2.697  11.987  19.370  0.00  0.00    +0.000 A 
BRANCH  14  18
ATOM     18  O   UNL     1      -4.120  10.735  15.662  0.00  0.00    +0.000 OA
ATOM     19  C   UNL     1      -3.133  10.225  14.759  0.00  0.00    +0.000 C 
ENDBRANCH  14  18
BRANCH  15  20
ATOM     20  O   UNL     1      -5.877  11.553  17.486  0.00  0.00    +0.000 OA
ATOM     21  C   UNL     1      -6.465  12.796  17.127  0.00  0.00    +0.000 C 
ENDBRANCH  15  20
BRANCH  16  22
ATOM     22  O   UNL     1      -4.950  12.453  20.081  0.00  0.00    +0.000 OA
ATOM     23  C   UNL     1      -4.754  13.785  20.558  0.00  0.00    +0.000 C 
ENDBRANCH  16  22
ENDBRANCH   1  12
BRANCH   1  24
ATOM     24  C   UNL     1       0.278  13.111  18.679  0.00  0.00    +0.000 A 
ATOM     25  C   UNL     1       1.644  13.361  18.578  0.00  0.00    +0.000 A 
ATOM     26  C   UNL     1       2.160  14.659  18.534  0.00  0.00    +0.000 A 
ATOM     27  C   UNL     1       1.297  15.768  18.644  0.00  0.00    +0.000 A 
ATOM     28  C   UNL     1      -0.087  15.546  18.802  0.00  0.00    +0.000 A 
ATOM     29  C   UNL     1      -0.576  14.226  18.798  0.00  0.00    +0.000 A 
BRANCH  26  30
ATOM     30  O   UNL     1       3.510  14.893  18.383  0.00  0.00    +0.000 OA
ATOM     31  C   UNL     1       4.282  14.777  19.579  0.00  0.00    +0.000 C 
ENDBRANCH  26  30
BRANCH  27  32
ATOM     32  O   UNL     1       1.914  16.998  18.650  0.00  0.00    +0.000 OA
ATOM     33  C   UNL     1       1.875  17.753  17.444  0.00  0.00    +0.000 C 
ENDBRANCH  27  32
BRANCH  28  34
ATOM     34  O   UNL     1      -0.899  16.637  18.978  0.00  0.00    +0.000 OA
ATOM     35  C   UNL     1      -1.788  16.650  20.087  0.00  0.00    +0.000 C 
ENDBRANCH  28  34
ENDBRANCH   1  24
TORSDOF 11
ENDMDL
MODEL 8
REMARK VINA RESULT:      -5.6      1.600      6.643
REMARK  Name = 
REMARK  18 active torsions:
REMARK  status: ('A' for Active; 'I' for Inactive)
REMARK    1  A    between atoms: C_1  and  O_2
REMARK    2  A    between atoms: O_2  and  C_3
REMARK    3  A    between atoms: C_3  and  C_5
REMARK    4  A    between atoms: N_10  and  C_11
REMARK    5  A    between atoms: C_11  and  C_12
REMARK    6  A    between atoms: C_11  and  C_24
REMARK    7  A    between atoms: C_14  and  O_15
REMARK    8  A    between atoms: O_15  and  C_16
REMARK    9  A    between atoms: C_17  and  O_18
REMARK   10  A    between atoms: O_18  and  C_19
REMARK   11  A    between atoms: C_20  and  O_21
REMARK   12  A    between atoms: O_21  and  C_22
REMARK   13  A    between atoms: C_26  and  O_27
REMARK   14  A    between atoms: O_27  and  C_28
REMARK   15  A    between atoms: C_29  and  O_30
REMARK   16  A    between atoms: O_30  and  C_31
REMARK   17  A    between atoms: C_32  and  O_33
REMARK   18  A    between atoms: O_33  and  C_34
REMARK                            x       y       z     vdW  Elec       q    Type
REMARK                         _______ _______ _______ _____ _____    ______ ____
ROOT
ATOM      1  C   UNL     1      -0.543  11.773  19.220  0.00  0.00    +0.000 C 
ENDROOT
BRANCH   1   7
ATOM      2  C   UNL     1      -1.008  11.522  21.729  0.00  0.00    +0.000 C 
ATOM      3  C   UNL     1      -0.426  10.603  22.799  0.00  0.00    +0.000 C 
ATOM      4  C   UNL     1      -0.056   9.337  22.052  0.00  0.00    +0.000 C 
ATOM      5  C   UNL     1       0.244   9.833  20.664  0.00  0.00    +0.000 C 
ATOM      6  O   UNL     1       0.834   9.168  19.817  0.00  0.00    +0.000 OA
ATOM      7  N   UNL     1      -0.394  11.052  20.494  0.00  0.00    +0.000 N 
BRANCH   2   8
ATOM      8  C   UNL     1      -0.672  12.969  22.102  0.00  0.00    +0.000 C 
ATOM      9  O   UNL     1       0.447  13.386  22.375  0.00  0.00    +0.000 OA
BRANCH   8  11
ATOM     10  C   UNL     1      -1.619  15.041  22.632  0.00  0.00    +0.000 C 
ATOM     11  O   UNL     1      -1.800  13.735  22.076  0.00  0.00    +0.000 OA
ENDBRANCH   8  11
ENDBRANCH   2   8
ENDBRANCH   1   7
BRANCH   1  12
ATOM     12  C   UNL     1      -2.004  11.820  18.816  0.00  0.00    +0.000 A 
ATOM     13  C   UNL     1      -2.976  12.314  19.686  0.00  0.00    +0.000 A 
ATOM     14  C   UNL     1      -4.318  12.375  19.312  0.00  0.00    +0.000 A 
ATOM     15  C   UNL     1      -4.723  11.839  18.069  0.00  0.00    +0.000 A 
ATOM     16  C   UNL     1      -3.756  11.272  17.213  0.00  0.00    +0.000 A 
ATOM     17  C   UNL     1      -2.406  11.320  17.578  0.00  0.00    +0.000 A 
BRANCH  14  18
ATOM     18  O   UNL     1      -5.272  12.934  20.134  0.00  0.00    +0.000 OA
ATOM     19  C   UNL     1      -5.127  12.635  21.526  0.00  0.00    +0.000 C 
ENDBRANCH  14  18
BRANCH  15  20
ATOM     20  O   UNL     1      -6.079  11.862  17.834  0.00  0.00    +0.000 OA
ATOM     21  C   UNL     1      -6.845  10.795  18.377  0.00  0.00    +0.000 C 
ENDBRANCH  15  20
BRANCH  16  22
ATOM     22  O   UNL     1      -4.136  10.707  16.020  0.00  0.00    +0.000 OA
ATOM     23  C   UNL     1      -3.100  10.516  15.056  0.00  0.00    +0.000 C 
ENDBRANCH  16  22
ENDBRANCH   1  12
BRANCH   1  24
ATOM     24  C   UNL     1       0.177  13.123  19.115  0.00  0.00    +0.000 A 
ATOM     25  C   UNL     1      -0.505  14.304  18.833  0.00  0.00    +0.000 A 
ATOM     26  C   UNL     1       0.141  15.543  18.797  0.00  0.00    +0.000 A 
ATOM     27  C   UNL     1       1.534  15.622  19.000  0.00  0.00    +0.000 A 
ATOM     28  C   UNL     1       2.260  14.436  19.233  0.00  0.00    +0.000 A 
ATOM     29  C   UNL     1       1.570  13.211  19.307  0.00  0.00    +0.000 A 
BRANCH  26  30
ATOM     30  O   UNL     1      -0.554  16.711  18.566  0.00  0.00    +0.000 OA
ATOM     31  C   UNL     1      -1.505  17.059  19.573  0.00  0.00    +0.000 C 
ENDBRANCH  26  30
BRANCH  27  32
ATOM     32  O   UNL     1       2.076  16.881  18.883  0.00  0.00    +0.000 OA
ATOM     33  C   UNL     1       2.355  17.585  20.088  0.00  0.00    +0.000 C 
ENDBRANCH  27  32
BRANCH  28  34
ATOM     34  O   UNL     1       3.622  14.528  19.357  0.00  0.00    +0.000 OA
ATOM     35  C   UNL     1       4.414  14.513  18.177  0.00  0.00    +0.000 C 
ENDBRANCH  28  34
ENDBRANCH   1  24
TORSDOF 11
ENDMDL
MODEL 9
REMARK VINA RESULT:      -5.6      1.675      6.463
REMARK  Name = 
REMARK  18 active torsions:
REMARK  status: ('A' for Active; 'I' for Inactive)
REMARK    1  A    between atoms: C_1  and  O_2
REMARK    2  A    between atoms: O_2  and  C_3
REMARK    3  A    between atoms: C_3  and  C_5
REMARK    4  A    between atoms: N_10  and  C_11
REMARK    5  A    between atoms: C_11  and  C_12
REMARK    6  A    between atoms: C_11  and  C_24
REMARK    7  A    between atoms: C_14  and  O_15
REMARK    8  A    between atoms: O_15  and  C_16
REMARK    9  A    between atoms: C_17  and  O_18
REMARK   10  A    between atoms: O_18  and  C_19
REMARK   11  A    between atoms: C_20  and  O_21
REMARK   12  A    between atoms: O_21  and  C_22
REMARK   13  A    between atoms: C_26  and  O_27
REMARK   14  A    between atoms: O_27  and  C_28
REMARK   15  A    between atoms: C_29  and  O_30
REMARK   16  A    between atoms: O_30  and  C_31
REMARK   17  A    between atoms: C_32  and  O_33
REMARK   18  A    between atoms: O_33  and  C_34
REMARK                            x       y       z     vdW  Elec       q    Type
REMARK                         _______ _______ _______ _____ _____    ______ ____
ROOT
ATOM      1  C   UNL     1      -0.382  11.808  18.700  0.00  0.00    +0.000 C 
ENDROOT
BRANCH   1   7
ATOM      2  C   UNL     1      -0.558  11.088  21.155  0.00  0.00    +0.000 C 
ATOM      3  C   UNL     1       0.232  10.089  21.995  0.00  0.00    +0.000 C 
ATOM      4  C   UNL     1       0.666   9.022  21.009  0.00  0.00    +0.000 C 
ATOM      5  C   UNL     1       0.763   9.775  19.711  0.00  0.00    +0.000 C 
ATOM      6  O   UNL     1       1.336   9.341  18.715  0.00  0.00    +0.000 OA
ATOM      7  N   UNL     1      -0.023  10.912  19.810  0.00  0.00    +0.000 N 
BRANCH   2   8
ATOM      8  C   UNL     1      -0.353  12.486  21.749  0.00  0.00    +0.000 C 
ATOM      9  O   UNL     1       0.734  13.018  21.942  0.00  0.00    +0.000 OA
BRANCH   8  11
ATOM     10  C   UNL     1      -2.272  12.416  23.082  0.00  0.00    +0.000 C 
ATOM     11  O   UNL     1      -1.557  13.061  22.024  0.00  0.00    +0.000 OA
ENDBRANCH   8  11
ENDBRANCH   2   8
ENDBRANCH   1   7
BRANCH   1  12
ATOM     12  C   UNL     1      -1.865  11.696  18.399  0.00  0.00    +0.000 A 
ATOM     13  C   UNL     1      -2.315  11.307  17.138  0.00  0.00    +0.000 A 
ATOM     14  C   UNL     1      -3.676  11.186  16.861  0.00  0.00    +0.000 A 
ATOM     15  C   UNL     1      -4.625  11.556  17.841  0.00  0.00    +0.000 A 
ATOM     16  C   UNL     1      -4.177  12.018  19.096  0.00  0.00    +0.000 A 
ATOM     17  C   UNL     1      -2.805  12.030  19.372  0.00  0.00    +0.000 A 
BRANCH  14  18
ATOM     18  O   UNL     1      -4.128  10.728  15.644  0.00  0.00    +0.000 OA
ATOM     19  C   UNL     1      -3.114  10.225  14.767  0.00  0.00    +0.000 C 
ENDBRANCH  14  18
BRANCH  15  20
ATOM     20  O   UNL     1      -5.940  11.490  17.439  0.00  0.00    +0.000 OA
ATOM     21  C   UNL     1      -6.582  12.721  17.133  0.00  0.00    +0.000 C 
ENDBRANCH  15  20
BRANCH  16  22
ATOM     22  O   UNL     1      -5.083  12.423  20.046  0.00  0.00    +0.000 OA
ATOM     23  C   UNL     1      -4.967  13.775  20.490  0.00  0.00    +0.000 C 
ENDBRANCH  16  22
ENDBRANCH   1  12
BRANCH   1  24
ATOM     24  C   UNL     1       0.127  13.251  18.799  0.00  0.00    +0.000 A 
ATOM     25  C   UNL     1      -0.741  14.335  18.906  0.00  0.00    +0.000 A 
ATOM     26  C   UNL     1      -0.278  15.646  19.057  0.00  0.00    +0.000 A 
ATOM     27  C   UNL     1       1.107  15.911  19.055  0.00  0.00    +0.000 A 
ATOM     28  C   UNL     1       2.009  14.840  18.895  0.00  0.00    +0.000 A 
ATOM     29  C   UNL     1       1.508  13.528  18.790  0.00  0.00    +0.000 A 
BRANCH  26  30
ATOM     30  O   UNL     1      -1.147  16.704  19.212  0.00  0.00    +0.000 OA
ATOM     31  C   UNL     1      -2.007  16.621  20.349  0.00  0.00    +0.000 C 
ENDBRANCH  26  30
BRANCH  27  32
ATOM     32  O   UNL     1       1.453  17.240  19.150  0.00  0.00    +0.000 OA
ATOM     33  C   UNL     1       1.476  17.995  17.945  0.00  0.00    +0.000 C 
ENDBRANCH  27  32
BRANCH  28  34
ATOM     34  O   UNL     1       3.348  15.129  18.825  0.00  0.00    +0.000 OA
ATOM     35  C   UNL     1       3.946  15.270  17.544  0.00  0.00    +0.000 C 
ENDBRANCH  28  34
ENDBRANCH   1  24
TORSDOF 11
ENDMDL
