MODEL 1
REMARK VINA RESULT:      -7.9      0.000      0.000
REMARK  Name = 
REMARK  6 active torsions:
REMARK  status: ('A' for Active; 'I' for Inactive)
REMARK    1  A    between atoms: C_1  and  O_2
REMARK    2  A    between atoms: O_2  and  C_3
REMARK    3  A    between atoms: C_6  and  C_7
REMARK    4  A    between atoms: N_9  and  C_10
REMARK    5  A    between atoms: C_18  and  S_19
REMARK    6  A    between atoms: S_19  and  N_22
REMARK                            x       y       z     vdW  Elec       q    Type
REMARK                         _______ _______ _______ _____ _____    ______ ____
ROOT
ATOM      1  C   UNL     1       0.842  11.893  18.757  0.00  0.00    +0.000 A 
ATOM      2  C   UNL     1       1.740  10.989  18.172  0.00  0.00    +0.000 A 
ATOM      3  C   UNL     1       1.922   9.701  18.669  0.00  0.00    +0.000 A 
ATOM      4  C   UNL     1       1.195   9.196  19.766  0.00  0.00    +0.000 A 
ATOM      5  C   UNL     1       0.171  10.071  20.283  0.00  0.00    +0.000 A 
ATOM      6  C   UNL     1      -0.015  11.448  19.772  0.00  0.00    +0.000 A 
ENDROOT
BRANCH   4   7
ATOM      7  C   UNL     1       1.708   7.758  20.113  0.00  0.00    +0.000 C 
ATOM      8  O   UNL     1       1.352   7.269  21.191  0.00  0.00    +0.000 OA
ATOM      9  N   UNL     1       2.515   6.975  19.290  0.00  0.00    +0.000 N 
ATOM     10  H   UNL     1       2.747   7.300  18.357  0.00  0.00    +0.000 HD
BRANCH   9  11
ATOM     11  C   UNL     1       2.900   5.566  19.688  0.00  0.00    +0.000 C 
ATOM     12  C   UNL     1       1.855   4.513  19.259  0.00  0.00    +0.000 C 
ATOM     13  C   UNL     1       1.821   4.246  17.757  0.00  0.00    +0.000 C 
ATOM     14  C   UNL     1       2.751   3.126  17.294  0.00  0.00    +0.000 C 
ATOM     15  C   UNL     1       4.241   3.387  17.484  0.00  0.00    +0.000 C 
ATOM     16  C   UNL     1       4.659   3.748  18.910  0.00  0.00    +0.000 C 
ATOM     17  C   UNL     1       4.350   5.209  19.287  0.00  0.00    +0.000 C 
ENDBRANCH   9  11
ENDBRANCH   4   7
BRANCH   6  18
ATOM     18  S   UNL     1      -1.605  12.483  20.066  0.00  0.00    +0.000 S 
ATOM     19  O   UNL     1      -1.979  12.376  21.457  0.00  0.00    +0.000 OA
ATOM     20  O   UNL     1      -1.233  13.801  19.536  0.00  0.00    +0.000 OA
BRANCH  18  21
ATOM     21  N   UNL     1      -2.954  11.964  19.091  0.00  0.00    +0.000 N 
ATOM     22  C   UNL     1      -4.277  12.065  19.737  0.00  0.00    +0.000 C 
ATOM     23  C   UNL     1      -5.220  12.727  18.748  0.00  0.00    +0.000 C 
ATOM     24  C   UNL     1      -5.369  11.830  17.546  0.00  0.00    +0.000 C 
ATOM     25  C   UNL     1      -4.023  11.585  16.891  0.00  0.00    +0.000 A 
ATOM     26  C   UNL     1      -4.123  11.137  15.556  0.00  0.00    +0.000 A 
ATOM     27  C   UNL     1      -3.409  10.020  15.191  0.00  0.00    +0.000 A 
ATOM     28  C   UNL     1      -2.604   9.422  16.161  0.00  0.00    +0.000 A 
ATOM     29  C   UNL     1      -2.340  10.050  17.426  0.00  0.00    +0.000 A 
ATOM     30  C   UNL     1      -2.961  11.265  17.779  0.00  0.00    +0.000 A 
ENDBRANCH  18  21
ENDBRANCH   6  18
BRANCH   1  32
ATOM     31  C   UNL     1       2.046  13.885  18.516  0.00  0.00    +0.000 C 
ATOM     32  O   UNL     1       0.798  13.207  18.353  0.00  0.00    +0.000 OA
ENDBRANCH   1  32
TORSDOF 5
ENDMDL
MODEL 2
REMARK VINA RESULT:      -7.9      3.856      9.793
REMARK  Name = 
REMARK  6 active torsions:
REMARK  status: ('A' for Active; 'I' for Inactive)
REMARK    1  A    between atoms: C_1  and  O_2
REMARK    2  A    between atoms: O_2  and  C_3
REMARK    3  A    between atoms: C_6  and  C_7
REMARK    4  A    between atoms: N_9  and  C_10
REMARK    5  A    between atoms: C_18  and  S_19
REMARK    6  A    between atoms: S_19  and  N_22
REMARK                            x       y       z     vdW  Elec       q    Type
REMARK                         _______ _______ _______ _____ _____    ______ ____
ROOT
ATOM      1  C   UNL     1       2.335   4.713  20.708  0.00  0.00    +0.000 A 
ATOM      2  C   UNL     1       1.257   5.534  21.068  0.00  0.00    +0.000 A 
ATOM      3  C   UNL     1       1.102   6.819  20.554  0.00  0.00    +0.000 A 
ATOM      4  C   UNL     1       1.988   7.375  19.609  0.00  0.00    +0.000 A 
ATOM      5  C   UNL     1       3.017   6.486  19.130  0.00  0.00    +0.000 A 
ATOM      6  C   UNL     1       3.199   5.126  19.686  0.00  0.00    +0.000 A 
ENDROOT
BRANCH   4   7
ATOM      7  C   UNL     1       1.572   8.856  19.315  0.00  0.00    +0.000 C 
ATOM      8  O   UNL     1       1.934   9.349  18.242  0.00  0.00    +0.000 OA
ATOM      9  N   UNL     1       0.803   9.655  20.159  0.00  0.00    +0.000 N 
ATOM     10  H   UNL     1       0.404   9.257  21.003  0.00  0.00    +0.000 HD
BRANCH   9  11
ATOM     11  C   UNL     1       0.396  11.055  19.750  0.00  0.00    +0.000 C 
ATOM     12  C   UNL     1      -1.074  11.377  20.091  0.00  0.00    +0.000 C 
ATOM     13  C   UNL     1      -1.341  11.568  21.582  0.00  0.00    +0.000 C 
ATOM     14  C   UNL     1      -1.188  13.007  22.072  0.00  0.00    +0.000 C 
ATOM     15  C   UNL     1       0.218  13.589  21.975  0.00  0.00    +0.000 C 
ATOM     16  C   UNL     1       0.853  13.524  20.586  0.00  0.00    +0.000 C 
ATOM     17  C   UNL     1       1.400  12.130  20.227  0.00  0.00    +0.000 C 
ENDBRANCH   9  11
ENDBRANCH   4   7
BRANCH   6  18
ATOM     18  S   UNL     1       4.209   3.748  18.810  0.00  0.00    +0.000 S 
ATOM     19  O   UNL     1       4.841   2.924  19.815  0.00  0.00    +0.000 OA
ATOM     20  O   UNL     1       3.214   3.135  17.921  0.00  0.00    +0.000 OA
BRANCH  18  21
ATOM     21  N   UNL     1       5.446   4.369  17.750  0.00  0.00    +0.000 N 
ATOM     22  C   UNL     1       5.752   3.531  16.574  0.00  0.00    +0.000 C 
ATOM     23  C   UNL     1       5.783   4.441  15.359  0.00  0.00    +0.000 C 
ATOM     24  C   UNL     1       6.913   5.425  15.520  0.00  0.00    +0.000 C 
ATOM     25  C   UNL     1       6.727   6.252  16.779  0.00  0.00    +0.000 A 
ATOM     26  C   UNL     1       7.471   7.451  16.775  0.00  0.00    +0.000 A 
ATOM     27  C   UNL     1       8.247   7.736  17.875  0.00  0.00    +0.000 A 
ATOM     28  C   UNL     1       8.221   6.832  18.937  0.00  0.00    +0.000 A 
ATOM     29  C   UNL     1       7.267   5.759  19.001  0.00  0.00    +0.000 A 
ATOM     30  C   UNL     1       6.369   5.520  17.943  0.00  0.00    +0.000 A 
ENDBRANCH  18  21
ENDBRANCH   6  18
BRANCH   1  32
ATOM     31  C   UNL     1       1.404   2.675  21.379  0.00  0.00    +0.000 C 
ATOM     32  O   UNL     1       2.557   3.517  21.350  0.00  0.00    +0.000 OA
ENDBRANCH   1  32
TORSDOF 5
ENDMDL
MODEL 3
REMARK VINA RESULT:      -7.9      1.211      1.619
REMARK  Name = 
REMARK  6 active torsions:
REMARK  status: ('A' for Active; 'I' for Inactive)
REMARK    1  A    between atoms: C_1  and  O_2
REMARK    2  A    between atoms: O_2  and  C_3
REMARK    3  A    between atoms: C_6  and  C_7
REMARK    4  A    between atoms: N_9  and  C_10
REMARK    5  A    between atoms: C_18  and  S_19
REMARK    6  A    between atoms: S_19  and  N_22
REMARK                            x       y       z     vdW  Elec       q    Type
REMARK                         _______ _______ _______ _____ _____    ______ ____
ROOT
ATOM      1  C   UNL     1       1.033  12.444  18.869  0.00  0.00    +0.000 A 
ATOM      2  C   UNL     1       2.050  11.915  18.060  0.00  0.00    +0.000 A 
ATOM      3  C   UNL     1       2.321  10.550  18.011  0.00  0.00    +0.000 A 
ATOM      4  C   UNL     1       1.576   9.597  18.735  0.00  0.00    +0.000 A 
ATOM      5  C   UNL     1       0.442  10.119  19.458  0.00  0.00    +0.000 A 
ATOM      6  C   UNL     1       0.159  11.571  19.530  0.00  0.00    +0.000 A 
ENDROOT
BRANCH   4   7
ATOM      7  C   UNL     1       2.200   8.176  18.522  0.00  0.00    +0.000 C 
ATOM      8  O   UNL     1       3.095   8.066  17.677  0.00  0.00    +0.000 OA
ATOM      9  N   UNL     1       1.842   7.030  19.229  0.00  0.00    +0.000 N 
ATOM     10  H   UNL     1       1.183   7.098  19.998  0.00  0.00    +0.000 HD
BRANCH   9  11
ATOM     11  C   UNL     1       2.557   5.716  18.995  0.00  0.00    +0.000 C 
ATOM     12  C   UNL     1       2.775   4.911  20.294  0.00  0.00    +0.000 C 
ATOM     13  C   UNL     1       1.501   4.295  20.867  0.00  0.00    +0.000 C 
ATOM     14  C   UNL     1       1.197   2.887  20.358  0.00  0.00    +0.000 C 
ATOM     15  C   UNL     1       0.900   2.776  18.867  0.00  0.00    +0.000 C 
ATOM     16  C   UNL     1       1.974   3.356  17.947  0.00  0.00    +0.000 C 
ATOM     17  C   UNL     1       1.929   4.893  17.846  0.00  0.00    +0.000 C 
ENDBRANCH   9  11
ENDBRANCH   4   7
BRANCH   6  18
ATOM     18  S   UNL     1      -1.538  12.296  20.059  0.00  0.00    +0.000 S 
ATOM     19  O   UNL     1      -1.828  11.865  21.407  0.00  0.00    +0.000 OA
ATOM     20  O   UNL     1      -1.368  13.732  19.800  0.00  0.00    +0.000 OA
BRANCH  18  21
ATOM     21  N   UNL     1      -2.851  11.798  19.027  0.00  0.00    +0.000 N 
ATOM     22  C   UNL     1      -4.192  11.841  19.643  0.00  0.00    +0.000 C 
ATOM     23  C   UNL     1      -5.124  12.531  18.663  0.00  0.00    +0.000 C 
ATOM     24  C   UNL     1      -5.225  11.691  17.416  0.00  0.00    +0.000 C 
ATOM     25  C   UNL     1      -3.858  11.505  16.784  0.00  0.00    +0.000 A 
ATOM     26  C   UNL     1      -3.916  11.121  15.427  0.00  0.00    +0.000 A 
ATOM     27  C   UNL     1      -3.169  10.037  15.027  0.00  0.00    +0.000 A 
ATOM     28  C   UNL     1      -2.376   9.409  15.988  0.00  0.00    +0.000 A 
ATOM     29  C   UNL     1      -2.157   9.980  17.288  0.00  0.00    +0.000 A 
ATOM     30  C   UNL     1      -2.811  11.163  17.683  0.00  0.00    +0.000 A 
ENDBRANCH  18  21
ENDBRANCH   6  18
BRANCH   1  32
ATOM     31  C   UNL     1       2.116  14.458  19.361  0.00  0.00    +0.000 C 
ATOM     32  O   UNL     1       0.891  13.802  19.027  0.00  0.00    +0.000 OA
ENDBRANCH   1  32
TORSDOF 5
ENDMDL
MODEL 4
REMARK VINA RESULT:      -7.9      3.598      9.753
REMARK  Name = 
REMARK  6 active torsions:
REMARK  status: ('A' for Active; 'I' for Inactive)
REMARK    1  A    between atoms: C_1  and  O_2
REMARK    2  A    between atoms: O_2  and  C_3
REMARK    3  A    between atoms: C_6  and  C_7
REMARK    4  A    between atoms: N_9  and  C_10
REMARK    5  A    between atoms: C_18  and  S_19
REMARK    6  A    between atoms: S_19  and  N_22
REMARK                            x       y       z     vdW  Elec       q    Type
REMARK                         _______ _______ _______ _____ _____    ______ ____
ROOT
ATOM      1  C   UNL     1       2.244   4.284  20.402  0.00  0.00    +0.000 A 
ATOM      2  C   UNL     1       1.143   5.085  20.739  0.00  0.00    +0.000 A 
ATOM      3  C   UNL     1       1.081   6.435  20.405  0.00  0.00    +0.000 A 
ATOM      4  C   UNL     1       2.093   7.088  19.674  0.00  0.00    +0.000 A 
ATOM      5  C   UNL     1       3.160   6.239  19.203  0.00  0.00    +0.000 A 
ATOM      6  C   UNL     1       3.242   4.808  19.571  0.00  0.00    +0.000 A 
ENDROOT
BRANCH   4   7
ATOM      7  C   UNL     1       1.748   8.611  19.551  0.00  0.00    +0.000 C 
ATOM      8  O   UNL     1       2.291   9.249  18.643  0.00  0.00    +0.000 OA
ATOM      9  N   UNL     1       0.855   9.298  20.372  0.00  0.00    +0.000 N 
ATOM     10  H   UNL     1       0.315   8.790  21.065  0.00  0.00    +0.000 HD
BRANCH   9  11
ATOM     11  C   UNL     1       0.536  10.758  20.126  0.00  0.00    +0.000 C 
ATOM     12  C   UNL     1       0.023  11.028  18.695  0.00  0.00    +0.000 C 
ATOM     13  C   UNL     1      -1.390  10.514  18.432  0.00  0.00    +0.000 C 
ATOM     14  C   UNL     1      -2.496  11.524  18.736  0.00  0.00    +0.000 C 
ATOM     15  C   UNL     1      -2.629  11.933  20.198  0.00  0.00    +0.000 C 
ATOM     16  C   UNL     1      -1.350  12.472  20.840  0.00  0.00    +0.000 C 
ATOM     17  C   UNL     1      -0.352  11.368  21.236  0.00  0.00    +0.000 C 
ENDBRANCH   9  11
ENDBRANCH   4   7
BRANCH   6  18
ATOM     18  S   UNL     1       4.334   3.533  18.637  0.00  0.00    +0.000 S 
ATOM     19  O   UNL     1       4.999   2.693  19.605  0.00  0.00    +0.000 OA
ATOM     20  O   UNL     1       3.382   2.916  17.705  0.00  0.00    +0.000 OA
BRANCH  18  21
ATOM     21  N   UNL     1       5.545   4.275  17.626  0.00  0.00    +0.000 N 
ATOM     22  C   UNL     1       5.884   3.532  16.396  0.00  0.00    +0.000 C 
ATOM     23  C   UNL     1       5.881   4.525  15.247  0.00  0.00    +0.000 C 
ATOM     24  C   UNL     1       6.971   5.539  15.480  0.00  0.00    +0.000 C 
ATOM     25  C   UNL     1       6.752   6.269  16.792  0.00  0.00    +0.000 A 
ATOM     26  C   UNL     1       7.448   7.494  16.874  0.00  0.00    +0.000 A 
ATOM     27  C   UNL     1       8.212   7.732  17.993  0.00  0.00    +0.000 A 
ATOM     28  C   UNL     1       8.221   6.755  18.990  0.00  0.00    +0.000 A 
ATOM     29  C   UNL     1       7.309   5.645  18.977  0.00  0.00    +0.000 A 
ATOM     30  C   UNL     1       6.422   5.444  17.901  0.00  0.00    +0.000 A 
ENDBRANCH  18  21
ENDBRANCH   6  18
BRANCH   1  32
ATOM     31  C   UNL     1       1.304   2.644  21.780  0.00  0.00    +0.000 C 
ATOM     32  O   UNL     1       2.357   3.001  20.883  0.00  0.00    +0.000 OA
ENDBRANCH   1  32
TORSDOF 5
ENDMDL
MODEL 5
REMARK VINA RESULT:      -7.7      6.034      9.794
REMARK  Name = 
REMARK  6 active torsions:
REMARK  status: ('A' for Active; 'I' for Inactive)
REMARK    1  A    between atoms: C_1  and  O_2
REMARK    2  A    between atoms: O_2  and  C_3
REMARK    3  A    between atoms: C_6  and  C_7
REMARK    4  A    between atoms: N_9  and  C_10
REMARK    5  A    between atoms: C_18  and  S_19
REMARK    6  A    between atoms: S_19  and  N_22
REMARK                            x       y       z     vdW  Elec       q    Type
REMARK                         _______ _______ _______ _____ _____    ______ ____
ROOT
ATOM      1  C   UNL     1       7.356   5.677  18.187  0.00  0.00    +0.000 A 
ATOM      2  C   UNL     1       8.078   6.221  19.260  0.00  0.00    +0.000 A 
ATOM      3  C   UNL     1       8.488   7.552  19.276  0.00  0.00    +0.000 A 
ATOM      4  C   UNL     1       8.178   8.459  18.243  0.00  0.00    +0.000 A 
ATOM      5  C   UNL     1       7.317   7.944  17.207  0.00  0.00    +0.000 A 
ATOM      6  C   UNL     1       6.894   6.525  17.173  0.00  0.00    +0.000 A 
ENDROOT
BRANCH   4   7
ATOM      7  C   UNL     1       8.863   9.836  18.537  0.00  0.00    +0.000 C 
ATOM      8  O   UNL     1       8.742  10.727  17.689  0.00  0.00    +0.000 OA
ATOM      9  N   UNL     1       9.578  10.145  19.693  0.00  0.00    +0.000 N 
ATOM     10  H   UNL     1       9.616   9.476  20.455  0.00  0.00    +0.000 HD
BRANCH   9  11
ATOM     11  C   UNL     1      10.143  11.532  19.912  0.00  0.00    +0.000 C 
ATOM     12  C   UNL     1      11.628  11.648  19.507  0.00  0.00    +0.000 C 
ATOM     13  C   UNL     1      11.867  11.620  18.000  0.00  0.00    +0.000 C 
ATOM     14  C   UNL     1      11.852  12.994  17.333  0.00  0.00    +0.000 C 
ATOM     15  C   UNL     1      10.519  13.733  17.378  0.00  0.00    +0.000 C 
ATOM     16  C   UNL     1       9.924  13.912  18.775  0.00  0.00    +0.000 C 
ATOM     17  C   UNL     1       9.244  12.642  19.319  0.00  0.00    +0.000 C 
ENDBRANCH   9  11
ENDBRANCH   4   7
BRANCH   6  18
ATOM     18  S   UNL     1       5.417   5.884  16.127  0.00  0.00    +0.000 S 
ATOM     19  O   UNL     1       5.056   6.896  15.162  0.00  0.00    +0.000 OA
ATOM     20  O   UNL     1       5.907   4.588  15.639  0.00  0.00    +0.000 OA
BRANCH  18  21
ATOM     21  N   UNL     1       4.009   5.507  17.083  0.00  0.00    +0.000 N 
ATOM     22  C   UNL     1       3.296   4.273  16.701  0.00  0.00    +0.000 C 
ATOM     23  C   UNL     1       3.024   3.488  17.972  0.00  0.00    +0.000 C 
ATOM     24  C   UNL     1       2.101   4.293  18.850  0.00  0.00    +0.000 C 
ATOM     25  C   UNL     1       2.722   5.634  19.194  0.00  0.00    +0.000 A 
ATOM     26  C   UNL     1       2.143   6.244  20.327  0.00  0.00    +0.000 A 
ATOM     27  C   UNL     1       1.742   7.556  20.224  0.00  0.00    +0.000 A 
ATOM     28  C   UNL     1       1.966   8.207  19.010  0.00  0.00    +0.000 A 
ATOM     29  C   UNL     1       2.776   7.629  17.974  0.00  0.00    +0.000 A 
ATOM     30  C   UNL     1       3.309   6.331  18.104  0.00  0.00    +0.000 A 
ENDBRANCH  18  21
ENDBRANCH   6  18
BRANCH   1  32
ATOM     31  C   UNL     1       6.169   3.879  19.098  0.00  0.00    +0.000 C 
ATOM     32  O   UNL     1       7.106   4.327  18.117  0.00  0.00    +0.000 OA
ENDBRANCH   1  32
TORSDOF 5
ENDMDL
MODEL 6
REMARK VINA RESULT:      -7.6      1.558      1.839
REMARK  Name = 
REMARK  6 active torsions:
REMARK  status: ('A' for Active; 'I' for Inactive)
REMARK    1  A    between atoms: C_1  and  O_2
REMARK    2  A    between atoms: O_2  and  C_3
REMARK    3  A    between atoms: C_6  and  C_7
REMARK    4  A    between atoms: N_9  and  C_10
REMARK    5  A    between atoms: C_18  and  S_19
REMARK    6  A    between atoms: S_19  and  N_22
REMARK                            x       y       z     vdW  Elec       q    Type
REMARK                         _______ _______ _______ _____ _____    ______ ____
ROOT
ATOM      1  C   UNL     1       1.407  10.870  18.763  0.00  0.00    +0.000 A 
ATOM      2  C   UNL     1       1.813   9.887  17.849  0.00  0.00    +0.000 A 
ATOM      3  C   UNL     1       2.005   8.561  18.225  0.00  0.00    +0.000 A 
ATOM      4  C   UNL     1       1.770   8.097  19.536  0.00  0.00    +0.000 A 
ATOM      5  C   UNL     1       1.219   9.071  20.445  0.00  0.00    +0.000 A 
ATOM      6  C   UNL     1       1.030  10.488  20.057  0.00  0.00    +0.000 A 
ENDROOT
BRANCH   4   7
ATOM      7  C   UNL     1       2.167   6.586  19.632  0.00  0.00    +0.000 C 
ATOM      8  O   UNL     1       2.420   5.992  18.578  0.00  0.00    +0.000 OA
ATOM      9  N   UNL     1       2.284   5.862  20.818  0.00  0.00    +0.000 N 
ATOM     10  H   UNL     1       2.182   6.337  21.710  0.00  0.00    +0.000 HD
BRANCH   9  11
ATOM     11  C   UNL     1       2.743   4.420  20.809  0.00  0.00    +0.000 C 
ATOM     12  C   UNL     1       1.581   3.417  20.969  0.00  0.00    +0.000 C 
ATOM     13  C   UNL     1       0.684   3.301  19.739  0.00  0.00    +0.000 C 
ATOM     14  C   UNL     1       1.119   2.232  18.739  0.00  0.00    +0.000 C 
ATOM     15  C   UNL     1       2.466   2.471  18.065  0.00  0.00    +0.000 C 
ATOM     16  C   UNL     1       3.640   2.687  19.020  0.00  0.00    +0.000 C 
ATOM     17  C   UNL     1       3.686   4.103  19.624  0.00  0.00    +0.000 C 
ENDBRANCH   9  11
ENDBRANCH   4   7
BRANCH   6  18
ATOM     18  S   UNL     1      -0.097  11.710  21.017  0.00  0.00    +0.000 S 
ATOM     19  O   UNL     1      -0.122  11.325  22.409  0.00  0.00    +0.000 OA
ATOM     20  O   UNL     1       0.467  13.017  20.658  0.00  0.00    +0.000 OA
BRANCH  18  21
ATOM     21  N   UNL     1      -1.737  11.743  20.425  0.00  0.00    +0.000 N 
ATOM     22  C   UNL     1      -2.758  12.146  21.412  0.00  0.00    +0.000 C 
ATOM     23  C   UNL     1      -3.653  13.178  20.749  0.00  0.00    +0.000 C 
ATOM     24  C   UNL     1      -4.370  12.528  19.595  0.00  0.00    +0.000 C 
ATOM     25  C   UNL     1      -3.376  11.983  18.586  0.00  0.00    +0.000 A 
ATOM     26  C   UNL     1      -3.938  11.761  17.311  0.00  0.00    +0.000 A 
ATOM     27  C   UNL     1      -3.730  10.539  16.714  0.00  0.00    +0.000 A 
ATOM     28  C   UNL     1      -2.946   9.609  17.399  0.00  0.00    +0.000 A 
ATOM     29  C   UNL     1      -2.194   9.964  18.571  0.00  0.00    +0.000 A 
ATOM     30  C   UNL     1      -2.288  11.251  19.135  0.00  0.00    +0.000 A 
ENDBRANCH  18  21
ENDBRANCH   6  18
BRANCH   1  32
ATOM     31  C   UNL     1       2.679  12.722  18.112  0.00  0.00    +0.000 C 
ATOM     32  O   UNL     1       1.383  12.198  18.409  0.00  0.00    +0.000 OA
ENDBRANCH   1  32
TORSDOF 5
ENDMDL
MODEL 7
REMARK VINA RESULT:      -7.6      3.372      5.064
REMARK  Name = 
REMARK  6 active torsions:
REMARK  status: ('A' for Active; 'I' for Inactive)
REMARK    1  A    between atoms: C_1  and  O_2
REMARK    2  A    between atoms: O_2  and  C_3
REMARK    3  A    between atoms: C_6  and  C_7
REMARK    4  A    between atoms: N_9  and  C_10
REMARK    5  A    between atoms: C_18  and  S_19
REMARK    6  A    between atoms: S_19  and  N_22
REMARK                            x       y       z     vdW  Elec       q    Type
REMARK                         _______ _______ _______ _____ _____    ______ ____
ROOT
ATOM      1  C   UNL     1      -0.040  11.165  22.154  0.00  0.00    +0.000 A 
ATOM      2  C   UNL     1       0.328   9.812  22.203  0.00  0.00    +0.000 A 
ATOM      3  C   UNL     1       0.860   9.150  21.099  0.00  0.00    +0.000 A 
ATOM      4  C   UNL     1       1.105   9.792  19.869  0.00  0.00    +0.000 A 
ATOM      5  C   UNL     1       0.861  11.214  19.855  0.00  0.00    +0.000 A 
ATOM      6  C   UNL     1       0.278  11.920  21.018  0.00  0.00    +0.000 A 
ENDROOT
BRANCH   4   7
ATOM      7  C   UNL     1       1.618   8.742  18.827  0.00  0.00    +0.000 C 
ATOM      8  O   UNL     1       1.515   9.028  17.629  0.00  0.00    +0.000 OA
ATOM      9  N   UNL     1       2.207   7.520  19.145  0.00  0.00    +0.000 N 
ATOM     10  H   UNL     1       2.400   7.291  20.115  0.00  0.00    +0.000 HD
BRANCH   9  11
ATOM     11  C   UNL     1       2.736   6.604  18.061  0.00  0.00    +0.000 C 
ATOM     12  C   UNL     1       4.263   6.395  18.143  0.00  0.00    +0.000 C 
ATOM     13  C   UNL     1       4.711   5.524  19.314  0.00  0.00    +0.000 C 
ATOM     14  C   UNL     1       4.789   4.032  18.997  0.00  0.00    +0.000 C 
ATOM     15  C   UNL     1       3.463   3.361  18.657  0.00  0.00    +0.000 C 
ATOM     16  C   UNL     1       2.678   4.014  17.520  0.00  0.00    +0.000 C 
ATOM     17  C   UNL     1       1.928   5.290  17.946  0.00  0.00    +0.000 C 
ENDBRANCH   9  11
ENDBRANCH   4   7
BRANCH   6  18
ATOM     18  S   UNL     1       0.354  13.825  21.251  0.00  0.00    +0.000 S 
ATOM     19  O   UNL     1      -0.951  14.296  21.655  0.00  0.00    +0.000 OA
ATOM     20  O   UNL     1       1.481  13.991  22.177  0.00  0.00    +0.000 OA
BRANCH  18  21
ATOM     21  N   UNL     1       0.824  14.676  19.804  0.00  0.00    +0.000 N 
ATOM     22  C   UNL     1      -0.288  15.104  18.932  0.00  0.00    +0.000 C 
ATOM     23  C   UNL     1      -0.043  16.555  18.557  0.00  0.00    +0.000 C 
ATOM     24  C   UNL     1       1.226  16.639  17.749  0.00  0.00    +0.000 C 
ATOM     25  C   UNL     1       2.404  16.106  18.544  0.00  0.00    +0.000 A 
ATOM     26  C   UNL     1       3.653  16.539  18.051  0.00  0.00    +0.000 A 
ATOM     27  C   UNL     1       4.626  15.592  17.830  0.00  0.00    +0.000 A 
ATOM     28  C   UNL     1       4.321  14.266  18.140  0.00  0.00    +0.000 A 
ATOM     29  C   UNL     1       3.135  13.907  18.866  0.00  0.00    +0.000 A 
ATOM     30  C   UNL     1       2.177  14.877  19.220  0.00  0.00    +0.000 A 
ENDBRANCH  18  21
ENDBRANCH   6  18
BRANCH   1  32
ATOM     31  C   UNL     1      -2.110  11.455  23.205  0.00  0.00    +0.000 C 
ATOM     32  O   UNL     1      -0.712  11.751  23.200  0.00  0.00    +0.000 OA
ENDBRANCH   1  32
TORSDOF 5
ENDMDL
MODEL 8
REMARK VINA RESULT:      -7.5      0.758      2.171
REMARK  Name = 
REMARK  6 active torsions:
REMARK  status: ('A' for Active; 'I' for Inactive)
REMARK    1  A    between atoms: C_1  and  O_2
REMARK    2  A    between atoms: O_2  and  C_3
REMARK    3  A    between atoms: C_6  and  C_7
REMARK    4  A    between atoms: N_9  and  C_10
REMARK    5  A    between atoms: C_18  and  S_19
REMARK    6  A    between atoms: S_19  and  N_22
REMARK                            x       y       z     vdW  Elec       q    Type
REMARK                         _______ _______ _______ _____ _____    ______ ____
ROOT
ATOM      1  C   UNL     1       0.738  11.762  18.858  0.00  0.00    +0.000 A 
ATOM      2  C   UNL     1       1.644  10.880  18.253  0.00  0.00    +0.000 A 
ATOM      3  C   UNL     1       1.848   9.587  18.728  0.00  0.00    +0.000 A 
ATOM      4  C   UNL     1       1.136   9.055  19.823  0.00  0.00    +0.000 A 
ATOM      5  C   UNL     1       0.104   9.907  20.360  0.00  0.00    +0.000 A 
ATOM      6  C   UNL     1      -0.105  11.289  19.872  0.00  0.00    +0.000 A 
ENDROOT
BRANCH   4   7
ATOM      7  C   UNL     1       1.671   7.619  20.144  0.00  0.00    +0.000 C 
ATOM      8  O   UNL     1       1.294   7.091  21.195  0.00  0.00    +0.000 OA
ATOM      9  N   UNL     1       2.521   6.879  19.324  0.00  0.00    +0.000 N 
ATOM     10  H   UNL     1       2.774   7.236  18.408  0.00  0.00    +0.000 HD
BRANCH   9  11
ATOM     11  C   UNL     1       2.926   5.468  19.693  0.00  0.00    +0.000 C 
ATOM     12  C   UNL     1       1.875   4.414  19.282  0.00  0.00    +0.000 C 
ATOM     13  C   UNL     1       1.798   4.165  17.778  0.00  0.00    +0.000 C 
ATOM     14  C   UNL     1       2.720   3.056  17.273  0.00  0.00    +0.000 C 
ATOM     15  C   UNL     1       4.214   3.325  17.423  0.00  0.00    +0.000 C 
ATOM     16  C   UNL     1       4.672   3.671  18.839  0.00  0.00    +0.000 C 
ATOM     17  C   UNL     1       4.366   5.125  19.244  0.00  0.00    +0.000 C 
ENDBRANCH   9  11
ENDBRANCH   4   7
BRANCH   6  18
ATOM     18  S   UNL     1      -1.708  12.297  20.193  0.00  0.00    +0.000 S 
ATOM     19  O   UNL     1      -2.196  11.985  21.516  0.00  0.00    +0.000 OA
ATOM     20  O   UNL     1      -1.285  13.674  19.905  0.00  0.00    +0.000 OA
BRANCH  18  21
ATOM     21  N   UNL     1      -2.975  11.961  19.044  0.00  0.00    +0.000 N 
ATOM     22  C   UNL     1      -2.525  11.719  17.659  0.00  0.00    +0.000 C 
ATOM     23  C   UNL     1      -3.234  10.473  17.158  0.00  0.00    +0.000 C 
ATOM     24  C   UNL     1      -4.716  10.744  17.113  0.00  0.00    +0.000 C 
ATOM     25  C   UNL     1      -5.234  11.114  18.490  0.00  0.00    +0.000 A 
ATOM     26  C   UNL     1      -6.630  10.957  18.623  0.00  0.00    +0.000 A 
ATOM     27  C   UNL     1      -7.355  12.007  19.139  0.00  0.00    +0.000 A 
ATOM     28  C   UNL     1      -6.652  13.148  19.528  0.00  0.00    +0.000 A 
ATOM     29  C   UNL     1      -5.218  13.170  19.606  0.00  0.00    +0.000 A 
ATOM     30  C   UNL     1      -4.449  12.060  19.204  0.00  0.00    +0.000 A 
ENDBRANCH  18  21
ENDBRANCH   6  18
BRANCH   1  32
ATOM     31  C   UNL     1       1.960  13.685  18.326  0.00  0.00    +0.000 C 
ATOM     32  O   UNL     1       0.673  13.081  18.475  0.00  0.00    +0.000 OA
ENDBRANCH   1  32
TORSDOF 5
ENDMDL
MODEL 9
REMARK VINA RESULT:      -7.5      2.697      4.527
REMARK  Name = 
REMARK  6 active torsions:
REMARK  status: ('A' for Active; 'I' for Inactive)
REMARK    1  A    between atoms: C_1  and  O_2
REMARK    2  A    between atoms: O_2  and  C_3
REMARK    3  A    between atoms: C_6  and  C_7
REMARK    4  A    between atoms: N_9  and  C_10
REMARK    5  A    between atoms: C_18  and  S_19
REMARK    6  A    between atoms: S_19  and  N_22
REMARK                            x       y       z     vdW  Elec       q    Type
REMARK                         _______ _______ _______ _____ _____    ______ ____
ROOT
ATOM      1  C   UNL     1      -0.332  11.670  18.624  0.00  0.00    +0.000 A 
ATOM      2  C   UNL     1      -0.786  10.349  18.495  0.00  0.00    +0.000 A 
ATOM      3  C   UNL     1       0.091   9.269  18.434  0.00  0.00    +0.000 A 
ATOM      4  C   UNL     1       1.489   9.413  18.537  0.00  0.00    +0.000 A 
ATOM      5  C   UNL     1       1.953  10.751  18.811  0.00  0.00    +0.000 A 
ATOM      6  C   UNL     1       1.029  11.907  18.857  0.00  0.00    +0.000 A 
ENDROOT
BRANCH   4   7
ATOM      7  C   UNL     1       2.173   8.018  18.341  0.00  0.00    +0.000 C 
ATOM      8  O   UNL     1       3.057   7.929  17.483  0.00  0.00    +0.000 OA
ATOM      9  N   UNL     1       1.880   6.872  19.079  0.00  0.00    +0.000 N 
ATOM     10  H   UNL     1       1.231   6.927  19.858  0.00  0.00    +0.000 HD
BRANCH   9  11
ATOM     11  C   UNL     1       2.649   5.586  18.860  0.00  0.00    +0.000 C 
ATOM     12  C   UNL     1       2.961   4.841  20.175  0.00  0.00    +0.000 C 
ATOM     13  C   UNL     1       1.745   4.186  20.824  0.00  0.00    +0.000 C 
ATOM     14  C   UNL     1       1.491   2.747  20.378  0.00  0.00    +0.000 C 
ATOM     15  C   UNL     1       1.137   2.567  18.906  0.00  0.00    +0.000 C 
ATOM     16  C   UNL     1       2.140   3.165  17.920  0.00  0.00    +0.000 C 
ATOM     17  C   UNL     1       2.015   4.692  17.768  0.00  0.00    +0.000 C 
ENDBRANCH   9  11
ENDBRANCH   4   7
BRANCH   6  18
ATOM     18  S   UNL     1       1.480  13.594  19.654  0.00  0.00    +0.000 S 
ATOM     19  O   UNL     1       2.905  13.632  19.889  0.00  0.00    +0.000 OA
ATOM     20  O   UNL     1       0.895  14.560  18.715  0.00  0.00    +0.000 OA
BRANCH  18  21
ATOM     21  N   UNL     1       0.664  13.880  21.168  0.00  0.00    +0.000 N 
ATOM     22  C   UNL     1       1.221  14.972  21.991  0.00  0.00    +0.000 C 
ATOM     23  C   UNL     1       0.061  15.834  22.453  0.00  0.00    +0.000 C 
ATOM     24  C   UNL     1      -0.834  15.008  23.341  0.00  0.00    +0.000 C 
ATOM     25  C   UNL     1      -1.358  13.796  22.594  0.00  0.00    +0.000 A 
ATOM     26  C   UNL     1      -2.508  13.230  23.183  0.00  0.00    +0.000 A 
ATOM     27  C   UNL     1      -2.517  11.874  23.415  0.00  0.00    +0.000 A 
ATOM     28  C   UNL     1      -1.396  11.142  23.021  0.00  0.00    +0.000 A 
ATOM     29  C   UNL     1      -0.361  11.716  22.206  0.00  0.00    +0.000 A 
ATOM     30  C   UNL     1      -0.389  13.076  21.843  0.00  0.00    +0.000 A 
ENDBRANCH  18  21
ENDBRANCH   6  18
BRANCH   1  32
ATOM     31  C   UNL     1      -2.505  12.437  19.024  0.00  0.00    +0.000 C 
ATOM     32  O   UNL     1      -1.202  12.729  18.517  0.00  0.00    +0.000 OA
ENDBRANCH   1  32
TORSDOF 5
ENDMDL
