MODEL 1
REMARK VINA RESULT:      -7.4      0.000      0.000
REMARK  Name = 
REMARK  7 active torsions:
REMARK  status: ('A' for Active; 'I' for Inactive)
REMARK    1  A    between atoms: C_1  and  O_2
REMARK    2  A    between atoms: O_2  and  C_3
REMARK    3  A    between atoms: C_8  and  C_9
REMARK    4  A    between atoms: C_14  and  N_15
REMARK    5  A    between atoms: N_15  and  C_16
REMARK    6  A    between atoms: C_16  and  C_17
REMARK    7  A    between atoms: C_17  and  C_18
REMARK                            x       y       z     vdW  Elec       q    Type
REMARK                         _______ _______ _______ _____ _____    ______ ____
ROOT
ATOM      1  C   UNL     1       3.938   4.158  19.234  0.00  0.00    +0.000 A 
ATOM      2  C   UNL     1       3.717   2.911  19.815  0.00  0.00    +0.000 A 
ATOM      3  N   UNL     1       2.837   2.637  20.806  0.00  0.00    +0.000 NA
ATOM      4  C   UNL     1       2.157   3.685  21.261  0.00  0.00    +0.000 A 
ATOM      5  N   UNL     1       2.302   4.946  20.850  0.00  0.00    +0.000 NA
ATOM      6  C   UNL     1       3.176   5.179  19.843  0.00  0.00    +0.000 A 
ENDROOT
BRANCH   1  12
ATOM      7  C   UNL     1       6.264   4.697  18.231  0.00  0.00    +0.000 A 
ATOM      8  C   UNL     1       7.142   4.643  17.130  0.00  0.00    +0.000 A 
ATOM      9  C   UNL     1       6.678   4.333  15.858  0.00  0.00    +0.000 A 
ATOM     10  C   UNL     1       5.325   4.119  15.666  0.00  0.00    +0.000 A 
ATOM     11  C   UNL     1       4.455   4.150  16.757  0.00  0.00    +0.000 A 
ATOM     12  C   UNL     1       4.895   4.350  18.089  0.00  0.00    +0.000 A 
BRANCH   7  14
ATOM     13  C   UNL     1       7.942   5.839  19.428  0.00  0.00    +0.000 C 
ATOM     14  O   UNL     1       6.759   5.037  19.471  0.00  0.00    +0.000 OA
ENDBRANCH   7  14
ENDBRANCH   1  12
BRANCH   6  15
ATOM     15  N   UNL     1       3.280   6.514  19.408  0.00  0.00    +0.000 N 
ATOM     16  H   UNL     1       4.265   6.745  19.276  0.00  0.00    +0.000 HD
BRANCH  15  17
ATOM     17  C   UNL     1       2.423   6.895  18.288  0.00  0.00    +0.000 C 
BRANCH  17  18
ATOM     18  C   UNL     1       2.544   8.399  17.987  0.00  0.00    +0.000 C 
BRANCH  18  19
ATOM     19  C   UNL     1       1.431   9.199  18.575  0.00  0.00    +0.000 A 
ATOM     20  C   UNL     1       0.981   9.338  19.871  0.00  0.00    +0.000 A 
ATOM     21  N   UNL     1      -0.087  10.195  19.929  0.00  0.00    +0.000 NA
ATOM     22  C   UNL     1      -0.295  10.574  18.690  0.00  0.00    +0.000 A 
ATOM     23  N   UNL     1       0.592   9.991  17.831  0.00  0.00    +0.000 N 
ATOM     24  H   UNL     1       0.624  10.141  16.831  0.00  0.00    +0.000 HD
ENDBRANCH  18  19
ENDBRANCH  17  18
ENDBRANCH  15  17
ENDBRANCH   6  15
TORSDOF 6
ENDMDL
MODEL 2
REMARK VINA RESULT:      -7.2      4.052      6.841
REMARK  Name = 
REMARK  7 active torsions:
REMARK  status: ('A' for Active; 'I' for Inactive)
REMARK    1  A    between atoms: C_1  and  O_2
REMARK    2  A    between atoms: O_2  and  C_3
REMARK    3  A    between atoms: C_8  and  C_9
REMARK    4  A    between atoms: C_14  and  N_15
REMARK    5  A    between atoms: N_15  and  C_16
REMARK    6  A    between atoms: C_16  and  C_17
REMARK    7  A    between atoms: C_17  and  C_18
REMARK                            x       y       z     vdW  Elec       q    Type
REMARK                         _______ _______ _______ _____ _____    ______ ____
ROOT
ATOM      1  C   UNL     1       5.250   4.481  18.281  0.00  0.00    +0.000 A 
ATOM      2  C   UNL     1       5.818   4.966  19.457  0.00  0.00    +0.000 A 
ATOM      3  N   UNL     1       7.039   5.536  19.577  0.00  0.00    +0.000 NA
ATOM      4  C   UNL     1       7.745   5.598  18.451  0.00  0.00    +0.000 A 
ATOM      5  N   UNL     1       7.363   5.122  17.265  0.00  0.00    +0.000 NA
ATOM      6  C   UNL     1       6.127   4.577  17.179  0.00  0.00    +0.000 A 
ENDROOT
BRANCH   1  12
ATOM      7  C   UNL     1       3.463   2.683  18.814  0.00  0.00    +0.000 A 
ATOM      8  C   UNL     1       2.101   2.334  18.922  0.00  0.00    +0.000 A 
ATOM      9  C   UNL     1       1.109   3.148  18.391  0.00  0.00    +0.000 A 
ATOM     10  C   UNL     1       1.469   4.295  17.708  0.00  0.00    +0.000 A 
ATOM     11  C   UNL     1       2.814   4.655  17.617  0.00  0.00    +0.000 A 
ATOM     12  C   UNL     1       3.854   3.920  18.238  0.00  0.00    +0.000 A 
BRANCH   7  14
ATOM     13  C   UNL     1       4.445   1.784  20.758  0.00  0.00    +0.000 C 
ATOM     14  O   UNL     1       4.418   1.835  19.328  0.00  0.00    +0.000 OA
ENDBRANCH   7  14
ENDBRANCH   1  12
BRANCH   6  15
ATOM     15  N   UNL     1       5.739   4.117  15.906  0.00  0.00    +0.000 N 
ATOM     16  H   UNL     1       4.775   3.788  15.950  0.00  0.00    +0.000 HD
BRANCH  15  17
ATOM     17  C   UNL     1       6.013   5.014  14.785  0.00  0.00    +0.000 C 
BRANCH  17  18
ATOM     18  C   UNL     1       6.884   4.321  13.723  0.00  0.00    +0.000 C 
BRANCH  18  19
ATOM     19  C   UNL     1       6.083   3.545  12.732  0.00  0.00    +0.000 A 
ATOM     20  C   UNL     1       4.792   3.694  12.272  0.00  0.00    +0.000 A 
ATOM     21  N   UNL     1       4.486   2.727  11.350  0.00  0.00    +0.000 NA
ATOM     22  C   UNL     1       5.569   1.991  11.248  0.00  0.00    +0.000 A 
ATOM     23  N   UNL     1       6.560   2.440  12.072  0.00  0.00    +0.000 N 
ATOM     24  H   UNL     1       7.483   2.032  12.154  0.00  0.00    +0.000 HD
ENDBRANCH  18  19
ENDBRANCH  17  18
ENDBRANCH  15  17
ENDBRANCH   6  15
TORSDOF 6
ENDMDL
MODEL 3
REMARK VINA RESULT:      -7.2      3.829      6.846
REMARK  Name = 
REMARK  7 active torsions:
REMARK  status: ('A' for Active; 'I' for Inactive)
REMARK    1  A    between atoms: C_1  and  O_2
REMARK    2  A    between atoms: O_2  and  C_3
REMARK    3  A    between atoms: C_8  and  C_9
REMARK    4  A    between atoms: C_14  and  N_15
REMARK    5  A    between atoms: N_15  and  C_16
REMARK    6  A    between atoms: C_16  and  C_17
REMARK    7  A    between atoms: C_17  and  C_18
REMARK                            x       y       z     vdW  Elec       q    Type
REMARK                         _______ _______ _______ _____ _____    ______ ____
ROOT
ATOM      1  C   UNL     1       5.409   4.474  18.490  0.00  0.00    +0.000 A 
ATOM      2  C   UNL     1       5.973   5.095  19.602  0.00  0.00    +0.000 A 
ATOM      3  N   UNL     1       7.230   5.588  19.687  0.00  0.00    +0.000 NA
ATOM      4  C   UNL     1       7.975   5.423  18.598  0.00  0.00    +0.000 A 
ATOM      5  N   UNL     1       7.597   4.796  17.482  0.00  0.00    +0.000 NA
ATOM      6  C   UNL     1       6.326   4.334  17.426  0.00  0.00    +0.000 A 
ENDROOT
BRANCH   1  12
ATOM      7  C   UNL     1       2.881   4.801  18.025  0.00  0.00    +0.000 A 
ATOM      8  C   UNL     1       1.609   4.227  17.832  0.00  0.00    +0.000 A 
ATOM      9  C   UNL     1       1.366   2.898  18.154  0.00  0.00    +0.000 A 
ATOM     10  C   UNL     1       2.380   2.143  18.714  0.00  0.00    +0.000 A 
ATOM     11  C   UNL     1       3.647   2.700  18.887  0.00  0.00    +0.000 A 
ATOM     12  C   UNL     1       3.976   4.014  18.471  0.00  0.00    +0.000 A 
BRANCH   7  14
ATOM     13  C   UNL     1       2.538   7.035  18.690  0.00  0.00    +0.000 C 
ATOM     14  O   UNL     1       3.074   6.130  17.720  0.00  0.00    +0.000 OA
ENDBRANCH   7  14
ENDBRANCH   1  12
BRANCH   6  15
ATOM     15  N   UNL     1       5.946   3.709  16.223  0.00  0.00    +0.000 N 
ATOM     16  H   UNL     1       4.930   3.739  16.139  0.00  0.00    +0.000 HD
BRANCH  15  17
ATOM     17  C   UNL     1       6.657   4.140  15.021  0.00  0.00    +0.000 C 
BRANCH  17  18
ATOM     18  C   UNL     1       5.674   4.637  13.946  0.00  0.00    +0.000 C 
BRANCH  18  19
ATOM     19  C   UNL     1       5.478   3.654  12.841  0.00  0.00    +0.000 A 
ATOM     20  C   UNL     1       4.417   3.423  11.992  0.00  0.00    +0.000 A 
ATOM     21  N   UNL     1       4.699   2.400  11.123  0.00  0.00    +0.000 NA
ATOM     22  C   UNL     1       5.910   2.004  11.437  0.00  0.00    +0.000 A 
ATOM     23  N   UNL     1       6.421   2.726  12.477  0.00  0.00    +0.000 N 
ATOM     24  H   UNL     1       7.340   2.600  12.882  0.00  0.00    +0.000 HD
ENDBRANCH  18  19
ENDBRANCH  17  18
ENDBRANCH  15  17
ENDBRANCH   6  15
TORSDOF 6
ENDMDL
MODEL 4
REMARK VINA RESULT:      -7.2      1.155      1.181
REMARK  Name = 
REMARK  7 active torsions:
REMARK  status: ('A' for Active; 'I' for Inactive)
REMARK    1  A    between atoms: C_1  and  O_2
REMARK    2  A    between atoms: O_2  and  C_3
REMARK    3  A    between atoms: C_8  and  C_9
REMARK    4  A    between atoms: C_14  and  N_15
REMARK    5  A    between atoms: N_15  and  C_16
REMARK    6  A    between atoms: C_16  and  C_17
REMARK    7  A    between atoms: C_17  and  C_18
REMARK                            x       y       z     vdW  Elec       q    Type
REMARK                         _______ _______ _______ _____ _____    ______ ____
ROOT
ATOM      1  C   UNL     1       3.704   3.824  17.987  0.00  0.00    +0.000 A 
ATOM      2  C   UNL     1       3.152   2.547  17.913  0.00  0.00    +0.000 A 
ATOM      3  N   UNL     1       2.051   2.115  18.571  0.00  0.00    +0.000 NA
ATOM      4  C   UNL     1       1.486   3.013  19.374  0.00  0.00    +0.000 A 
ATOM      5  N   UNL     1       1.932   4.250  19.596  0.00  0.00    +0.000 NA
ATOM      6  C   UNL     1       3.024   4.654  18.905  0.00  0.00    +0.000 A 
ENDROOT
BRANCH   1  12
ATOM      7  C   UNL     1       6.184   4.513  17.694  0.00  0.00    +0.000 A 
ATOM      8  C   UNL     1       7.297   4.670  16.844  0.00  0.00    +0.000 A 
ATOM      9  C   UNL     1       7.154   4.637  15.463  0.00  0.00    +0.000 A 
ATOM     10  C   UNL     1       5.892   4.493  14.918  0.00  0.00    +0.000 A 
ATOM     11  C   UNL     1       4.789   4.317  15.755  0.00  0.00    +0.000 A 
ATOM     12  C   UNL     1       4.897   4.229  17.165  0.00  0.00    +0.000 A 
BRANCH   7  14
ATOM     13  C   UNL     1       7.287   5.589  19.477  0.00  0.00    +0.000 C 
ATOM     14  O   UNL     1       6.363   4.580  19.058  0.00  0.00    +0.000 OA
ENDBRANCH   7  14
ENDBRANCH   1  12
BRANCH   6  15
ATOM     15  N   UNL     1       3.449   5.976  19.135  0.00  0.00    +0.000 N 
ATOM     16  H   UNL     1       4.088   6.255  18.390  0.00  0.00    +0.000 HD
BRANCH  15  17
ATOM     17  C   UNL     1       2.398   6.951  19.415  0.00  0.00    +0.000 C 
BRANCH  17  18
ATOM     18  C   UNL     1       2.282   7.980  18.276  0.00  0.00    +0.000 C 
BRANCH  18  19
ATOM     19  C   UNL     1       1.613   9.243  18.701  0.00  0.00    +0.000 A 
ATOM     20  C   UNL     1       0.873   9.563  19.820  0.00  0.00    +0.000 A 
ATOM     21  N   UNL     1       0.455  10.868  19.775  0.00  0.00    +0.000 NA
ATOM     22  C   UNL     1       0.925  11.343  18.645  0.00  0.00    +0.000 A 
ATOM     23  N   UNL     1       1.625  10.395  17.955  0.00  0.00    +0.000 N 
ATOM     24  H   UNL     1       2.082  10.538  17.063  0.00  0.00    +0.000 HD
ENDBRANCH  18  19
ENDBRANCH  17  18
ENDBRANCH  15  17
ENDBRANCH   6  15
TORSDOF 6
ENDMDL
MODEL 5
REMARK VINA RESULT:      -7.0      1.352      1.517
REMARK  Name = 
REMARK  7 active torsions:
REMARK  status: ('A' for Active; 'I' for Inactive)
REMARK    1  A    between atoms: C_1  and  O_2
REMARK    2  A    between atoms: O_2  and  C_3
REMARK    3  A    between atoms: C_8  and  C_9
REMARK    4  A    between atoms: C_14  and  N_15
REMARK    5  A    between atoms: N_15  and  C_16
REMARK    6  A    between atoms: C_16  and  C_17
REMARK    7  A    between atoms: C_17  and  C_18
REMARK                            x       y       z     vdW  Elec       q    Type
REMARK                         _______ _______ _______ _____ _____    ______ ____
ROOT
ATOM      1  C   UNL     1       3.724   3.654  17.793  0.00  0.00    +0.000 A 
ATOM      2  C   UNL     1       3.641   2.350  18.277  0.00  0.00    +0.000 A 
ATOM      3  N   UNL     1       2.580   1.802  18.913  0.00  0.00    +0.000 NA
ATOM      4  C   UNL     1       1.550   2.622  19.100  0.00  0.00    +0.000 A 
ATOM      5  N   UNL     1       1.504   3.909  18.750  0.00  0.00    +0.000 NA
ATOM      6  C   UNL     1       2.576   4.417  18.097  0.00  0.00    +0.000 A 
ENDROOT
BRANCH   1  12
ATOM      7  C   UNL     1       6.153   4.543  17.641  0.00  0.00    +0.000 A 
ATOM      8  C   UNL     1       7.298   4.788  16.856  0.00  0.00    +0.000 A 
ATOM      9  C   UNL     1       7.240   4.740  15.470  0.00  0.00    +0.000 A 
ATOM     10  C   UNL     1       6.028   4.492  14.852  0.00  0.00    +0.000 A 
ATOM     11  C   UNL     1       4.896   4.228  15.625  0.00  0.00    +0.000 A 
ATOM     12  C   UNL     1       4.927   4.153  17.039  0.00  0.00    +0.000 A 
BRANCH   7  14
ATOM     13  C   UNL     1       7.265   5.517  19.475  0.00  0.00    +0.000 C 
ATOM     14  O   UNL     1       6.245   4.628  19.012  0.00  0.00    +0.000 OA
ENDBRANCH   7  14
ENDBRANCH   1  12
BRANCH   6  15
ATOM     15  N   UNL     1       2.483   5.767  17.710  0.00  0.00    +0.000 N 
ATOM     16  H   UNL     1       1.619   5.904  17.185  0.00  0.00    +0.000 HD
BRANCH  15  17
ATOM     17  C   UNL     1       2.704   6.756  18.763  0.00  0.00    +0.000 C 
BRANCH  17  18
ATOM     18  C   UNL     1       2.593   8.187  18.208  0.00  0.00    +0.000 C 
BRANCH  18  19
ATOM     19  C   UNL     1       1.484   8.966  18.830  0.00  0.00    +0.000 A 
ATOM     20  C   UNL     1       0.581   9.865  18.303  0.00  0.00    +0.000 A 
ATOM     21  N   UNL     1      -0.267  10.334  19.273  0.00  0.00    +0.000 NA
ATOM     22  C   UNL     1       0.111   9.738  20.381  0.00  0.00    +0.000 A 
ATOM     23  N   UNL     1       1.173   8.908  20.166  0.00  0.00    +0.000 N 
ATOM     24  H   UNL     1       1.627   8.342  20.873  0.00  0.00    +0.000 HD
ENDBRANCH  18  19
ENDBRANCH  17  18
ENDBRANCH  15  17
ENDBRANCH   6  15
TORSDOF 6
ENDMDL
MODEL 6
REMARK VINA RESULT:      -7.0      1.031      1.284
REMARK  Name = 
REMARK  7 active torsions:
REMARK  status: ('A' for Active; 'I' for Inactive)
REMARK    1  A    between atoms: C_1  and  O_2
REMARK    2  A    between atoms: O_2  and  C_3
REMARK    3  A    between atoms: C_8  and  C_9
REMARK    4  A    between atoms: C_14  and  N_15
REMARK    5  A    between atoms: N_15  and  C_16
REMARK    6  A    between atoms: C_16  and  C_17
REMARK    7  A    between atoms: C_17  and  C_18
REMARK                            x       y       z     vdW  Elec       q    Type
REMARK                         _______ _______ _______ _____ _____    ______ ____
ROOT
ATOM      1  C   UNL     1       3.839   3.656  18.534  0.00  0.00    +0.000 A 
ATOM      2  C   UNL     1       3.354   2.351  18.509  0.00  0.00    +0.000 A 
ATOM      3  N   UNL     1       2.364   1.853  19.287  0.00  0.00    +0.000 NA
ATOM      4  C   UNL     1       1.850   2.713  20.163  0.00  0.00    +0.000 A 
ATOM      5  N   UNL     1       2.250   3.972  20.346  0.00  0.00    +0.000 NA
ATOM      6  C   UNL     1       3.228   4.441  19.536  0.00  0.00    +0.000 A 
ENDROOT
BRANCH   1  12
ATOM      7  C   UNL     1       6.199   4.562  17.968  0.00  0.00    +0.000 A 
ATOM      8  C   UNL     1       7.204   4.783  17.005  0.00  0.00    +0.000 A 
ATOM      9  C   UNL     1       6.934   4.672  15.648  0.00  0.00    +0.000 A 
ATOM     10  C   UNL     1       5.645   4.384  15.237  0.00  0.00    +0.000 A 
ATOM     11  C   UNL     1       4.651   4.143  16.187  0.00  0.00    +0.000 A 
ATOM     12  C   UNL     1       4.902   4.133  17.581  0.00  0.00    +0.000 A 
BRANCH   7  14
ATOM     13  C   UNL     1       7.549   5.647  19.565  0.00  0.00    +0.000 C 
ATOM     14  O   UNL     1       6.501   4.710  19.303  0.00  0.00    +0.000 OA
ENDBRANCH   7  14
ENDBRANCH   1  12
BRANCH   6  15
ATOM     15  N   UNL     1       3.604   5.783  19.731  0.00  0.00    +0.000 N 
ATOM     16  H   UNL     1       4.588   5.892  19.487  0.00  0.00    +0.000 HD
BRANCH  15  17
ATOM     17  C   UNL     1       2.728   6.790  19.136  0.00  0.00    +0.000 C 
BRANCH  17  18
ATOM     18  C   UNL     1       1.899   7.508  20.216  0.00  0.00    +0.000 C 
BRANCH  18  19
ATOM     19  C   UNL     1       1.415   8.849  19.780  0.00  0.00    +0.000 A 
ATOM     20  C   UNL     1       1.394   9.465  18.546  0.00  0.00    +0.000 A 
ATOM     21  N   UNL     1       0.845  10.718  18.633  0.00  0.00    +0.000 NA
ATOM     22  C   UNL     1       0.539  10.875  19.900  0.00  0.00    +0.000 A 
ATOM     23  N   UNL     1       0.873   9.775  20.637  0.00  0.00    +0.000 N 
ATOM     24  H   UNL     1       0.723   9.668  21.632  0.00  0.00    +0.000 HD
ENDBRANCH  18  19
ENDBRANCH  17  18
ENDBRANCH  15  17
ENDBRANCH   6  15
TORSDOF 6
ENDMDL
MODEL 7
REMARK VINA RESULT:      -7.0      1.980      2.697
REMARK  Name = 
REMARK  7 active torsions:
REMARK  status: ('A' for Active; 'I' for Inactive)
REMARK    1  A    between atoms: C_1  and  O_2
REMARK    2  A    between atoms: O_2  and  C_3
REMARK    3  A    between atoms: C_8  and  C_9
REMARK    4  A    between atoms: C_14  and  N_15
REMARK    5  A    between atoms: N_15  and  C_16
REMARK    6  A    between atoms: C_16  and  C_17
REMARK    7  A    between atoms: C_17  and  C_18
REMARK                            x       y       z     vdW  Elec       q    Type
REMARK                         _______ _______ _______ _____ _____    ______ ____
ROOT
ATOM      1  C   UNL     1       3.772   3.792  18.311  0.00  0.00    +0.000 A 
ATOM      2  C   UNL     1       3.578   2.433  18.547  0.00  0.00    +0.000 A 
ATOM      3  N   UNL     1       2.384   1.806  18.662  0.00  0.00    +0.000 NA
ATOM      4  C   UNL     1       1.320   2.599  18.563  0.00  0.00    +0.000 A 
ATOM      5  N   UNL     1       1.346   3.922  18.401  0.00  0.00    +0.000 NA
ATOM      6  C   UNL     1       2.558   4.511  18.269  0.00  0.00    +0.000 A 
ENDROOT
BRANCH   1  12
ATOM      7  C   UNL     1       5.834   4.468  16.895  0.00  0.00    +0.000 A 
ATOM      8  C   UNL     1       7.012   5.231  16.773  0.00  0.00    +0.000 A 
ATOM      9  C   UNL     1       7.580   5.854  17.877  0.00  0.00    +0.000 A 
ATOM     10  C   UNL     1       7.002   5.683  19.121  0.00  0.00    +0.000 A 
ATOM     11  C   UNL     1       5.823   4.946  19.244  0.00  0.00    +0.000 A 
ATOM     12  C   UNL     1       5.143   4.386  18.134  0.00  0.00    +0.000 A 
BRANCH   7  14
ATOM     13  C   UNL     1       6.081   4.048  14.590  0.00  0.00    +0.000 C 
ATOM     14  O   UNL     1       5.318   3.842  15.782  0.00  0.00    +0.000 OA
ENDBRANCH   7  14
ENDBRANCH   1  12
BRANCH   6  15
ATOM     15  N   UNL     1       2.551   5.904  18.063  0.00  0.00    +0.000 N 
ATOM     16  H   UNL     1       1.819   6.138  17.393  0.00  0.00    +0.000 HD
BRANCH  15  17
ATOM     17  C   UNL     1       2.545   6.733  19.267  0.00  0.00    +0.000 C 
BRANCH  17  18
ATOM     18  C   UNL     1       1.877   8.093  18.997  0.00  0.00    +0.000 C 
BRANCH  18  19
ATOM     19  C   UNL     1       1.457   8.791  20.246  0.00  0.00    +0.000 A 
ATOM     20  C   UNL     1       0.863  10.017  20.461  0.00  0.00    +0.000 A 
ATOM     21  N   UNL     1       0.662  10.236  21.799  0.00  0.00    +0.000 NA
ATOM     22  C   UNL     1       1.130   9.166  22.399  0.00  0.00    +0.000 A 
ATOM     23  N   UNL     1       1.631   8.266  21.502  0.00  0.00    +0.000 N 
ATOM     24  H   UNL     1       2.036   7.369  21.736  0.00  0.00    +0.000 HD
ENDBRANCH  18  19
ENDBRANCH  17  18
ENDBRANCH  15  17
ENDBRANCH   6  15
TORSDOF 6
ENDMDL
MODEL 8
REMARK VINA RESULT:      -6.9      1.599      2.292
REMARK  Name = 
REMARK  7 active torsions:
REMARK  status: ('A' for Active; 'I' for Inactive)
REMARK    1  A    between atoms: C_1  and  O_2
REMARK    2  A    between atoms: O_2  and  C_3
REMARK    3  A    between atoms: C_8  and  C_9
REMARK    4  A    between atoms: C_14  and  N_15
REMARK    5  A    between atoms: N_15  and  C_16
REMARK    6  A    between atoms: C_16  and  C_17
REMARK    7  A    between atoms: C_17  and  C_18
REMARK                            x       y       z     vdW  Elec       q    Type
REMARK                         _______ _______ _______ _____ _____    ______ ____
ROOT
ATOM      1  C   UNL     1       3.846   3.766  18.379  0.00  0.00    +0.000 A 
ATOM      2  C   UNL     1       3.662   2.453  18.809  0.00  0.00    +0.000 A 
ATOM      3  N   UNL     1       2.476   1.812  18.930  0.00  0.00    +0.000 NA
ATOM      4  C   UNL     1       1.407   2.543  18.626  0.00  0.00    +0.000 A 
ATOM      5  N   UNL     1       1.419   3.826  18.261  0.00  0.00    +0.000 NA
ATOM      6  C   UNL     1       2.624   4.428  18.131  0.00  0.00    +0.000 A 
ENDROOT
BRANCH   1  12
ATOM      7  C   UNL     1       5.945   4.398  16.999  0.00  0.00    +0.000 A 
ATOM      8  C   UNL     1       7.116   5.172  16.877  0.00  0.00    +0.000 A 
ATOM      9  C   UNL     1       7.638   5.861  17.964  0.00  0.00    +0.000 A 
ATOM     10  C   UNL     1       7.019   5.747  19.196  0.00  0.00    +0.000 A 
ATOM     11  C   UNL     1       5.847   4.999  19.317  0.00  0.00    +0.000 A 
ATOM     12  C   UNL     1       5.214   4.371  18.216  0.00  0.00    +0.000 A 
BRANCH   7  14
ATOM     13  C   UNL     1       5.573   4.428  14.673  0.00  0.00    +0.000 C 
ATOM     14  O   UNL     1       5.477   3.706  15.905  0.00  0.00    +0.000 OA
ENDBRANCH   7  14
ENDBRANCH   1  12
BRANCH   6  15
ATOM     15  N   UNL     1       2.605   5.772  17.710  0.00  0.00    +0.000 N 
ATOM     16  H   UNL     1       1.883   5.886  16.997  0.00  0.00    +0.000 HD
BRANCH  15  17
ATOM     17  C   UNL     1       2.563   6.778  18.768  0.00  0.00    +0.000 C 
BRANCH  17  18
ATOM     18  C   UNL     1       2.622   8.199  18.181  0.00  0.00    +0.000 C 
BRANCH  18  19
ATOM     19  C   UNL     1       1.488   9.059  18.626  0.00  0.00    +0.000 A 
ATOM     20  C   UNL     1       0.991   9.355  19.877  0.00  0.00    +0.000 A 
ATOM     21  N   UNL     1      -0.080  10.205  19.791  0.00  0.00    +0.000 NA
ATOM     22  C   UNL     1      -0.246  10.425  18.508  0.00  0.00    +0.000 A 
ATOM     23  N   UNL     1       0.673   9.746  17.760  0.00  0.00    +0.000 N 
ATOM     24  H   UNL     1       0.740   9.770  16.750  0.00  0.00    +0.000 HD
ENDBRANCH  18  19
ENDBRANCH  17  18
ENDBRANCH  15  17
ENDBRANCH   6  15
TORSDOF 6
ENDMDL
MODEL 9
REMARK VINA RESULT:      -6.9      1.866      2.770
REMARK  Name = 
REMARK  7 active torsions:
REMARK  status: ('A' for Active; 'I' for Inactive)
REMARK    1  A    between atoms: C_1  and  O_2
REMARK    2  A    between atoms: O_2  and  C_3
REMARK    3  A    between atoms: C_8  and  C_9
REMARK    4  A    between atoms: C_14  and  N_15
REMARK    5  A    between atoms: N_15  and  C_16
REMARK    6  A    between atoms: C_16  and  C_17
REMARK    7  A    between atoms: C_17  and  C_18
REMARK                            x       y       z     vdW  Elec       q    Type
REMARK                         _______ _______ _______ _____ _____    ______ ____
ROOT
ATOM      1  C   UNL     1       4.311   4.376  18.385  0.00  0.00    +0.000 A 
ATOM      2  C   UNL     1       4.083   3.200  17.674  0.00  0.00    +0.000 A 
ATOM      3  N   UNL     1       2.937   2.479  17.670  0.00  0.00    +0.000 NA
ATOM      4  C   UNL     1       1.970   2.955  18.450  0.00  0.00    +0.000 A 
ATOM      5  N   UNL     1       2.059   4.031  19.233  0.00  0.00    +0.000 NA
ATOM      6  C   UNL     1       3.213   4.738  19.196  0.00  0.00    +0.000 A 
ENDROOT
BRANCH   1  12
ATOM      7  C   UNL     1       5.921   6.037  17.219  0.00  0.00    +0.000 A 
ATOM      8  C   UNL     1       7.049   6.877  17.300  0.00  0.00    +0.000 A 
ATOM      9  C   UNL     1       7.929   6.794  18.372  0.00  0.00    +0.000 A 
ATOM     10  C   UNL     1       7.714   5.840  19.350  0.00  0.00    +0.000 A 
ATOM     11  C   UNL     1       6.587   5.020  19.285  0.00  0.00    +0.000 A 
ATOM     12  C   UNL     1       5.601   5.142  18.274  0.00  0.00    +0.000 A 
BRANCH   7  14
ATOM     13  C   UNL     1       5.550   5.412  14.978  0.00  0.00    +0.000 C 
ATOM     14  O   UNL     1       5.089   6.130  16.126  0.00  0.00    +0.000 OA
ENDBRANCH   7  14
ENDBRANCH   1  12
BRANCH   6  15
ATOM     15  N   UNL     1       3.263   5.887  20.007  0.00  0.00    +0.000 N 
ATOM     16  H   UNL     1       4.224   6.226  20.046  0.00  0.00    +0.000 HD
BRANCH  15  17
ATOM     17  C   UNL     1       2.276   6.925  19.715  0.00  0.00    +0.000 C 
BRANCH  17  18
ATOM     18  C   UNL     1       1.366   7.180  20.929  0.00  0.00    +0.000 C 
BRANCH  18  19
ATOM     19  C   UNL     1       1.076   8.627  21.143  0.00  0.00    +0.000 A 
ATOM     20  C   UNL     1       0.857   9.363  22.288  0.00  0.00    +0.000 A 
ATOM     21  N   UNL     1       0.627  10.680  21.988  0.00  0.00    +0.000 NA
ATOM     22  C   UNL     1       0.696  10.753  20.679  0.00  0.00    +0.000 A 
ATOM     23  N   UNL     1       0.956   9.535  20.121  0.00  0.00    +0.000 N 
ATOM     24  H   UNL     1       1.059   9.354  19.130  0.00  0.00    +0.000 HD
ENDBRANCH  18  19
ENDBRANCH  17  18
ENDBRANCH  15  17
ENDBRANCH   6  15
TORSDOF 6
ENDMDL
