MODEL 1
REMARK VINA RESULT:      -7.1      0.000      0.000
REMARK  Name = 
REMARK  4 active torsions:
REMARK  status: ('A' for Active; 'I' for Inactive)
REMARK    1  A    between atoms: C_1  and  C_2
REMARK    2  A    between atoms: C_2  and  C_3
REMARK    3  A    between atoms: C_3  and  C_4
REMARK    4  A    between atoms: N_11  and  C_12
REMARK                            x       y       z     vdW  Elec       q    Type
REMARK                         _______ _______ _______ _____ _____    ______ ____
ROOT
ATOM      1  C   UNL     1       3.126   5.001  19.962  0.00  0.00    +0.000 C 
ATOM      2  N   UNL     1       2.114   4.435  20.838  0.00  0.00    +0.000 NA
ATOM      3  C   UNL     1       2.094   3.211  21.228  0.00  0.00    +0.000 C 
ATOM      4  N   UNL     1       1.073   2.766  22.100  0.00  0.00    +0.000 N 
ATOM      5  N   UNL     1       3.108   2.313  20.828  0.00  0.00    +0.000 NA
ATOM      6  C   UNL     1       4.086   2.666  20.071  0.00  0.00    +0.000 C 
ATOM      7  N   UNL     1       5.103   1.699  19.838  0.00  0.00    +0.000 N 
ATOM      8  N   UNL     1       4.172   4.030  19.586  0.00  0.00    +0.000 N 
ATOM      9  H   UNL     1       0.343   3.414  22.428  0.00  0.00    +0.000 HD
ATOM     10  H   UNL     1       1.064   1.790  22.433  0.00  0.00    +0.000 HD
ATOM     11  H   UNL     1       4.980   0.736  20.186  0.00  0.00    +0.000 HD
ATOM     12  H   UNL     1       6.016   1.933  19.430  0.00  0.00    +0.000 HD
ENDROOT
BRANCH   8  13
ATOM     13  C   UNL     1       5.199   4.466  18.663  0.00  0.00    +0.000 A 
ATOM     14  C   UNL     1       5.160   4.128  17.291  0.00  0.00    +0.000 A 
ATOM     15  C   UNL     1       6.132   4.602  16.405  0.00  0.00    +0.000 A 
ATOM     16  C   UNL     1       7.154   5.433  16.861  0.00  0.00    +0.000 A 
ATOM     17  C   UNL     1       7.207   5.795  18.204  0.00  0.00    +0.000 A 
ATOM     18  C   UNL     1       6.242   5.324  19.096  0.00  0.00    +0.000 A 
ENDBRANCH   8  13
BRANCH   1  19
ATOM     19  C   UNL     1       2.433   5.519  18.680  0.00  0.00    +0.000 C 
BRANCH  19  21
ATOM     20  C   UNL     1       3.556   7.458  17.566  0.00  0.00    +0.000 C 
ATOM     21  C   UNL     1       2.450   7.043  18.537  0.00  0.00    +0.000 C 
ENDBRANCH  19  21
ENDBRANCH   1  19
TORSDOF 3
ENDMDL
MODEL 2
REMARK VINA RESULT:      -7.1      0.068      1.174
REMARK  Name = 
REMARK  4 active torsions:
REMARK  status: ('A' for Active; 'I' for Inactive)
REMARK    1  A    between atoms: C_1  and  C_2
REMARK    2  A    between atoms: C_2  and  C_3
REMARK    3  A    between atoms: C_3  and  C_4
REMARK    4  A    between atoms: N_11  and  C_12
REMARK                            x       y       z     vdW  Elec       q    Type
REMARK                         _______ _______ _______ _____ _____    ______ ____
ROOT
ATOM      1  C   UNL     1       3.094   5.018  19.981  0.00  0.00    +0.000 C 
ATOM      2  N   UNL     1       2.090   4.438  20.856  0.00  0.00    +0.000 NA
ATOM      3  C   UNL     1       2.079   3.211  21.235  0.00  0.00    +0.000 C 
ATOM      4  N   UNL     1       1.065   2.752  22.109  0.00  0.00    +0.000 N 
ATOM      5  N   UNL     1       3.096   2.322  20.823  0.00  0.00    +0.000 NA
ATOM      6  C   UNL     1       4.068   2.688  20.064  0.00  0.00    +0.000 C 
ATOM      7  N   UNL     1       5.090   1.729  19.816  0.00  0.00    +0.000 N 
ATOM      8  N   UNL     1       4.143   4.057  19.590  0.00  0.00    +0.000 N 
ATOM      9  H   UNL     1       0.333   3.393  22.446  0.00  0.00    +0.000 HD
ATOM     10  H   UNL     1       1.063   1.773  22.433  0.00  0.00    +0.000 HD
ATOM     11  H   UNL     1       4.974   0.763  20.156  0.00  0.00    +0.000 HD
ATOM     12  H   UNL     1       5.999   1.972  19.406  0.00  0.00    +0.000 HD
ENDROOT
BRANCH   8  13
ATOM     13  C   UNL     1       5.163   4.507  18.666  0.00  0.00    +0.000 A 
ATOM     14  C   UNL     1       6.256   5.297  19.091  0.00  0.00    +0.000 A 
ATOM     15  C   UNL     1       7.260   5.678  18.195  0.00  0.00    +0.000 A 
ATOM     16  C   UNL     1       7.205   5.271  16.863  0.00  0.00    +0.000 A 
ATOM     17  C   UNL     1       6.148   4.479  16.422  0.00  0.00    +0.000 A 
ATOM     18  C   UNL     1       5.141   4.097  17.310  0.00  0.00    +0.000 A 
ENDBRANCH   8  13
BRANCH   1  19
ATOM     19  C   UNL     1       2.391   5.543  18.707  0.00  0.00    +0.000 C 
BRANCH  19  21
ATOM     20  C   UNL     1       3.543   7.457  17.577  0.00  0.00    +0.000 C 
ATOM     21  C   UNL     1       2.436   7.067  18.555  0.00  0.00    +0.000 C 
ENDBRANCH  19  21
ENDBRANCH   1  19
TORSDOF 3
ENDMDL
MODEL 3
REMARK VINA RESULT:      -7.0      2.305      4.813
REMARK  Name = 
REMARK  4 active torsions:
REMARK  status: ('A' for Active; 'I' for Inactive)
REMARK    1  A    between atoms: C_1  and  C_2
REMARK    2  A    between atoms: C_2  and  C_3
REMARK    3  A    between atoms: C_3  and  C_4
REMARK    4  A    between atoms: N_11  and  C_12
REMARK                            x       y       z     vdW  Elec       q    Type
REMARK                         _______ _______ _______ _____ _____    ______ ____
ROOT
ATOM      1  C   UNL     1       3.593   6.335  17.500  0.00  0.00    +0.000 C 
ATOM      2  N   UNL     1       4.803   7.011  17.063  0.00  0.00    +0.000 NA
ATOM      3  C   UNL     1       5.994   6.632  17.359  0.00  0.00    +0.000 C 
ATOM      4  N   UNL     1       7.106   7.351  16.862  0.00  0.00    +0.000 N 
ATOM      5  N   UNL     1       6.206   5.477  18.142  0.00  0.00    +0.000 NA
ATOM      6  C   UNL     1       5.238   4.755  18.588  0.00  0.00    +0.000 C 
ATOM      7  N   UNL     1       5.588   3.554  19.264  0.00  0.00    +0.000 N 
ATOM      8  N   UNL     1       3.866   5.126  18.300  0.00  0.00    +0.000 N 
ATOM      9  H   UNL     1       6.972   8.179  16.263  0.00  0.00    +0.000 HD
ATOM     10  H   UNL     1       8.065   7.039  17.080  0.00  0.00    +0.000 HD
ATOM     11  H   UNL     1       6.579   3.352  19.464  0.00  0.00    +0.000 HD
ATOM     12  H   UNL     1       4.911   2.811  19.474  0.00  0.00    +0.000 HD
ENDROOT
BRANCH   8  13
ATOM     13  C   UNL     1       2.734   4.405  18.844  0.00  0.00    +0.000 A 
ATOM     14  C   UNL     1       1.999   3.478  18.070  0.00  0.00    +0.000 A 
ATOM     15  C   UNL     1       0.943   2.752  18.628  0.00  0.00    +0.000 A 
ATOM     16  C   UNL     1       0.603   2.923  19.969  0.00  0.00    +0.000 A 
ATOM     17  C   UNL     1       1.321   3.817  20.759  0.00  0.00    +0.000 A 
ATOM     18  C   UNL     1       2.376   4.548  20.209  0.00  0.00    +0.000 A 
ENDBRANCH   8  13
BRANCH   1  19
ATOM     19  C   UNL     1       2.757   7.323  18.347  0.00  0.00    +0.000 C 
BRANCH  19  21
ATOM     20  C   UNL     1       1.218   9.284  18.132  0.00  0.00    +0.000 C 
ATOM     21  C   UNL     1       2.553   8.690  17.688  0.00  0.00    +0.000 C 
ENDBRANCH  19  21
ENDBRANCH   1  19
TORSDOF 3
ENDMDL
MODEL 4
REMARK VINA RESULT:      -7.0      1.133      1.259
REMARK  Name = 
REMARK  4 active torsions:
REMARK  status: ('A' for Active; 'I' for Inactive)
REMARK    1  A    between atoms: C_1  and  C_2
REMARK    2  A    between atoms: C_2  and  C_3
REMARK    3  A    between atoms: C_3  and  C_4
REMARK    4  A    between atoms: N_11  and  C_12
REMARK                            x       y       z     vdW  Elec       q    Type
REMARK                         _______ _______ _______ _____ _____    ______ ____
ROOT
ATOM      1  C   UNL     1       3.268   4.911  19.154  0.00  0.00    +0.000 C 
ATOM      2  N   UNL     1       2.202   4.485  20.046  0.00  0.00    +0.000 NA
ATOM      3  C   UNL     1       1.852   3.262  20.227  0.00  0.00    +0.000 C 
ATOM      4  N   UNL     1       0.814   2.953  21.136  0.00  0.00    +0.000 N 
ATOM      5  N   UNL     1       2.525   2.216  19.559  0.00  0.00    +0.000 NA
ATOM      6  C   UNL     1       3.505   2.427  18.752  0.00  0.00    +0.000 C 
ATOM      7  N   UNL     1       4.172   1.282  18.234  0.00  0.00    +0.000 N 
ATOM      8  N   UNL     1       3.951   3.782  18.492  0.00  0.00    +0.000 N 
ATOM      9  H   UNL     1       0.333   3.701  21.658  0.00  0.00    +0.000 HD
ATOM     10  H   UNL     1       0.543   1.972  21.302  0.00  0.00    +0.000 HD
ATOM     11  H   UNL     1       3.798   0.342  18.430  0.00  0.00    +0.000 HD
ATOM     12  H   UNL     1       5.080   1.331  17.757  0.00  0.00    +0.000 HD
ENDROOT
BRANCH   8  13
ATOM     13  C   UNL     1       4.989   4.090  17.531  0.00  0.00    +0.000 A 
ATOM     14  C   UNL     1       4.758   4.021  16.138  0.00  0.00    +0.000 A 
ATOM     15  C   UNL     1       5.757   4.374  15.225  0.00  0.00    +0.000 A 
ATOM     16  C   UNL     1       6.999   4.814  15.677  0.00  0.00    +0.000 A 
ATOM     17  C   UNL     1       7.248   4.908  17.044  0.00  0.00    +0.000 A 
ATOM     18  C   UNL     1       6.257   4.555  17.962  0.00  0.00    +0.000 A 
ENDBRANCH   8  13
BRANCH   1  19
ATOM     19  C   UNL     1       2.663   5.838  18.074  0.00  0.00    +0.000 C 
BRANCH  19  21
ATOM     20  C   UNL     1       2.180   8.285  17.859  0.00  0.00    +0.000 C 
ATOM     21  C   UNL     1       3.280   7.240  18.043  0.00  0.00    +0.000 C 
ENDBRANCH  19  21
ENDBRANCH   1  19
TORSDOF 3
ENDMDL
MODEL 5
REMARK VINA RESULT:      -7.0      1.129      1.693
REMARK  Name = 
REMARK  4 active torsions:
REMARK  status: ('A' for Active; 'I' for Inactive)
REMARK    1  A    between atoms: C_1  and  C_2
REMARK    2  A    between atoms: C_2  and  C_3
REMARK    3  A    between atoms: C_3  and  C_4
REMARK    4  A    between atoms: N_11  and  C_12
REMARK                            x       y       z     vdW  Elec       q    Type
REMARK                         _______ _______ _______ _____ _____    ______ ____
ROOT
ATOM      1  C   UNL     1       3.245   4.934  19.202  0.00  0.00    +0.000 C 
ATOM      2  N   UNL     1       2.183   4.486  20.087  0.00  0.00    +0.000 NA
ATOM      3  C   UNL     1       1.842   3.258  20.249  0.00  0.00    +0.000 C 
ATOM      4  N   UNL     1       0.807   2.927  21.153  0.00  0.00    +0.000 N 
ATOM      5  N   UNL     1       2.522   2.228  19.563  0.00  0.00    +0.000 NA
ATOM      6  C   UNL     1       3.500   2.459  18.759  0.00  0.00    +0.000 C 
ATOM      7  N   UNL     1       4.175   1.328  18.222  0.00  0.00    +0.000 N 
ATOM      8  N   UNL     1       3.936   3.822  18.521  0.00  0.00    +0.000 N 
ATOM      9  H   UNL     1       0.320   3.662  21.687  0.00  0.00    +0.000 HD
ATOM     10  H   UNL     1       0.543   1.941  21.303  0.00  0.00    +0.000 HD
ATOM     11  H   UNL     1       3.808   0.382  18.404  0.00  0.00    +0.000 HD
ATOM     12  H   UNL     1       5.083   1.391  17.746  0.00  0.00    +0.000 HD
ENDROOT
BRANCH   8  13
ATOM     13  C   UNL     1       4.971   4.153  17.565  0.00  0.00    +0.000 A 
ATOM     14  C   UNL     1       6.280   4.498  17.974  0.00  0.00    +0.000 A 
ATOM     15  C   UNL     1       7.281   4.763  17.035  0.00  0.00    +0.000 A 
ATOM     16  C   UNL     1       7.006   4.677  15.671  0.00  0.00    +0.000 A 
ATOM     17  C   UNL     1       5.731   4.323  15.241  0.00  0.00    +0.000 A 
ATOM     18  C   UNL     1       4.724   4.060  16.172  0.00  0.00    +0.000 A 
ENDBRANCH   8  13
BRANCH   1  19
ATOM     19  C   UNL     1       2.633   5.875  18.137  0.00  0.00    +0.000 C 
BRANCH  19  21
ATOM     20  C   UNL     1       2.202   8.328  17.889  0.00  0.00    +0.000 C 
ATOM     21  C   UNL     1       3.279   7.263  18.090  0.00  0.00    +0.000 C 
ENDBRANCH  19  21
ENDBRANCH   1  19
TORSDOF 3
ENDMDL
MODEL 6
REMARK VINA RESULT:      -7.0      2.310      4.946
REMARK  Name = 
REMARK  4 active torsions:
REMARK  status: ('A' for Active; 'I' for Inactive)
REMARK    1  A    between atoms: C_1  and  C_2
REMARK    2  A    between atoms: C_2  and  C_3
REMARK    3  A    between atoms: C_3  and  C_4
REMARK    4  A    between atoms: N_11  and  C_12
REMARK                            x       y       z     vdW  Elec       q    Type
REMARK                         _______ _______ _______ _____ _____    ______ ____
ROOT
ATOM      1  C   UNL     1       3.584   6.276  17.514  0.00  0.00    +0.000 C 
ATOM      2  N   UNL     1       4.765   6.980  17.042  0.00  0.00    +0.000 NA
ATOM      3  C   UNL     1       5.972   6.640  17.319  0.00  0.00    +0.000 C 
ATOM      4  N   UNL     1       7.053   7.382  16.789  0.00  0.00    +0.000 N 
ATOM      5  N   UNL     1       6.233   5.503  18.116  0.00  0.00    +0.000 NA
ATOM      6  C   UNL     1       5.296   4.762  18.592  0.00  0.00    +0.000 C 
ATOM      7  N   UNL     1       5.693   3.582  19.280  0.00  0.00    +0.000 N 
ATOM      8  N   UNL     1       3.908   5.088  18.327  0.00  0.00    +0.000 N 
ATOM      9  H   UNL     1       6.883   8.195  16.180  0.00  0.00    +0.000 HD
ATOM     10  H   UNL     1       8.025   7.101  16.992  0.00  0.00    +0.000 HD
ATOM     11  H   UNL     1       6.693   3.411  19.463  0.00  0.00    +0.000 HD
ATOM     12  H   UNL     1       5.042   2.824  19.515  0.00  0.00    +0.000 HD
ENDROOT
BRANCH   8  13
ATOM     13  C   UNL     1       2.808   4.344  18.905  0.00  0.00    +0.000 A 
ATOM     14  C   UNL     1       2.462   4.467  20.270  0.00  0.00    +0.000 A 
ATOM     15  C   UNL     1       1.364   3.782  20.799  0.00  0.00    +0.000 A 
ATOM     16  C   UNL     1       0.580   2.972  19.979  0.00  0.00    +0.000 A 
ATOM     17  C   UNL     1       0.888   2.845  18.628  0.00  0.00    +0.000 A 
ATOM     18  C   UNL     1       1.985   3.524  18.092  0.00  0.00    +0.000 A 
ENDBRANCH   8  13
BRANCH   1  19
ATOM     19  C   UNL     1       2.737   7.253  18.362  0.00  0.00    +0.000 C 
BRANCH  19  21
ATOM     20  C   UNL     1       1.311   9.310  18.367  0.00  0.00    +0.000 C 
ATOM     21  C   UNL     1       2.484   8.604  17.687  0.00  0.00    +0.000 C 
ENDBRANCH  19  21
ENDBRANCH   1  19
TORSDOF 3
ENDMDL
MODEL 7
REMARK VINA RESULT:      -6.6      1.802      2.435
REMARK  Name = 
REMARK  4 active torsions:
REMARK  status: ('A' for Active; 'I' for Inactive)
REMARK    1  A    between atoms: C_1  and  C_2
REMARK    2  A    between atoms: C_2  and  C_3
REMARK    3  A    between atoms: C_3  and  C_4
REMARK    4  A    between atoms: N_11  and  C_12
REMARK                            x       y       z     vdW  Elec       q    Type
REMARK                         _______ _______ _______ _____ _____    ______ ____
ROOT
ATOM      1  C   UNL     1       3.764   4.649  19.566  0.00  0.00    +0.000 C 
ATOM      2  N   UNL     1       2.691   3.670  19.510  0.00  0.00    +0.000 NA
ATOM      3  C   UNL     1       2.547   2.803  18.574  0.00  0.00    +0.000 C 
ATOM      4  N   UNL     1       1.477   1.879  18.627  0.00  0.00    +0.000 N 
ATOM      5  N   UNL     1       3.474   2.734  17.510  0.00  0.00    +0.000 NA
ATOM      6  C   UNL     1       4.491   3.517  17.427  0.00  0.00    +0.000 C 
ATOM      7  N   UNL     1       5.412   3.268  16.370  0.00  0.00    +0.000 N 
ATOM      8  N   UNL     1       4.715   4.526  18.444  0.00  0.00    +0.000 N 
ATOM      9  H   UNL     1       0.810   1.893  19.411  0.00  0.00    +0.000 HD
ATOM     10  H   UNL     1       1.369   1.167  17.888  0.00  0.00    +0.000 HD
ATOM     11  H   UNL     1       5.191   2.554  15.660  0.00  0.00    +0.000 HD
ATOM     12  H   UNL     1       6.348   3.688  16.333  0.00  0.00    +0.000 HD
ENDROOT
BRANCH   8  13
ATOM     13  C   UNL     1       5.791   5.491  18.361  0.00  0.00    +0.000 A 
ATOM     14  C   UNL     1       6.921   5.422  19.208  0.00  0.00    +0.000 A 
ATOM     15  C   UNL     1       7.975   6.331  19.078  0.00  0.00    +0.000 A 
ATOM     16  C   UNL     1       7.934   7.319  18.095  0.00  0.00    +0.000 A 
ATOM     17  C   UNL     1       6.841   7.399  17.236  0.00  0.00    +0.000 A 
ATOM     18  C   UNL     1       5.783   6.497  17.361  0.00  0.00    +0.000 A 
ENDBRANCH   8  13
BRANCH   1  19
ATOM     19  C   UNL     1       3.140   6.064  19.547  0.00  0.00    +0.000 C 
BRANCH  19  21
ATOM     20  C   UNL     1       2.319   7.852  18.000  0.00  0.00    +0.000 C 
ATOM     21  C   UNL     1       2.297   6.354  18.301  0.00  0.00    +0.000 C 
ENDBRANCH  19  21
ENDBRANCH   1  19
TORSDOF 3
ENDMDL
MODEL 8
REMARK VINA RESULT:      -6.6      0.750      1.265
REMARK  Name = 
REMARK  4 active torsions:
REMARK  status: ('A' for Active; 'I' for Inactive)
REMARK    1  A    between atoms: C_1  and  C_2
REMARK    2  A    between atoms: C_2  and  C_3
REMARK    3  A    between atoms: C_3  and  C_4
REMARK    4  A    between atoms: N_11  and  C_12
REMARK                            x       y       z     vdW  Elec       q    Type
REMARK                         _______ _______ _______ _____ _____    ______ ____
ROOT
ATOM      1  C   UNL     1       3.185   4.975  19.904  0.00  0.00    +0.000 C 
ATOM      2  N   UNL     1       2.139   4.415  20.744  0.00  0.00    +0.000 NA
ATOM      3  C   UNL     1       2.121   3.204  21.170  0.00  0.00    +0.000 C 
ATOM      4  N   UNL     1       1.064   2.765  22.002  0.00  0.00    +0.000 N 
ATOM      5  N   UNL     1       3.170   2.314  20.851  0.00  0.00    +0.000 NA
ATOM      6  C   UNL     1       4.180   2.664  20.134  0.00  0.00    +0.000 C 
ATOM      7  N   UNL     1       5.225   1.710  19.983  0.00  0.00    +0.000 N 
ATOM      8  N   UNL     1       4.266   4.014  19.612  0.00  0.00    +0.000 N 
ATOM      9  H   UNL     1       0.307   3.409  22.272  0.00  0.00    +0.000 HD
ATOM     10  H   UNL     1       1.056   1.799  22.364  0.00  0.00    +0.000 HD
ATOM     11  H   UNL     1       5.101   0.756  20.354  0.00  0.00    +0.000 HD
ATOM     12  H   UNL     1       6.153   1.949  19.615  0.00  0.00    +0.000 HD
ENDROOT
BRANCH   8  13
ATOM     13  C   UNL     1       5.331   4.442  18.730  0.00  0.00    +0.000 A 
ATOM     14  C   UNL     1       5.381   4.045  17.374  0.00  0.00    +0.000 A 
ATOM     15  C   UNL     1       6.388   4.512  16.524  0.00  0.00    +0.000 A 
ATOM     16  C   UNL     1       7.358   5.392  17.000  0.00  0.00    +0.000 A 
ATOM     17  C   UNL     1       7.324   5.812  18.327  0.00  0.00    +0.000 A 
ATOM     18  C   UNL     1       6.323   5.349  19.183  0.00  0.00    +0.000 A 
ENDBRANCH   8  13
BRANCH   1  19
ATOM     19  C   UNL     1       2.550   5.440  18.573  0.00  0.00    +0.000 C 
BRANCH  19  21
ATOM     20  C   UNL     1       2.039   3.356  17.285  0.00  0.00    +0.000 C 
ATOM     21  C   UNL     1       1.434   4.523  18.063  0.00  0.00    +0.000 C 
ENDBRANCH  19  21
ENDBRANCH   1  19
TORSDOF 3
ENDMDL
MODEL 9
REMARK VINA RESULT:      -6.6      0.745      1.716
REMARK  Name = 
REMARK  4 active torsions:
REMARK  status: ('A' for Active; 'I' for Inactive)
REMARK    1  A    between atoms: C_1  and  C_2
REMARK    2  A    between atoms: C_2  and  C_3
REMARK    3  A    between atoms: C_3  and  C_4
REMARK    4  A    between atoms: N_11  and  C_12
REMARK                            x       y       z     vdW  Elec       q    Type
REMARK                         _______ _______ _______ _____ _____    ______ ____
ROOT
ATOM      1  C   UNL     1       3.148   5.001  19.921  0.00  0.00    +0.000 C 
ATOM      2  N   UNL     1       2.109   4.421  20.757  0.00  0.00    +0.000 NA
ATOM      3  C   UNL     1       2.102   3.204  21.167  0.00  0.00    +0.000 C 
ATOM      4  N   UNL     1       1.052   2.745  21.996  0.00  0.00    +0.000 N 
ATOM      5  N   UNL     1       3.158   2.327  20.832  0.00  0.00    +0.000 NA
ATOM      6  C   UNL     1       4.163   2.695  20.117  0.00  0.00    +0.000 C 
ATOM      7  N   UNL     1       5.215   1.752  19.950  0.00  0.00    +0.000 N 
ATOM      8  N   UNL     1       4.236   4.053  19.613  0.00  0.00    +0.000 N 
ATOM      9  H   UNL     1       0.290   3.379  22.277  0.00  0.00    +0.000 HD
ATOM     10  H   UNL     1       1.053   1.775  22.345  0.00  0.00    +0.000 HD
ATOM     11  H   UNL     1       5.100   0.792  20.309  0.00  0.00    +0.000 HD
ATOM     12  H   UNL     1       6.140   2.004  19.583  0.00  0.00    +0.000 HD
ENDROOT
BRANCH   8  13
ATOM     13  C   UNL     1       5.295   4.501  18.734  0.00  0.00    +0.000 A 
ATOM     14  C   UNL     1       6.345   5.328  19.195  0.00  0.00    +0.000 A 
ATOM     15  C   UNL     1       7.388   5.708  18.344  0.00  0.00    +0.000 A 
ATOM     16  C   UNL     1       7.416   5.263  17.024  0.00  0.00    +0.000 A 
ATOM     17  C   UNL     1       6.403   4.435  16.548  0.00  0.00    +0.000 A 
ATOM     18  C   UNL     1       5.357   4.053  17.390  0.00  0.00    +0.000 A 
ENDBRANCH   8  13
BRANCH   1  19
ATOM     19  C   UNL     1       2.504   5.478  18.598  0.00  0.00    +0.000 C 
BRANCH  19  21
ATOM     20  C   UNL     1       2.039   3.418  17.255  0.00  0.00    +0.000 C 
ATOM     21  C   UNL     1       1.409   4.548  18.068  0.00  0.00    +0.000 C 
ENDBRANCH  19  21
ENDBRANCH   1  19
TORSDOF 3
ENDMDL
