MODEL 1
REMARK VINA RESULT:      -8.4      0.000      0.000
REMARK  Name = 
REMARK  8 active torsions:
REMARK  status: ('A' for Active; 'I' for Inactive)
REMARK    1  A    between atoms: C_1  and  C_2
REMARK    2  A    between atoms: C_2  and  C_3
REMARK    3  A    between atoms: C_2  and  C_4
REMARK    4  A    between atoms: C_4  and  N_5
REMARK    5  A    between atoms: N_5  and  C_6
REMARK    6  A    between atoms: C_8  and  N_9
REMARK    7  A    between atoms: N_9  and  S_10
REMARK    8  A    between atoms: S_10  and  C_13
REMARK                            x       y       z     vdW  Elec       q    Type
REMARK                         _______ _______ _______ _____ _____    ______ ____
ROOT
ATOM      1  C   UNL     1       5.442   4.204  15.335  0.00  0.00    +0.000 A 
ATOM      2  C   UNL     1       4.740   3.398  16.272  0.00  0.00    +0.000 A 
ATOM      3  C   UNL     1       4.887   3.477  17.693  0.00  0.00    +0.000 A 
ATOM      4  C   UNL     1       5.749   4.371  18.346  0.00  0.00    +0.000 A 
ATOM      5  C   UNL     1       6.455   5.133  17.424  0.00  0.00    +0.000 A 
ATOM      6  C   UNL     1       7.417   6.051  17.704  0.00  0.00    +0.000 A 
ATOM      7 CL   UNL     1       8.127   6.637  19.125  0.00  0.00    +0.000 Cl
ATOM      8  N   UNL     1       7.853   6.521  16.509  0.00  0.00    +0.000 N 
ATOM      9  N   UNL     1       7.219   5.982  15.443  0.00  0.00    +0.000 NA
ATOM     10  C   UNL     1       6.349   5.096  15.977  0.00  0.00    +0.000 A 
ATOM     11  H   UNL     1       8.584   7.202  16.344  0.00  0.00    +0.000 HD
ENDROOT
BRANCH   1  12
ATOM     12  N   UNL     1       5.285   4.106  13.964  0.00  0.00    +0.000 N 
ATOM     13  H   UNL     1       4.362   4.321  13.602  0.00  0.00    +0.000 HD
BRANCH  12  14
ATOM     14  C   UNL     1       6.325   3.574  13.108  0.00  0.00    +0.000 C 
BRANCH  14  16
ATOM     15  C   UNL     1       5.992   1.602  11.532  0.00  0.00    +0.000 C 
ATOM     16  C   UNL     1       5.804   3.106  11.744  0.00  0.00    +0.000 C 
ATOM     17  C   UNL     1       4.315   3.455  11.644  0.00  0.00    +0.000 C 
ENDBRANCH  14  16
ENDBRANCH  12  14
ENDBRANCH   1  12
BRANCH   3  18
ATOM     18  N   UNL     1       4.070   2.616  18.491  0.00  0.00    +0.000 N 
ATOM     19  H   UNL     1       4.267   1.622  18.364  0.00  0.00    +0.000 HD
BRANCH  18  20
ATOM     20  S   UNL     1       2.389   2.828  18.348  0.00  0.00    +0.000 S 
ATOM     21  O   UNL     1       1.983   2.867  16.963  0.00  0.00    +0.000 OA
ATOM     22  O   UNL     1       1.794   1.913  19.299  0.00  0.00    +0.000 OA
BRANCH  20  23
ATOM     23  C   UNL     1       2.239   4.473  19.013  0.00  0.00    +0.000 A 
ATOM     24  C   UNL     1       1.954   4.647  20.372  0.00  0.00    +0.000 A 
ATOM     25  C   UNL     1       1.775   5.937  20.874  0.00  0.00    +0.000 A 
ATOM     26  C   UNL     1       1.893   7.037  20.024  0.00  0.00    +0.000 A 
ATOM     27 CL   UNL     1       1.637   8.622  20.640  0.00  0.00    +0.000 Cl
ATOM     28  C   UNL     1       2.209   6.864  18.676  0.00  0.00    +0.000 A 
ATOM     29  C   UNL     1       2.390   5.576  18.166  0.00  0.00    +0.000 A 
ENDBRANCH  20  23
ENDBRANCH  18  20
ENDBRANCH   3  18
TORSDOF 6
ENDMDL
MODEL 2
REMARK VINA RESULT:      -8.3      0.278      1.193
REMARK  Name = 
REMARK  8 active torsions:
REMARK  status: ('A' for Active; 'I' for Inactive)
REMARK    1  A    between atoms: C_1  and  C_2
REMARK    2  A    between atoms: C_2  and  C_3
REMARK    3  A    between atoms: C_2  and  C_4
REMARK    4  A    between atoms: C_4  and  N_5
REMARK    5  A    between atoms: N_5  and  C_6
REMARK    6  A    between atoms: C_8  and  N_9
REMARK    7  A    between atoms: N_9  and  S_10
REMARK    8  A    between atoms: S_10  and  C_13
REMARK                            x       y       z     vdW  Elec       q    Type
REMARK                         _______ _______ _______ _____ _____    ______ ____
ROOT
ATOM      1  C   UNL     1       5.428   4.334  15.413  0.00  0.00    +0.000 A 
ATOM      2  C   UNL     1       4.737   3.497  16.330  0.00  0.00    +0.000 A 
ATOM      3  C   UNL     1       4.906   3.520  17.750  0.00  0.00    +0.000 A 
ATOM      4  C   UNL     1       5.783   4.383  18.423  0.00  0.00    +0.000 A 
ATOM      5  C   UNL     1       6.481   5.176  17.520  0.00  0.00    +0.000 A 
ATOM      6  C   UNL     1       7.453   6.077  17.820  0.00  0.00    +0.000 A 
ATOM      7 CL   UNL     1       8.188   6.603  19.251  0.00  0.00    +0.000 Cl
ATOM      8  N   UNL     1       7.873   6.589  16.637  0.00  0.00    +0.000 N 
ATOM      9  N   UNL     1       7.219   6.096  15.562  0.00  0.00    +0.000 NA
ATOM     10  C   UNL     1       6.351   5.195  16.075  0.00  0.00    +0.000 A 
ATOM     11  H   UNL     1       8.606   7.272  16.487  0.00  0.00    +0.000 HD
ENDROOT
BRANCH   1  12
ATOM     12  N   UNL     1       5.250   4.290  14.042  0.00  0.00    +0.000 N 
ATOM     13  H   UNL     1       4.342   4.587  13.699  0.00  0.00    +0.000 HD
BRANCH  12  14
ATOM     14  C   UNL     1       6.236   3.705  13.158  0.00  0.00    +0.000 C 
BRANCH  14  16
ATOM     15  C   UNL     1       4.462   3.223  11.395  0.00  0.00    +0.000 C 
ATOM     16  C   UNL     1       5.644   2.668  12.195  0.00  0.00    +0.000 C 
ATOM     17  C   UNL     1       6.745   2.211  11.231  0.00  0.00    +0.000 C 
ENDBRANCH  14  16
ENDBRANCH  12  14
ENDBRANCH   1  12
BRANCH   3  18
ATOM     18  N   UNL     1       4.096   2.634  18.527  0.00  0.00    +0.000 N 
ATOM     19  H   UNL     1       4.342   1.648  18.424  0.00  0.00    +0.000 HD
BRANCH  18  20
ATOM     20  S   UNL     1       2.414   2.769  18.313  0.00  0.00    +0.000 S 
ATOM     21  O   UNL     1       2.067   2.809  16.913  0.00  0.00    +0.000 OA
ATOM     22  O   UNL     1       1.823   1.812  19.225  0.00  0.00    +0.000 OA
BRANCH  20  23
ATOM     23  C   UNL     1       2.156   4.394  18.993  0.00  0.00    +0.000 A 
ATOM     24  C   UNL     1       2.317   5.519  18.177  0.00  0.00    +0.000 A 
ATOM     25  C   UNL     1       2.174   6.792  18.731  0.00  0.00    +0.000 A 
ATOM     26  C   UNL     1       1.863   6.931  20.083  0.00  0.00    +0.000 A 
ATOM     27 CL   UNL     1       1.723   8.502  20.770  0.00  0.00    +0.000 Cl
ATOM     28  C   UNL     1       1.671   5.808  20.889  0.00  0.00    +0.000 A 
ATOM     29  C   UNL     1       1.812   4.531  20.342  0.00  0.00    +0.000 A 
ENDBRANCH  20  23
ENDBRANCH  18  20
ENDBRANCH   3  18
TORSDOF 6
ENDMDL
MODEL 3
REMARK VINA RESULT:      -8.0      1.163      1.423
REMARK  Name = 
REMARK  8 active torsions:
REMARK  status: ('A' for Active; 'I' for Inactive)
REMARK    1  A    between atoms: C_1  and  C_2
REMARK    2  A    between atoms: C_2  and  C_3
REMARK    3  A    between atoms: C_2  and  C_4
REMARK    4  A    between atoms: C_4  and  N_5
REMARK    5  A    between atoms: N_5  and  C_6
REMARK    6  A    between atoms: C_8  and  N_9
REMARK    7  A    between atoms: N_9  and  S_10
REMARK    8  A    between atoms: S_10  and  C_13
REMARK                            x       y       z     vdW  Elec       q    Type
REMARK                         _______ _______ _______ _____ _____    ______ ____
ROOT
ATOM      1  C   UNL     1       5.872   4.095  16.139  0.00  0.00    +0.000 A 
ATOM      2  C   UNL     1       5.131   3.709  17.289  0.00  0.00    +0.000 A 
ATOM      3  C   UNL     1       5.150   4.394  18.545  0.00  0.00    +0.000 A 
ATOM      4  C   UNL     1       5.908   5.545  18.801  0.00  0.00    +0.000 A 
ATOM      5  C   UNL     1       6.656   5.898  17.685  0.00  0.00    +0.000 A 
ATOM      6  C   UNL     1       7.546   6.923  17.601  0.00  0.00    +0.000 A 
ATOM      7 CL   UNL     1       8.101   8.109  18.673  0.00  0.00    +0.000 Cl
ATOM      8  N   UNL     1       8.061   6.875  16.347  0.00  0.00    +0.000 N 
ATOM      9  N   UNL     1       7.548   5.887  15.580  0.00  0.00    +0.000 NA
ATOM     10  C   UNL     1       6.677   5.245  16.390  0.00  0.00    +0.000 A 
ATOM     11  H   UNL     1       8.771   7.478  15.950  0.00  0.00    +0.000 HD
ENDROOT
BRANCH   1  12
ATOM     12  N   UNL     1       5.840   3.414  14.936  0.00  0.00    +0.000 N 
ATOM     13  H   UNL     1       6.333   2.528  14.910  0.00  0.00    +0.000 HD
BRANCH  12  14
ATOM     14  C   UNL     1       5.277   3.999  13.737  0.00  0.00    +0.000 C 
BRANCH  14  16
ATOM     15  C   UNL     1       4.470   3.278  11.431  0.00  0.00    +0.000 C 
ATOM     16  C   UNL     1       5.594   3.198  12.468  0.00  0.00    +0.000 C 
ATOM     17  C   UNL     1       6.892   3.740  11.859  0.00  0.00    +0.000 C 
ENDBRANCH  14  16
ENDBRANCH  12  14
ENDBRANCH   1  12
BRANCH   3  18
ATOM     18  N   UNL     1       4.307   3.890  19.585  0.00  0.00    +0.000 N 
ATOM     19  H   UNL     1       4.551   2.948  19.897  0.00  0.00    +0.000 HD
BRANCH  18  20
ATOM     20  S   UNL     1       2.636   3.911  19.277  0.00  0.00    +0.000 S 
ATOM     21  O   UNL     1       2.338   3.380  17.968  0.00  0.00    +0.000 OA
ATOM     22  O   UNL     1       2.007   3.397  20.476  0.00  0.00    +0.000 OA
BRANCH  20  23
ATOM     23  C   UNL     1       2.362   5.670  19.234  0.00  0.00    +0.000 A 
ATOM     24  C   UNL     1       2.028   6.346  20.412  0.00  0.00    +0.000 A 
ATOM     25  C   UNL     1       1.754   7.714  20.361  0.00  0.00    +0.000 A 
ATOM     26  C   UNL     1       1.827   8.393  19.144  0.00  0.00    +0.000 A 
ATOM     27 CL   UNL     1       1.453  10.071  19.080  0.00  0.00    +0.000 Cl
ATOM     28  C   UNL     1       2.191   7.723  17.976  0.00  0.00    +0.000 A 
ATOM     29  C   UNL     1       2.467   6.355  18.019  0.00  0.00    +0.000 A 
ENDBRANCH  20  23
ENDBRANCH  18  20
ENDBRANCH   3  18
TORSDOF 6
ENDMDL
MODEL 4
REMARK VINA RESULT:      -7.9      1.880      4.103
REMARK  Name = 
REMARK  8 active torsions:
REMARK  status: ('A' for Active; 'I' for Inactive)
REMARK    1  A    between atoms: C_1  and  C_2
REMARK    2  A    between atoms: C_2  and  C_3
REMARK    3  A    between atoms: C_2  and  C_4
REMARK    4  A    between atoms: C_4  and  N_5
REMARK    5  A    between atoms: N_5  and  C_6
REMARK    6  A    between atoms: C_8  and  N_9
REMARK    7  A    between atoms: N_9  and  S_10
REMARK    8  A    between atoms: S_10  and  C_13
REMARK                            x       y       z     vdW  Elec       q    Type
REMARK                         _______ _______ _______ _____ _____    ______ ____
ROOT
ATOM      1  C   UNL     1       7.077   4.805  17.513  0.00  0.00    +0.000 A 
ATOM      2  C   UNL     1       6.031   4.122  18.193  0.00  0.00    +0.000 A 
ATOM      3  C   UNL     1       4.950   3.437  17.555  0.00  0.00    +0.000 A 
ATOM      4  C   UNL     1       4.785   3.350  16.164  0.00  0.00    +0.000 A 
ATOM      5  C   UNL     1       5.792   4.046  15.507  0.00  0.00    +0.000 A 
ATOM      6  C   UNL     1       5.907   4.222  14.164  0.00  0.00    +0.000 A 
ATOM      7 CL   UNL     1       5.000   3.740  12.818  0.00  0.00    +0.000 Cl
ATOM      8  N   UNL     1       7.010   4.987  13.975  0.00  0.00    +0.000 N 
ATOM      9  N   UNL     1       7.654   5.315  15.118  0.00  0.00    +0.000 NA
ATOM     10  C   UNL     1       6.909   4.757  16.099  0.00  0.00    +0.000 A 
ATOM     11  H   UNL     1       7.379   5.329  13.096  0.00  0.00    +0.000 HD
ENDROOT
BRANCH   1  12
ATOM     12  N   UNL     1       8.111   5.464  18.154  0.00  0.00    +0.000 N 
ATOM     13  H   UNL     1       8.957   4.926  18.310  0.00  0.00    +0.000 HD
BRANCH  12  14
ATOM     14  C   UNL     1       7.946   6.789  18.713  0.00  0.00    +0.000 C 
BRANCH  14  16
ATOM     15  C   UNL     1       6.315   8.112  17.273  0.00  0.00    +0.000 C 
ATOM     16  C   UNL     1       7.781   7.879  17.647  0.00  0.00    +0.000 C 
ATOM     17  C   UNL     1       8.387   9.182  18.180  0.00  0.00    +0.000 C 
ENDBRANCH  14  16
ENDBRANCH  12  14
ENDBRANCH   1  12
BRANCH   3  18
ATOM     18  N   UNL     1       4.005   2.767  18.394  0.00  0.00    +0.000 N 
ATOM     19  H   UNL     1       4.147   1.757  18.454  0.00  0.00    +0.000 HD
BRANCH  18  20
ATOM     20  S   UNL     1       2.363   3.035  18.043  0.00  0.00    +0.000 S 
ATOM     21  O   UNL     1       2.155   3.228  16.628  0.00  0.00    +0.000 OA
ATOM     22  O   UNL     1       1.631   2.041  18.800  0.00  0.00    +0.000 OA
BRANCH  20  23
ATOM     23  C   UNL     1       2.138   4.605  18.853  0.00  0.00    +0.000 A 
ATOM     24  C   UNL     1       2.466   5.785  18.178  0.00  0.00    +0.000 A 
ATOM     25  C   UNL     1       2.346   7.008  18.840  0.00  0.00    +0.000 A 
ATOM     26  C   UNL     1       1.891   7.043  20.158  0.00  0.00    +0.000 A 
ATOM     27 CL   UNL     1       1.779   8.549  20.982  0.00  0.00    +0.000 Cl
ATOM     28  C   UNL     1       1.534   5.868  20.820  0.00  0.00    +0.000 A 
ATOM     29  C   UNL     1       1.651   4.640  20.164  0.00  0.00    +0.000 A 
ENDBRANCH  20  23
ENDBRANCH  18  20
ENDBRANCH   3  18
TORSDOF 6
ENDMDL
MODEL 5
REMARK VINA RESULT:      -7.7      4.652      6.759
REMARK  Name = 
REMARK  8 active torsions:
REMARK  status: ('A' for Active; 'I' for Inactive)
REMARK    1  A    between atoms: C_1  and  C_2
REMARK    2  A    between atoms: C_2  and  C_3
REMARK    3  A    between atoms: C_2  and  C_4
REMARK    4  A    between atoms: C_4  and  N_5
REMARK    5  A    between atoms: N_5  and  C_6
REMARK    6  A    between atoms: C_8  and  N_9
REMARK    7  A    between atoms: N_9  and  S_10
REMARK    8  A    between atoms: S_10  and  C_13
REMARK                            x       y       z     vdW  Elec       q    Type
REMARK                         _______ _______ _______ _____ _____    ______ ____
ROOT
ATOM      1  C   UNL     1       2.397   5.878  19.725  0.00  0.00    +0.000 A 
ATOM      2  C   UNL     1       1.763   7.025  19.175  0.00  0.00    +0.000 A 
ATOM      3  C   UNL     1       2.315   7.853  18.147  0.00  0.00    +0.000 A 
ATOM      4  C   UNL     1       3.562   7.632  17.545  0.00  0.00    +0.000 A 
ATOM      5  C   UNL     1       4.191   6.530  18.110  0.00  0.00    +0.000 A 
ATOM      6  C   UNL     1       5.435   6.070  17.812  0.00  0.00    +0.000 A 
ATOM      7 CL   UNL     1       6.659   6.551  16.746  0.00  0.00    +0.000 Cl
ATOM      8  N   UNL     1       5.649   5.003  18.622  0.00  0.00    +0.000 N 
ATOM      9  N   UNL     1       4.607   4.711  19.432  0.00  0.00    +0.000 NA
ATOM     10  C   UNL     1       3.683   5.657  19.151  0.00  0.00    +0.000 A 
ATOM     11  H   UNL     1       6.484   4.434  18.681  0.00  0.00    +0.000 HD
ENDROOT
BRANCH   1  12
ATOM     12  N   UNL     1       1.844   5.095  20.723  0.00  0.00    +0.000 N 
ATOM     13  H   UNL     1       2.254   5.189  21.646  0.00  0.00    +0.000 HD
BRANCH  12  14
ATOM     14  C   UNL     1       0.848   4.082  20.440  0.00  0.00    +0.000 C 
BRANCH  14  16
ATOM     15  C   UNL     1       1.922   2.100  19.253  0.00  0.00    +0.000 C 
ATOM     16  C   UNL     1       1.386   2.652  20.577  0.00  0.00    +0.000 C 
ATOM     17  C   UNL     1       2.507   2.649  21.623  0.00  0.00    +0.000 C 
ENDBRANCH  14  16
ENDBRANCH  12  14
ENDBRANCH   1  12
BRANCH   3  18
ATOM     18  N   UNL     1       1.519   8.946  17.681  0.00  0.00    +0.000 N 
ATOM     19  H   UNL     1       1.889   9.402  16.846  0.00  0.00    +0.000 HD
BRANCH  18  20
ATOM     20  S   UNL     1       1.169  10.161  18.817  0.00  0.00    +0.000 S 
ATOM     21  O   UNL     1       1.196   9.641  20.164  0.00  0.00    +0.000 OA
ATOM     22  O   UNL     1       1.956  11.310  18.421  0.00  0.00    +0.000 OA
BRANCH  20  23
ATOM     23  C   UNL     1      -0.527  10.492  18.388  0.00  0.00    +0.000 A 
ATOM     24  C   UNL     1      -1.156   9.716  17.409  0.00  0.00    +0.000 A 
ATOM     25  C   UNL     1      -2.466  10.020  17.033  0.00  0.00    +0.000 A 
ATOM     26  C   UNL     1      -3.135  11.082  17.640  0.00  0.00    +0.000 A 
ATOM     27 CL   UNL     1      -4.736  11.476  17.147  0.00  0.00    +0.000 Cl
ATOM     28  C   UNL     1      -2.517  11.836  18.639  0.00  0.00    +0.000 A 
ATOM     29  C   UNL     1      -1.207  11.537  19.021  0.00  0.00    +0.000 A 
ENDBRANCH  20  23
ENDBRANCH  18  20
ENDBRANCH   3  18
TORSDOF 6
ENDMDL
MODEL 6
REMARK VINA RESULT:      -7.7      3.712      7.987
REMARK  Name = 
REMARK  8 active torsions:
REMARK  status: ('A' for Active; 'I' for Inactive)
REMARK    1  A    between atoms: C_1  and  C_2
REMARK    2  A    between atoms: C_2  and  C_3
REMARK    3  A    between atoms: C_2  and  C_4
REMARK    4  A    between atoms: C_4  and  N_5
REMARK    5  A    between atoms: N_5  and  C_6
REMARK    6  A    between atoms: C_8  and  N_9
REMARK    7  A    between atoms: N_9  and  S_10
REMARK    8  A    between atoms: S_10  and  C_13
REMARK                            x       y       z     vdW  Elec       q    Type
REMARK                         _______ _______ _______ _____ _____    ______ ____
ROOT
ATOM      1  C   UNL     1       2.081   6.407  20.106  0.00  0.00    +0.000 A 
ATOM      2  C   UNL     1       2.974   6.885  19.109  0.00  0.00    +0.000 A 
ATOM      3  C   UNL     1       3.504   6.098  18.038  0.00  0.00    +0.000 A 
ATOM      4  C   UNL     1       3.204   4.743  17.834  0.00  0.00    +0.000 A 
ATOM      5  C   UNL     1       2.357   4.273  18.830  0.00  0.00    +0.000 A 
ATOM      6  C   UNL     1       1.914   2.997  18.977  0.00  0.00    +0.000 A 
ATOM      7 CL   UNL     1       2.148   1.550  18.129  0.00  0.00    +0.000 Cl
ATOM      8  N   UNL     1       1.144   2.989  20.094  0.00  0.00    +0.000 N 
ATOM      9  N   UNL     1       1.030   4.196  20.690  0.00  0.00    +0.000 NA
ATOM     10  C   UNL     1       1.790   5.022  19.936  0.00  0.00    +0.000 A 
ATOM     11  H   UNL     1       0.674   2.195  20.511  0.00  0.00    +0.000 HD
ENDROOT
BRANCH   1  12
ATOM     12  N   UNL     1       1.585   7.187  21.135  0.00  0.00    +0.000 N 
ATOM     13  H   UNL     1       1.284   6.691  21.968  0.00  0.00    +0.000 HD
BRANCH  12  14
ATOM     14  C   UNL     1       1.354   8.608  20.978  0.00  0.00    +0.000 C 
BRANCH  14  16
ATOM     15  C   UNL     1      -0.150   9.435  22.861  0.00  0.00    +0.000 C 
ATOM     16  C   UNL     1      -0.061   9.038  21.384  0.00  0.00    +0.000 C 
ATOM     17  C   UNL     1      -0.481  10.225  20.509  0.00  0.00    +0.000 C 
ENDBRANCH  14  16
ENDBRANCH  12  14
ENDBRANCH   1  12
BRANCH   3  18
ATOM     18  N   UNL     1       4.360   6.753  17.098  0.00  0.00    +0.000 N 
ATOM     19  H   UNL     1       4.080   6.627  16.124  0.00  0.00    +0.000 HD
BRANCH  18  20
ATOM     20  S   UNL     1       6.017   6.388  17.206  0.00  0.00    +0.000 S 
ATOM     21  O   UNL     1       6.825   7.575  17.057  0.00  0.00    +0.000 OA
ATOM     22  O   UNL     1       6.153   5.503  18.344  0.00  0.00    +0.000 OA
BRANCH  20  23
ATOM     23  C   UNL     1       6.203   5.406  15.732  0.00  0.00    +0.000 A 
ATOM     24  C   UNL     1       7.337   5.571  14.930  0.00  0.00    +0.000 A 
ATOM     25  C   UNL     1       7.447   4.844  13.744  0.00  0.00    +0.000 A 
ATOM     26  C   UNL     1       6.437   3.954  13.376  0.00  0.00    +0.000 A 
ATOM     27 CL   UNL     1       6.560   3.087  11.896  0.00  0.00    +0.000 Cl
ATOM     28  C   UNL     1       5.322   3.767  14.194  0.00  0.00    +0.000 A 
ATOM     29  C   UNL     1       5.205   4.491  15.383  0.00  0.00    +0.000 A 
ENDBRANCH  20  23
ENDBRANCH  18  20
ENDBRANCH   3  18
TORSDOF 6
ENDMDL
MODEL 7
REMARK VINA RESULT:      -7.6      4.018      5.880
REMARK  Name = 
REMARK  8 active torsions:
REMARK  status: ('A' for Active; 'I' for Inactive)
REMARK    1  A    between atoms: C_1  and  C_2
REMARK    2  A    between atoms: C_2  and  C_3
REMARK    3  A    between atoms: C_2  and  C_4
REMARK    4  A    between atoms: C_4  and  N_5
REMARK    5  A    between atoms: N_5  and  C_6
REMARK    6  A    between atoms: C_8  and  N_9
REMARK    7  A    between atoms: N_9  and  S_10
REMARK    8  A    between atoms: S_10  and  C_13
REMARK                            x       y       z     vdW  Elec       q    Type
REMARK                         _______ _______ _______ _____ _____    ______ ____
ROOT
ATOM      1  C   UNL     1       4.320   6.066  17.062  0.00  0.00    +0.000 A 
ATOM      2  C   UNL     1       3.724   7.166  17.738  0.00  0.00    +0.000 A 
ATOM      3  C   UNL     1       2.620   7.071  18.643  0.00  0.00    +0.000 A 
ATOM      4  C   UNL     1       1.983   5.868  18.983  0.00  0.00    +0.000 A 
ATOM      5  C   UNL     1       2.549   4.802  18.295  0.00  0.00    +0.000 A 
ATOM      6  C   UNL     1       2.140   3.507  18.337  0.00  0.00    +0.000 A 
ATOM      7 CL   UNL     1       0.906   2.673  19.143  0.00  0.00    +0.000 Cl
ATOM      8  N   UNL     1       2.952   2.825  17.491  0.00  0.00    +0.000 N 
ATOM      9  N   UNL     1       3.897   3.591  16.901  0.00  0.00    +0.000 NA
ATOM     10  C   UNL     1       3.665   4.838  17.368  0.00  0.00    +0.000 A 
ATOM     11  H   UNL     1       2.913   1.840  17.261  0.00  0.00    +0.000 HD
ENDROOT
BRANCH   1  12
ATOM     12  N   UNL     1       5.385   6.184  16.188  0.00  0.00    +0.000 N 
ATOM     13  H   UNL     1       5.150   6.280  15.206  0.00  0.00    +0.000 HD
BRANCH  12  14
ATOM     14  C   UNL     1       6.757   6.019  16.622  0.00  0.00    +0.000 C 
BRANCH  14  16
ATOM     15  C   UNL     1       7.790   5.749  18.934  0.00  0.00    +0.000 C 
ATOM     16  C   UNL     1       7.046   6.681  17.975  0.00  0.00    +0.000 C 
ATOM     17  C   UNL     1       7.883   7.942  17.733  0.00  0.00    +0.000 C 
ENDBRANCH  14  16
ENDBRANCH  12  14
ENDBRANCH   1  12
BRANCH   3  18
ATOM     18  N   UNL     1       2.172   8.277  19.268  0.00  0.00    +0.000 N 
ATOM     19  H   UNL     1       1.557   8.126  20.069  0.00  0.00    +0.000 HD
BRANCH  18  20
ATOM     20  S   UNL     1       1.424   9.418  18.253  0.00  0.00    +0.000 S 
ATOM     21  O   UNL     1       2.386  10.347  17.711  0.00  0.00    +0.000 OA
ATOM     22  O   UNL     1       0.524   8.662  17.407  0.00  0.00    +0.000 OA
BRANCH  20  23
ATOM     23  C   UNL     1       0.437  10.284  19.455  0.00  0.00    +0.000 A 
ATOM     24  C   UNL     1       0.725  10.144  20.817  0.00  0.00    +0.000 A 
ATOM     25  C   UNL     1      -0.091  10.776  21.757  0.00  0.00    +0.000 A 
ATOM     26  C   UNL     1      -1.173  11.547  21.333  0.00  0.00    +0.000 A 
ATOM     27 CL   UNL     1      -2.197  12.295  22.496  0.00  0.00    +0.000 Cl
ATOM     28  C   UNL     1      -1.440  11.712  19.973  0.00  0.00    +0.000 A 
ATOM     29  C   UNL     1      -0.628  11.084  19.026  0.00  0.00    +0.000 A 
ENDBRANCH  20  23
ENDBRANCH  18  20
ENDBRANCH   3  18
TORSDOF 6
ENDMDL
MODEL 8
REMARK VINA RESULT:      -7.6      5.119      8.204
REMARK  Name = 
REMARK  8 active torsions:
REMARK  status: ('A' for Active; 'I' for Inactive)
REMARK    1  A    between atoms: C_1  and  C_2
REMARK    2  A    between atoms: C_2  and  C_3
REMARK    3  A    between atoms: C_2  and  C_4
REMARK    4  A    between atoms: C_4  and  N_5
REMARK    5  A    between atoms: N_5  and  C_6
REMARK    6  A    between atoms: C_8  and  N_9
REMARK    7  A    between atoms: N_9  and  S_10
REMARK    8  A    between atoms: S_10  and  C_13
REMARK                            x       y       z     vdW  Elec       q    Type
REMARK                         _______ _______ _______ _____ _____    ______ ____
ROOT
ATOM      1  C   UNL     1      -0.162  10.025  18.248  0.00  0.00    +0.000 A 
ATOM      2  C   UNL     1       0.963   9.246  17.861  0.00  0.00    +0.000 A 
ATOM      3  C   UNL     1       1.852   8.584  18.765  0.00  0.00    +0.000 A 
ATOM      4  C   UNL     1       1.723   8.619  20.161  0.00  0.00    +0.000 A 
ATOM      5  C   UNL     1       0.642   9.409  20.534  0.00  0.00    +0.000 A 
ATOM      6  C   UNL     1       0.264   9.711  21.804  0.00  0.00    +0.000 A 
ATOM      7 CL   UNL     1       0.848   9.322  23.345  0.00  0.00    +0.000 Cl
ATOM      8  N   UNL     1      -0.812  10.529  21.695  0.00  0.00    +0.000 N 
ATOM      9  N   UNL     1      -1.188  10.773  20.420  0.00  0.00    +0.000 NA
ATOM     10  C   UNL     1      -0.290  10.102  19.665  0.00  0.00    +0.000 A 
ATOM     11  H   UNL     1      -1.333  10.964  22.447  0.00  0.00    +0.000 HD
ENDROOT
BRANCH   1  12
ATOM     12  N   UNL     1      -1.005  10.660  17.354  0.00  0.00    +0.000 N 
ATOM     13  H   UNL     1      -0.867  11.658  17.239  0.00  0.00    +0.000 HD
BRANCH  12  14
ATOM     14  C   UNL     1      -2.124   9.978  16.738  0.00  0.00    +0.000 C 
BRANCH  14  16
ATOM     15  C   UNL     1      -3.230  10.159  14.450  0.00  0.00    +0.000 C 
ATOM     16  C   UNL     1      -2.915  10.867  15.771  0.00  0.00    +0.000 C 
ATOM     17  C   UNL     1      -4.223  11.287  16.451  0.00  0.00    +0.000 C 
ENDBRANCH  14  16
ENDBRANCH  12  14
ENDBRANCH   1  12
BRANCH   3  18
ATOM     18  N   UNL     1       2.911   7.806  18.200  0.00  0.00    +0.000 N 
ATOM     19  H   UNL     1       3.002   7.903  17.187  0.00  0.00    +0.000 HD
BRANCH  18  20
ATOM     20  S   UNL     1       2.898   6.144  18.557  0.00  0.00    +0.000 S 
ATOM     21  O   UNL     1       3.498   5.881  19.843  0.00  0.00    +0.000 OA
ATOM     22  O   UNL     1       1.569   5.678  18.219  0.00  0.00    +0.000 OA
BRANCH  20  23
ATOM     23  C   UNL     1       4.013   5.560  17.297  0.00  0.00    +0.000 A 
ATOM     24  C   UNL     1       4.696   6.481  16.497  0.00  0.00    +0.000 A 
ATOM     25  C   UNL     1       5.520   6.016  15.471  0.00  0.00    +0.000 A 
ATOM     26  C   UNL     1       5.664   4.645  15.261  0.00  0.00    +0.000 A 
ATOM     27 CL   UNL     1       6.653   4.078  13.972  0.00  0.00    +0.000 Cl
ATOM     28  C   UNL     1       5.007   3.727  16.081  0.00  0.00    +0.000 A 
ATOM     29  C   UNL     1       4.181   4.184  17.110  0.00  0.00    +0.000 A 
ENDBRANCH  20  23
ENDBRANCH  18  20
ENDBRANCH   3  18
TORSDOF 6
ENDMDL
MODEL 9
REMARK VINA RESULT:      -7.5      3.631      6.585
REMARK  Name = 
REMARK  8 active torsions:
REMARK  status: ('A' for Active; 'I' for Inactive)
REMARK    1  A    between atoms: C_1  and  C_2
REMARK    2  A    between atoms: C_2  and  C_3
REMARK    3  A    between atoms: C_2  and  C_4
REMARK    4  A    between atoms: C_4  and  N_5
REMARK    5  A    between atoms: N_5  and  C_6
REMARK    6  A    between atoms: C_8  and  N_9
REMARK    7  A    between atoms: N_9  and  S_10
REMARK    8  A    between atoms: S_10  and  C_13
REMARK                            x       y       z     vdW  Elec       q    Type
REMARK                         _______ _______ _______ _____ _____    ______ ____
ROOT
ATOM      1  C   UNL     1       2.667   5.690  19.918  0.00  0.00    +0.000 A 
ATOM      2  C   UNL     1       3.450   5.243  18.819  0.00  0.00    +0.000 A 
ATOM      3  C   UNL     1       3.797   6.039  17.682  0.00  0.00    +0.000 A 
ATOM      4  C   UNL     1       3.407   7.375  17.509  0.00  0.00    +0.000 A 
ATOM      5  C   UNL     1       2.615   7.796  18.570  0.00  0.00    +0.000 A 
ATOM      6  C   UNL     1       2.016   9.009  18.698  0.00  0.00    +0.000 A 
ATOM      7 CL   UNL     1       1.953  10.412  17.752  0.00  0.00    +0.000 Cl
ATOM      8  N   UNL     1       1.322   8.968  19.862  0.00  0.00    +0.000 N 
ATOM      9  N   UNL     1       1.442   7.801  20.532  0.00  0.00    +0.000 NA
ATOM     10  C   UNL     1       2.231   7.036  19.745  0.00  0.00    +0.000 A 
ATOM     11  H   UNL     1       0.739   9.696  20.257  0.00  0.00    +0.000 HD
ENDROOT
BRANCH   1  12
ATOM     12  N   UNL     1       2.340   4.899  21.004  0.00  0.00    +0.000 N 
ATOM     13  H   UNL     1       2.993   4.914  21.781  0.00  0.00    +0.000 HD
BRANCH  12  14
ATOM     14  C   UNL     1       1.222   3.980  20.977  0.00  0.00    +0.000 C 
BRANCH  14  16
ATOM     15  C   UNL     1       1.585   2.091  19.306  0.00  0.00    +0.000 C 
ATOM     16  C   UNL     1       1.646   2.520  20.775  0.00  0.00    +0.000 C 
ATOM     17  C   UNL     1       3.077   2.349  21.299  0.00  0.00    +0.000 C 
ENDBRANCH  14  16
ENDBRANCH  12  14
ENDBRANCH   1  12
BRANCH   3  18
ATOM     18  N   UNL     1       4.629   5.440  16.685  0.00  0.00    +0.000 N 
ATOM     19  H   UNL     1       4.139   4.786  16.073  0.00  0.00    +0.000 HD
BRANCH  18  20
ATOM     20  S   UNL     1       6.034   4.663  17.244  0.00  0.00    +0.000 S 
ATOM     21  O   UNL     1       5.766   3.888  18.432  0.00  0.00    +0.000 OA
ATOM     22  O   UNL     1       6.658   4.084  16.073  0.00  0.00    +0.000 OA
BRANCH  20  23
ATOM     23  C   UNL     1       6.993   6.086  17.719  0.00  0.00    +0.000 A 
ATOM     24  C   UNL     1       7.791   6.031  18.867  0.00  0.00    +0.000 A 
ATOM     25  C   UNL     1       8.492   7.169  19.268  0.00  0.00    +0.000 A 
ATOM     26  C   UNL     1       8.399   8.343  18.520  0.00  0.00    +0.000 A 
ATOM     27 CL   UNL     1       9.236   9.754  19.039  0.00  0.00    +0.000 Cl
ATOM     28  C   UNL     1       7.628   8.387  17.358  0.00  0.00    +0.000 A 
ATOM     29  C   UNL     1       6.925   7.252  16.949  0.00  0.00    +0.000 A 
ENDBRANCH  20  23
ENDBRANCH  18  20
ENDBRANCH   3  18
TORSDOF 6
ENDMDL
