MODEL 1
REMARK VINA RESULT:      -8.4      0.000      0.000
REMARK  Name = 
REMARK  10 active torsions:
REMARK  status: ('A' for Active; 'I' for Inactive)
REMARK    1  A    between atoms: C_2  and  C_11
REMARK    2  A    between atoms: N_3  and  C_4
REMARK    3  A    between atoms: C_4  and  C_5
REMARK    4  A    between atoms: C_13  and  C_14
REMARK    5  A    between atoms: C_22  and  O_23
REMARK    6  A    between atoms: O_23  and  C_24
REMARK    7  A    between atoms: C_24  and  C_25
REMARK    8  A    between atoms: C_25  and  C_26
REMARK    9  A    between atoms: C_26  and  C_27
REMARK   10  A    between atoms: C_27  and  O_28
REMARK                            x       y       z     vdW  Elec       q    Type
REMARK                         _______ _______ _______ _____ _____    ______ ____
ROOT
ATOM      1  C   UNL     1       7.017   6.592  17.206  0.00  0.00    +0.000 C 
ATOM      2  C   UNL     1       5.695   6.644  17.457  0.00  0.00    +0.000 C 
ATOM      3  C   UNL     1       4.687   5.940  16.599  0.00  0.00    +0.000 C 
ATOM      4  C   UNL     1       5.373   5.098  15.531  0.00  0.00    +0.000 C 
ATOM      5  C   UNL     1       6.573   5.895  15.017  0.00  0.00    +0.000 C 
ATOM      6  O   UNL     1       7.553   6.001  16.067  0.00  0.00    +0.000 OA
ENDROOT
BRANCH   3   7
ATOM      7  C   UNL     1       3.743   5.097  17.427  0.00  0.00    +0.000 A 
ATOM      8  C   UNL     1       2.608   5.672  18.018  0.00  0.00    +0.000 A 
ATOM      9  C   UNL     1       1.790   4.907  18.847  0.00  0.00    +0.000 A 
ATOM     10  C   UNL     1       2.092   3.569  19.080  0.00  0.00    +0.000 A 
ATOM     11 BR   UNL     1       1.014   2.552  20.251  0.00  0.00    +0.000 Br
ATOM     12  C   UNL     1       3.194   2.972  18.475  0.00  0.00    +0.000 A 
ATOM     13  C   UNL     1       4.012   3.735  17.644  0.00  0.00    +0.000 A 
ENDBRANCH   3   7
BRANCH   1  15
ATOM     14  O   UNL     1       8.435   6.564  19.134  0.00  0.00    +0.000 OA
ATOM     15  C   UNL     1       7.941   7.207  18.220  0.00  0.00    +0.000 C 
ATOM     16  N   UNL     1       8.166   8.537  18.006  0.00  0.00    +0.000 N 
ATOM     17  H   UNL     1       7.725   8.979  17.211  0.00  0.00    +0.000 HD
BRANCH  16  18
ATOM     18  C   UNL     1       9.017   9.319  18.870  0.00  0.00    +0.000 C 
BRANCH  18  19
ATOM     19  C   UNL     1       9.196  10.722  18.351  0.00  0.00    +0.000 A 
ATOM     20  C   UNL     1      10.452  11.344  18.386  0.00  0.00    +0.000 A 
ATOM     21  C   UNL     1      10.611  12.643  17.896  0.00  0.00    +0.000 A 
ATOM     22  C   UNL     1       9.519  13.332  17.372  0.00  0.00    +0.000 A 
ATOM     23  C   UNL     1       8.265  12.726  17.339  0.00  0.00    +0.000 A 
ATOM     24  C   UNL     1       8.103  11.430  17.833  0.00  0.00    +0.000 A 
ENDBRANCH  18  19
ENDBRANCH  16  18
ENDBRANCH   1  15
BRANCH   5  25
ATOM     25  O   UNL     1       7.139   5.279  13.859  0.00  0.00    +0.000 OA
BRANCH  25  26
ATOM     26  C   UNL     1       6.581   3.981  13.634  0.00  0.00    +0.000 C 
BRANCH  26  27
ATOM     27  C   UNL     1       6.800   3.545  12.200  0.00  0.00    +0.000 C 
BRANCH  27  28
ATOM     28  C   UNL     1       5.821   2.431  11.842  0.00  0.00    +0.000 C 
BRANCH  28  29
ATOM     29  C   UNL     1       6.451   1.389  10.939  0.00  0.00    +0.000 C 
BRANCH  29  30
ATOM     30  O   UNL     1       6.087   0.095  11.398  0.00  0.00    +0.000 OA
ATOM     31  H   UNL     1       5.682  -0.375  10.648  0.00  0.00    +0.000 HD
ENDBRANCH  29  30
ENDBRANCH  28  29
ENDBRANCH  27  28
ENDBRANCH  26  27
ENDBRANCH  25  26
ENDBRANCH   5  25
TORSDOF 10
ENDMDL
MODEL 2
REMARK VINA RESULT:      -8.2      0.993      1.401
REMARK  Name = 
REMARK  10 active torsions:
REMARK  status: ('A' for Active; 'I' for Inactive)
REMARK    1  A    between atoms: C_2  and  C_11
REMARK    2  A    between atoms: N_3  and  C_4
REMARK    3  A    between atoms: C_4  and  C_5
REMARK    4  A    between atoms: C_13  and  C_14
REMARK    5  A    between atoms: C_22  and  O_23
REMARK    6  A    between atoms: O_23  and  C_24
REMARK    7  A    between atoms: C_24  and  C_25
REMARK    8  A    between atoms: C_25  and  C_26
REMARK    9  A    between atoms: C_26  and  C_27
REMARK   10  A    between atoms: C_27  and  O_28
REMARK                            x       y       z     vdW  Elec       q    Type
REMARK                         _______ _______ _______ _____ _____    ______ ____
ROOT
ATOM      1  C   UNL     1       7.028   6.595  17.238  0.00  0.00    +0.000 C 
ATOM      2  C   UNL     1       5.704   6.747  17.430  0.00  0.00    +0.000 C 
ATOM      3  C   UNL     1       4.685   6.043  16.587  0.00  0.00    +0.000 C 
ATOM      4  C   UNL     1       5.354   5.081  15.613  0.00  0.00    +0.000 C 
ATOM      5  C   UNL     1       6.620   5.760  15.091  0.00  0.00    +0.000 C 
ATOM      6  O   UNL     1       7.566   5.887  16.169  0.00  0.00    +0.000 OA
ENDROOT
BRANCH   3   7
ATOM      7  C   UNL     1       3.659   5.325  17.435  0.00  0.00    +0.000 A 
ATOM      8  C   UNL     1       3.061   5.972  18.527  0.00  0.00    +0.000 A 
ATOM      9  C   UNL     1       2.180   5.277  19.354  0.00  0.00    +0.000 A 
ATOM     10  C   UNL     1       1.885   3.943  19.089  0.00  0.00    +0.000 A 
ATOM     11 BR   UNL     1       0.736   2.987  20.245  0.00  0.00    +0.000 Br
ATOM     12  C   UNL     1       2.442   3.294  17.991  0.00  0.00    +0.000 A 
ATOM     13  C   UNL     1       3.321   3.989  17.162  0.00  0.00    +0.000 A 
ENDBRANCH   3   7
BRANCH   1  15
ATOM     14  O   UNL     1       8.470   6.595  19.149  0.00  0.00    +0.000 OA
ATOM     15  C   UNL     1       7.953   7.227  18.241  0.00  0.00    +0.000 C 
ATOM     16  N   UNL     1       8.149   8.562  18.025  0.00  0.00    +0.000 N 
ATOM     17  H   UNL     1       7.690   8.995  17.236  0.00  0.00    +0.000 HD
BRANCH  16  18
ATOM     18  C   UNL     1       8.996   9.360  18.878  0.00  0.00    +0.000 C 
BRANCH  18  19
ATOM     19  C   UNL     1       9.196  10.746  18.322  0.00  0.00    +0.000 A 
ATOM     20  C   UNL     1       8.112  11.482  17.825  0.00  0.00    +0.000 A 
ATOM     21  C   UNL     1       8.305  12.770  17.319  0.00  0.00    +0.000 A 
ATOM     22  C   UNL     1       9.581  13.330  17.299  0.00  0.00    +0.000 A 
ATOM     23  C   UNL     1      10.667  12.604  17.784  0.00  0.00    +0.000 A 
ATOM     24  C   UNL     1      10.477  11.315  18.286  0.00  0.00    +0.000 A 
ENDBRANCH  18  19
ENDBRANCH  16  18
ENDBRANCH   1  15
BRANCH   5  25
ATOM     25  O   UNL     1       7.187   5.025  14.006  0.00  0.00    +0.000 OA
BRANCH  25  26
ATOM     26  C   UNL     1       6.338   3.942  13.612  0.00  0.00    +0.000 C 
BRANCH  26  27
ATOM     27  C   UNL     1       6.306   3.808  12.104  0.00  0.00    +0.000 C 
BRANCH  27  28
ATOM     28  C   UNL     1       5.456   2.605  11.708  0.00  0.00    +0.000 C 
BRANCH  28  29
ATOM     29  C   UNL     1       4.009   2.985  11.468  0.00  0.00    +0.000 C 
BRANCH  29  30
ATOM     30  O   UNL     1       3.954   4.020  10.496  0.00  0.00    +0.000 OA
ATOM     31  H   UNL     1       4.872   4.261  10.278  0.00  0.00    +0.000 HD
ENDBRANCH  29  30
ENDBRANCH  28  29
ENDBRANCH  27  28
ENDBRANCH  26  27
ENDBRANCH  25  26
ENDBRANCH   5  25
TORSDOF 10
ENDMDL
MODEL 3
REMARK VINA RESULT:      -8.1      5.057      7.680
REMARK  Name = 
REMARK  10 active torsions:
REMARK  status: ('A' for Active; 'I' for Inactive)
REMARK    1  A    between atoms: C_2  and  C_11
REMARK    2  A    between atoms: N_3  and  C_4
REMARK    3  A    between atoms: C_4  and  C_5
REMARK    4  A    between atoms: C_13  and  C_14
REMARK    5  A    between atoms: C_22  and  O_23
REMARK    6  A    between atoms: O_23  and  C_24
REMARK    7  A    between atoms: C_24  and  C_25
REMARK    8  A    between atoms: C_25  and  C_26
REMARK    9  A    between atoms: C_26  and  C_27
REMARK   10  A    between atoms: C_27  and  O_28
REMARK                            x       y       z     vdW  Elec       q    Type
REMARK                         _______ _______ _______ _____ _____    ______ ____
ROOT
ATOM      1  C   UNL     1       3.255   6.872  18.431  0.00  0.00    +0.000 C 
ATOM      2  C   UNL     1       4.450   6.750  17.822  0.00  0.00    +0.000 C 
ATOM      3  C   UNL     1       5.263   5.494  17.894  0.00  0.00    +0.000 C 
ATOM      4  C   UNL     1       4.502   4.392  18.620  0.00  0.00    +0.000 C 
ATOM      5  C   UNL     1       3.765   5.039  19.793  0.00  0.00    +0.000 C 
ATOM      6  O   UNL     1       2.733   5.904  19.283  0.00  0.00    +0.000 OA
ENDROOT
BRANCH   3   7
ATOM      7  C   UNL     1       5.699   5.033  16.521  0.00  0.00    +0.000 A 
ATOM      8  C   UNL     1       6.962   5.384  16.020  0.00  0.00    +0.000 A 
ATOM      9  C   UNL     1       7.322   5.026  14.722  0.00  0.00    +0.000 A 
ATOM     10  C   UNL     1       6.433   4.310  13.926  0.00  0.00    +0.000 A 
ATOM     11 BR   UNL     1       6.902   3.878  12.148  0.00  0.00    +0.000 Br
ATOM     12  C   UNL     1       5.189   3.924  14.417  0.00  0.00    +0.000 A 
ATOM     13  C   UNL     1       4.829   4.279  15.715  0.00  0.00    +0.000 A 
ENDBRANCH   3   7
BRANCH   1  15
ATOM     14  O   UNL     1       2.493   8.701  17.088  0.00  0.00    +0.000 OA
ATOM     15  C   UNL     1       2.462   8.120  18.162  0.00  0.00    +0.000 C 
ATOM     16  N   UNL     1       1.713   8.522  19.232  0.00  0.00    +0.000 N 
ATOM     17  H   UNL     1       1.740   7.966  20.075  0.00  0.00    +0.000 HD
BRANCH  16  18
ATOM     18  C   UNL     1       0.884   9.702  19.187  0.00  0.00    +0.000 C 
BRANCH  18  19
ATOM     19  C   UNL     1       0.264   9.998  20.528  0.00  0.00    +0.000 A 
ATOM     20  C   UNL     1      -0.252  11.269  20.814  0.00  0.00    +0.000 A 
ATOM     21  C   UNL     1      -0.832  11.532  22.058  0.00  0.00    +0.000 A 
ATOM     22  C   UNL     1      -0.896  10.532  23.026  0.00  0.00    +0.000 A 
ATOM     23  C   UNL     1      -0.379   9.266  22.754  0.00  0.00    +0.000 A 
ATOM     24  C   UNL     1       0.205   9.003  21.514  0.00  0.00    +0.000 A 
ENDBRANCH  18  19
ENDBRANCH  16  18
ENDBRANCH   1  15
BRANCH   5  25
ATOM     25  O   UNL     1       3.209   4.048  20.659  0.00  0.00    +0.000 OA
BRANCH  25  26
ATOM     26  C   UNL     1       1.872   4.384  21.044  0.00  0.00    +0.000 C 
BRANCH  26  27
ATOM     27  C   UNL     1       0.878   3.439  20.403  0.00  0.00    +0.000 C 
BRANCH  27  28
ATOM     28  C   UNL     1       1.612   2.250  19.791  0.00  0.00    +0.000 C 
BRANCH  28  29
ATOM     29  C   UNL     1       1.565   2.271  18.277  0.00  0.00    +0.000 C 
BRANCH  29  30
ATOM     30  O   UNL     1       1.179   3.567  17.841  0.00  0.00    +0.000 OA
ATOM     31  H   UNL     1       1.109   3.536  16.871  0.00  0.00    +0.000 HD
ENDBRANCH  29  30
ENDBRANCH  28  29
ENDBRANCH  27  28
ENDBRANCH  26  27
ENDBRANCH  25  26
ENDBRANCH   5  25
TORSDOF 10
ENDMDL
MODEL 4
REMARK VINA RESULT:      -8.1      3.602      4.835
REMARK  Name = 
REMARK  10 active torsions:
REMARK  status: ('A' for Active; 'I' for Inactive)
REMARK    1  A    between atoms: C_2  and  C_11
REMARK    2  A    between atoms: N_3  and  C_4
REMARK    3  A    between atoms: C_4  and  C_5
REMARK    4  A    between atoms: C_13  and  C_14
REMARK    5  A    between atoms: C_22  and  O_23
REMARK    6  A    between atoms: O_23  and  C_24
REMARK    7  A    between atoms: C_24  and  C_25
REMARK    8  A    between atoms: C_25  and  C_26
REMARK    9  A    between atoms: C_26  and  C_27
REMARK   10  A    between atoms: C_27  and  O_28
REMARK                            x       y       z     vdW  Elec       q    Type
REMARK                         _______ _______ _______ _____ _____    ______ ____
ROOT
ATOM      1  C   UNL     1       5.934   6.371  17.812  0.00  0.00    +0.000 C 
ATOM      2  C   UNL     1       4.703   6.800  17.474  0.00  0.00    +0.000 C 
ATOM      3  C   UNL     1       3.463   6.291  18.143  0.00  0.00    +0.000 C 
ATOM      4  C   UNL     1       3.810   5.354  19.294  0.00  0.00    +0.000 C 
ATOM      5  C   UNL     1       4.993   4.495  18.846  0.00  0.00    +0.000 C 
ATOM      6  O   UNL     1       6.157   5.331  18.708  0.00  0.00    +0.000 OA
ENDROOT
BRANCH   3   7
ATOM      7  C   UNL     1       2.581   7.423  18.618  0.00  0.00    +0.000 A 
ATOM      8  C   UNL     1       2.300   8.509  17.774  0.00  0.00    +0.000 A 
ATOM      9  C   UNL     1       1.555   9.587  18.247  0.00  0.00    +0.000 A 
ATOM     10  C   UNL     1       1.080   9.583  19.555  0.00  0.00    +0.000 A 
ATOM     11 BR   UNL     1       0.122  11.073  20.211  0.00  0.00    +0.000 Br
ATOM     12  C   UNL     1       1.320   8.501  20.397  0.00  0.00    +0.000 A 
ATOM     13  C   UNL     1       2.062   7.421  19.924  0.00  0.00    +0.000 A 
ENDBRANCH   3   7
BRANCH   1  15
ATOM     14  O   UNL     1       7.717   6.597  16.232  0.00  0.00    +0.000 OA
ATOM     15  C   UNL     1       7.109   7.064  17.182  0.00  0.00    +0.000 C 
ATOM     16  N   UNL     1       7.414   8.256  17.778  0.00  0.00    +0.000 N 
ATOM     17  H   UNL     1       6.841   8.569  18.549  0.00  0.00    +0.000 HD
BRANCH  16  18
ATOM     18  C   UNL     1       8.513   9.077  17.331  0.00  0.00    +0.000 C 
BRANCH  18  19
ATOM     19  C   UNL     1       8.814  10.182  18.310  0.00  0.00    +0.000 A 
ATOM     20  C   UNL     1       8.789  11.524  17.906  0.00  0.00    +0.000 A 
ATOM     21  C   UNL     1       9.061  12.543  18.822  0.00  0.00    +0.000 A 
ATOM     22  C   UNL     1       9.366  12.232  20.145  0.00  0.00    +0.000 A 
ATOM     23  C   UNL     1       9.400  10.901  20.557  0.00  0.00    +0.000 A 
ATOM     24  C   UNL     1       9.132   9.881  19.642  0.00  0.00    +0.000 A 
ENDBRANCH  18  19
ENDBRANCH  16  18
ENDBRANCH   1  15
BRANCH   5  25
ATOM     25  O   UNL     1       5.239   3.437  19.775  0.00  0.00    +0.000 OA
BRANCH  25  26
ATOM     26  C   UNL     1       4.025   2.771  20.137  0.00  0.00    +0.000 C 
BRANCH  26  27
ATOM     27  C   UNL     1       3.440   2.039  18.948  0.00  0.00    +0.000 C 
BRANCH  27  28
ATOM     28  C   UNL     1       1.930   1.904  19.114  0.00  0.00    +0.000 C 
BRANCH  28  29
ATOM     29  C   UNL     1       1.174   2.943  18.311  0.00  0.00    +0.000 C 
BRANCH  29  30
ATOM     30  O   UNL     1       1.934   3.287  17.161  0.00  0.00    +0.000 OA
ATOM     31  H   UNL     1       1.876   2.539  16.541  0.00  0.00    +0.000 HD
ENDBRANCH  29  30
ENDBRANCH  28  29
ENDBRANCH  27  28
ENDBRANCH  26  27
ENDBRANCH  25  26
ENDBRANCH   5  25
TORSDOF 10
ENDMDL
MODEL 5
REMARK VINA RESULT:      -8.1      5.090      7.703
REMARK  Name = 
REMARK  10 active torsions:
REMARK  status: ('A' for Active; 'I' for Inactive)
REMARK    1  A    between atoms: C_2  and  C_11
REMARK    2  A    between atoms: N_3  and  C_4
REMARK    3  A    between atoms: C_4  and  C_5
REMARK    4  A    between atoms: C_13  and  C_14
REMARK    5  A    between atoms: C_22  and  O_23
REMARK    6  A    between atoms: O_23  and  C_24
REMARK    7  A    between atoms: C_24  and  C_25
REMARK    8  A    between atoms: C_25  and  C_26
REMARK    9  A    between atoms: C_26  and  C_27
REMARK   10  A    between atoms: C_27  and  O_28
REMARK                            x       y       z     vdW  Elec       q    Type
REMARK                         _______ _______ _______ _____ _____    ______ ____
ROOT
ATOM      1  C   UNL     1       2.695   7.354  18.716  0.00  0.00    +0.000 C 
ATOM      2  C   UNL     1       3.899   7.174  18.141  0.00  0.00    +0.000 C 
ATOM      3  C   UNL     1       4.673   5.899  18.283  0.00  0.00    +0.000 C 
ATOM      4  C   UNL     1       3.864   4.850  19.035  0.00  0.00    +0.000 C 
ATOM      5  C   UNL     1       3.120   5.565  20.163  0.00  0.00    +0.000 C 
ATOM      6  O   UNL     1       2.125   6.437  19.594  0.00  0.00    +0.000 OA
ENDROOT
BRANCH   3   7
ATOM      7  C   UNL     1       5.126   5.369  16.940  0.00  0.00    +0.000 A 
ATOM      8  C   UNL     1       5.159   6.211  15.819  0.00  0.00    +0.000 A 
ATOM      9  C   UNL     1       5.497   5.696  14.568  0.00  0.00    +0.000 A 
ATOM     10  C   UNL     1       5.811   4.347  14.435  0.00  0.00    +0.000 A 
ATOM     11 BR   UNL     1       6.210   3.640  12.729  0.00  0.00    +0.000 Br
ATOM     12  C   UNL     1       5.816   3.504  15.542  0.00  0.00    +0.000 A 
ATOM     13  C   UNL     1       5.481   4.019  16.792  0.00  0.00    +0.000 A 
ENDBRANCH   3   7
BRANCH   1  15
ATOM     14  O   UNL     1       1.965   9.111  17.264  0.00  0.00    +0.000 OA
ATOM     15  C   UNL     1       1.944   8.612  18.378  0.00  0.00    +0.000 C 
ATOM     16  N   UNL     1       1.246   9.122  19.436  0.00  0.00    +0.000 N 
ATOM     17  H   UNL     1       1.277   8.628  20.317  0.00  0.00    +0.000 HD
BRANCH  16  18
ATOM     18  C   UNL     1       0.464  10.331  19.327  0.00  0.00    +0.000 C 
BRANCH  18  19
ATOM     19  C   UNL     1      -0.223  10.666  20.625  0.00  0.00    +0.000 A 
ATOM     20  C   UNL     1      -0.028   9.873  21.765  0.00  0.00    +0.000 A 
ATOM     21  C   UNL     1      -0.663  10.196  22.967  0.00  0.00    +0.000 A 
ATOM     22  C   UNL     1      -1.500  11.308  23.040  0.00  0.00    +0.000 A 
ATOM     23  C   UNL     1      -1.705  12.099  21.911  0.00  0.00    +0.000 A 
ATOM     24  C   UNL     1      -1.076  11.776  20.708  0.00  0.00    +0.000 A 
ENDBRANCH  18  19
ENDBRANCH  16  18
ENDBRANCH   1  15
BRANCH   5  25
ATOM     25  O   UNL     1       2.516   4.627  21.056  0.00  0.00    +0.000 OA
BRANCH  25  26
ATOM     26  C   UNL     1       1.196   4.278  20.628  0.00  0.00    +0.000 C 
BRANCH  26  27
ATOM     27  C   UNL     1       1.103   2.796  20.329  0.00  0.00    +0.000 C 
BRANCH  27  28
ATOM     28  C   UNL     1       0.820   2.583  18.845  0.00  0.00    +0.000 C 
BRANCH  28  29
ATOM     29  C   UNL     1       2.072   2.218  18.074  0.00  0.00    +0.000 C 
BRANCH  29  30
ATOM     30  O   UNL     1       2.121   2.980  16.876  0.00  0.00    +0.000 OA
ATOM     31  H   UNL     1       1.321   2.767  16.365  0.00  0.00    +0.000 HD
ENDBRANCH  29  30
ENDBRANCH  28  29
ENDBRANCH  27  28
ENDBRANCH  26  27
ENDBRANCH  25  26
ENDBRANCH   5  25
TORSDOF 10
ENDMDL
MODEL 6
REMARK VINA RESULT:      -8.0      4.997      7.584
REMARK  Name = 
REMARK  10 active torsions:
REMARK  status: ('A' for Active; 'I' for Inactive)
REMARK    1  A    between atoms: C_2  and  C_11
REMARK    2  A    between atoms: N_3  and  C_4
REMARK    3  A    between atoms: C_4  and  C_5
REMARK    4  A    between atoms: C_13  and  C_14
REMARK    5  A    between atoms: C_22  and  O_23
REMARK    6  A    between atoms: O_23  and  C_24
REMARK    7  A    between atoms: C_24  and  C_25
REMARK    8  A    between atoms: C_25  and  C_26
REMARK    9  A    between atoms: C_26  and  C_27
REMARK   10  A    between atoms: C_27  and  O_28
REMARK                            x       y       z     vdW  Elec       q    Type
REMARK                         _______ _______ _______ _____ _____    ______ ____
ROOT
ATOM      1  C   UNL     1       3.153   7.012  18.412  0.00  0.00    +0.000 C 
ATOM      2  C   UNL     1       4.329   6.911  17.765  0.00  0.00    +0.000 C 
ATOM      3  C   UNL     1       5.159   5.664  17.798  0.00  0.00    +0.000 C 
ATOM      4  C   UNL     1       4.435   4.546  18.537  0.00  0.00    +0.000 C 
ATOM      5  C   UNL     1       3.727   5.172  19.739  0.00  0.00    +0.000 C 
ATOM      6  O   UNL     1       2.669   6.029  19.270  0.00  0.00    +0.000 OA
ENDROOT
BRANCH   3   7
ATOM      7  C   UNL     1       5.557   5.222  16.407  0.00  0.00    +0.000 A 
ATOM      8  C   UNL     1       4.654   4.511  15.602  0.00  0.00    +0.000 A 
ATOM      9  C   UNL     1       5.055   4.035  14.355  0.00  0.00    +0.000 A 
ATOM     10  C   UNL     1       6.349   4.274  13.904  0.00  0.00    +0.000 A 
ATOM     11 BR   UNL     1       6.908   3.577  12.240  0.00  0.00    +0.000 Br
ATOM     12  C   UNL     1       7.248   5.007  14.674  0.00  0.00    +0.000 A 
ATOM     13  C   UNL     1       6.847   5.485  15.919  0.00  0.00    +0.000 A 
ENDBRANCH   3   7
BRANCH   1  15
ATOM     14  O   UNL     1       2.324   8.843  17.112  0.00  0.00    +0.000 OA
ATOM     15  C   UNL     1       2.336   8.253  18.181  0.00  0.00    +0.000 C 
ATOM     16  N   UNL     1       1.619   8.636  19.279  0.00  0.00    +0.000 N 
ATOM     17  H   UNL     1       1.680   8.073  20.116  0.00  0.00    +0.000 HD
BRANCH  16  18
ATOM     18  C   UNL     1       0.775   9.807  19.272  0.00  0.00    +0.000 C 
BRANCH  18  19
ATOM     19  C   UNL     1       0.161  10.057  20.625  0.00  0.00    +0.000 A 
ATOM     20  C   UNL     1       0.116   9.041  21.590  0.00  0.00    +0.000 A 
ATOM     21  C   UNL     1      -0.448   9.283  22.845  0.00  0.00    +0.000 A 
ATOM     22  C   UNL     1      -0.976  10.538  23.145  0.00  0.00    +0.000 A 
ATOM     23  C   UNL     1      -0.943  11.553  22.191  0.00  0.00    +0.000 A 
ATOM     24  C   UNL     1      -0.384  11.311  20.934  0.00  0.00    +0.000 A 
ENDBRANCH  18  19
ENDBRANCH  16  18
ENDBRANCH   1  15
BRANCH   5  25
ATOM     25  O   UNL     1       3.211   4.166  20.612  0.00  0.00    +0.000 OA
BRANCH  25  26
ATOM     26  C   UNL     1       1.783   4.109  20.553  0.00  0.00    +0.000 C 
BRANCH  26  27
ATOM     27  C   UNL     1       1.318   2.724  20.155  0.00  0.00    +0.000 C 
BRANCH  27  28
ATOM     28  C   UNL     1       0.982   2.698  18.666  0.00  0.00    +0.000 C 
BRANCH  28  29
ATOM     29  C   UNL     1       2.118   2.136  17.837  0.00  0.00    +0.000 C 
BRANCH  29  30
ATOM     30  O   UNL     1       2.930   1.309  18.659  0.00  0.00    +0.000 OA
ATOM     31  H   UNL     1       2.597   1.389  19.569  0.00  0.00    +0.000 HD
ENDBRANCH  29  30
ENDBRANCH  28  29
ENDBRANCH  27  28
ENDBRANCH  26  27
ENDBRANCH  25  26
ENDBRANCH   5  25
TORSDOF 10
ENDMDL
MODEL 7
REMARK VINA RESULT:      -8.0      4.433      7.016
REMARK  Name = 
REMARK  10 active torsions:
REMARK  status: ('A' for Active; 'I' for Inactive)
REMARK    1  A    between atoms: C_2  and  C_11
REMARK    2  A    between atoms: N_3  and  C_4
REMARK    3  A    between atoms: C_4  and  C_5
REMARK    4  A    between atoms: C_13  and  C_14
REMARK    5  A    between atoms: C_22  and  O_23
REMARK    6  A    between atoms: O_23  and  C_24
REMARK    7  A    between atoms: C_24  and  C_25
REMARK    8  A    between atoms: C_25  and  C_26
REMARK    9  A    between atoms: C_26  and  C_27
REMARK   10  A    between atoms: C_27  and  O_28
REMARK                            x       y       z     vdW  Elec       q    Type
REMARK                         _______ _______ _______ _____ _____    ______ ____
ROOT
ATOM      1  C   UNL     1       4.344   6.242  18.178  0.00  0.00    +0.000 C 
ATOM      2  C   UNL     1       3.368   7.076  17.774  0.00  0.00    +0.000 C 
ATOM      3  C   UNL     1       2.105   7.273  18.556  0.00  0.00    +0.000 C 
ATOM      4  C   UNL     1       2.157   6.513  19.876  0.00  0.00    +0.000 C 
ATOM      5  C   UNL     1       2.833   5.169  19.606  0.00  0.00    +0.000 C 
ATOM      6  O   UNL     1       4.216   5.394  19.273  0.00  0.00    +0.000 OA
ENDROOT
BRANCH   3   7
ATOM      7  C   UNL     1       1.816   8.739  18.789  0.00  0.00    +0.000 A 
ATOM      8  C   UNL     1       1.111   9.152  19.930  0.00  0.00    +0.000 A 
ATOM      9  C   UNL     1       0.776  10.495  20.095  0.00  0.00    +0.000 A 
ATOM     10  C   UNL     1       1.150  11.428  19.133  0.00  0.00    +0.000 A 
ATOM     11 BR   UNL     1       0.643  13.237  19.332  0.00  0.00    +0.000 Br
ATOM     12  C   UNL     1       1.878  11.042  18.012  0.00  0.00    +0.000 A 
ATOM     13  C   UNL     1       2.216   9.701  17.847  0.00  0.00    +0.000 A 
ENDBRANCH   3   7
BRANCH   1  15
ATOM     14  O   UNL     1       6.185   7.272  17.049  0.00  0.00    +0.000 OA
ATOM     15  C   UNL     1       5.627   6.243  17.396  0.00  0.00    +0.000 C 
ATOM     16  N   UNL     1       6.093   4.987  17.125  0.00  0.00    +0.000 N 
ATOM     17  H   UNL     1       5.569   4.194  17.469  0.00  0.00    +0.000 HD
BRANCH  16  18
ATOM     18  C   UNL     1       7.308   4.765  16.377  0.00  0.00    +0.000 C 
BRANCH  18  19
ATOM     19  C   UNL     1       7.029   4.571  14.910  0.00  0.00    +0.000 A 
ATOM     20  C   UNL     1       7.801   5.229  13.941  0.00  0.00    +0.000 A 
ATOM     21  C   UNL     1       7.541   5.038  12.582  0.00  0.00    +0.000 A 
ATOM     22  C   UNL     1       6.507   4.195  12.179  0.00  0.00    +0.000 A 
ATOM     23  C   UNL     1       5.730   3.542  13.133  0.00  0.00    +0.000 A 
ATOM     24  C   UNL     1       5.985   3.735  14.492  0.00  0.00    +0.000 A 
ENDBRANCH  18  19
ENDBRANCH  16  18
ENDBRANCH   1  15
BRANCH   5  25
ATOM     25  O   UNL     1       2.721   4.303  20.737  0.00  0.00    +0.000 OA
BRANCH  25  26
ATOM     26  C   UNL     1       2.016   3.103  20.405  0.00  0.00    +0.000 C 
BRANCH  26  27
ATOM     27  C   UNL     1       1.574   3.125  18.957  0.00  0.00    +0.000 C 
BRANCH  27  28
ATOM     28  C   UNL     1       2.091   1.882  18.238  0.00  0.00    +0.000 C 
BRANCH  28  29
ATOM     29  C   UNL     1       3.583   1.698  18.423  0.00  0.00    +0.000 C 
BRANCH  29  30
ATOM     30  O   UNL     1       4.272   2.685  17.668  0.00  0.00    +0.000 OA
ATOM     31  H   UNL     1       4.082   2.515  16.728  0.00  0.00    +0.000 HD
ENDBRANCH  29  30
ENDBRANCH  28  29
ENDBRANCH  27  28
ENDBRANCH  26  27
ENDBRANCH  25  26
ENDBRANCH   5  25
TORSDOF 10
ENDMDL
MODEL 8
REMARK VINA RESULT:      -7.9      4.375      7.207
REMARK  Name = 
REMARK  10 active torsions:
REMARK  status: ('A' for Active; 'I' for Inactive)
REMARK    1  A    between atoms: C_2  and  C_11
REMARK    2  A    between atoms: N_3  and  C_4
REMARK    3  A    between atoms: C_4  and  C_5
REMARK    4  A    between atoms: C_13  and  C_14
REMARK    5  A    between atoms: C_22  and  O_23
REMARK    6  A    between atoms: O_23  and  C_24
REMARK    7  A    between atoms: C_24  and  C_25
REMARK    8  A    between atoms: C_25  and  C_26
REMARK    9  A    between atoms: C_26  and  C_27
REMARK   10  A    between atoms: C_27  and  O_28
REMARK                            x       y       z     vdW  Elec       q    Type
REMARK                         _______ _______ _______ _____ _____    ______ ____
ROOT
ATOM      1  C   UNL     1       4.360   6.490  18.072  0.00  0.00    +0.000 C 
ATOM      2  C   UNL     1       3.352   7.292  17.681  0.00  0.00    +0.000 C 
ATOM      3  C   UNL     1       2.096   7.452  18.483  0.00  0.00    +0.000 C 
ATOM      4  C   UNL     1       2.194   6.701  19.805  0.00  0.00    +0.000 C 
ATOM      5  C   UNL     1       2.908   5.378  19.531  0.00  0.00    +0.000 C 
ATOM      6  O   UNL     1       4.277   5.645  19.174  0.00  0.00    +0.000 OA
ENDROOT
BRANCH   3   7
ATOM      7  C   UNL     1       1.764   8.909  18.714  0.00  0.00    +0.000 A 
ATOM      8  C   UNL     1       2.249   9.896  17.842  0.00  0.00    +0.000 A 
ATOM      9  C   UNL     1       2.009  11.242  18.108  0.00  0.00    +0.000 A 
ATOM     10  C   UNL     1       1.279  11.609  19.235  0.00  0.00    +0.000 A 
ATOM     11 BR   UNL     1       1.006  13.437  19.625  0.00  0.00    +0.000 Br
ATOM     12  C   UNL     1       0.762  10.643  20.094  0.00  0.00    +0.000 A 
ATOM     13  C   UNL     1       0.999   9.296  19.826  0.00  0.00    +0.000 A 
ENDBRANCH   3   7
BRANCH   1  15
ATOM     14  O   UNL     1       6.308   7.538  17.157  0.00  0.00    +0.000 OA
ATOM     15  C   UNL     1       5.630   6.528  17.269  0.00  0.00    +0.000 C 
ATOM     16  N   UNL     1       5.938   5.328  16.693  0.00  0.00    +0.000 N 
ATOM     17  H   UNL     1       5.323   4.543  16.857  0.00  0.00    +0.000 HD
BRANCH  16  18
ATOM     18  C   UNL     1       7.112   5.150  15.872  0.00  0.00    +0.000 C 
BRANCH  18  19
ATOM     19  C   UNL     1       6.758   4.642  14.499  0.00  0.00    +0.000 A 
ATOM     20  C   UNL     1       7.606   4.879  13.408  0.00  0.00    +0.000 A 
ATOM     21  C   UNL     1       7.275   4.397  12.139  0.00  0.00    +0.000 A 
ATOM     22  C   UNL     1       6.094   3.683  11.947  0.00  0.00    +0.000 A 
ATOM     23  C   UNL     1       5.240   3.449  13.024  0.00  0.00    +0.000 A 
ATOM     24  C   UNL     1       5.567   3.933  14.292  0.00  0.00    +0.000 A 
ENDBRANCH  18  19
ENDBRANCH  16  18
ENDBRANCH   1  15
BRANCH   5  25
ATOM     25  O   UNL     1       2.842   4.514  20.667  0.00  0.00    +0.000 OA
BRANCH  25  26
ATOM     26  C   UNL     1       1.691   3.666  20.610  0.00  0.00    +0.000 C 
BRANCH  26  27
ATOM     27  C   UNL     1       1.529   3.075  19.225  0.00  0.00    +0.000 C 
BRANCH  27  28
ATOM     28  C   UNL     1       2.582   1.995  18.995  0.00  0.00    +0.000 C 
BRANCH  28  29
ATOM     29  C   UNL     1       3.402   2.257  17.749  0.00  0.00    +0.000 C 
BRANCH  29  30
ATOM     30  O   UNL     1       4.654   2.814  18.124  0.00  0.00    +0.000 OA
ATOM     31  H   UNL     1       4.950   3.381  17.391  0.00  0.00    +0.000 HD
ENDBRANCH  29  30
ENDBRANCH  28  29
ENDBRANCH  27  28
ENDBRANCH  26  27
ENDBRANCH  25  26
ENDBRANCH   5  25
TORSDOF 10
ENDMDL
MODEL 9
REMARK VINA RESULT:      -7.9      3.680      5.386
REMARK  Name = 
REMARK  10 active torsions:
REMARK  status: ('A' for Active; 'I' for Inactive)
REMARK    1  A    between atoms: C_2  and  C_11
REMARK    2  A    between atoms: N_3  and  C_4
REMARK    3  A    between atoms: C_4  and  C_5
REMARK    4  A    between atoms: C_13  and  C_14
REMARK    5  A    between atoms: C_22  and  O_23
REMARK    6  A    between atoms: O_23  and  C_24
REMARK    7  A    between atoms: C_24  and  C_25
REMARK    8  A    between atoms: C_25  and  C_26
REMARK    9  A    between atoms: C_26  and  C_27
REMARK   10  A    between atoms: C_27  and  O_28
REMARK                            x       y       z     vdW  Elec       q    Type
REMARK                         _______ _______ _______ _____ _____    ______ ____
ROOT
ATOM      1  C   UNL     1       5.862   6.475  17.834  0.00  0.00    +0.000 C 
ATOM      2  C   UNL     1       4.650   6.949  17.489  0.00  0.00    +0.000 C 
ATOM      3  C   UNL     1       3.387   6.479  18.144  0.00  0.00    +0.000 C 
ATOM      4  C   UNL     1       3.692   5.523  19.292  0.00  0.00    +0.000 C 
ATOM      5  C   UNL     1       4.847   4.626  18.849  0.00  0.00    +0.000 C 
ATOM      6  O   UNL     1       6.041   5.422  18.725  0.00  0.00    +0.000 OA
ENDROOT
BRANCH   3   7
ATOM      7  C   UNL     1       2.541   7.639  18.620  0.00  0.00    +0.000 A 
ATOM      8  C   UNL     1       2.042   7.665  19.931  0.00  0.00    +0.000 A 
ATOM      9  C   UNL     1       1.194   8.695  20.335  0.00  0.00    +0.000 A 
ATOM     10  C   UNL     1       0.852   9.704  19.441  0.00  0.00    +0.000 A 
ATOM     11 BR   UNL     1      -0.344  11.066  19.974  0.00  0.00    +0.000 Br
ATOM     12  C   UNL     1       1.364   9.713  18.147  0.00  0.00    +0.000 A 
ATOM     13  C   UNL     1       2.213   8.686  17.743  0.00  0.00    +0.000 A 
ENDBRANCH   3   7
BRANCH   1  15
ATOM     14  O   UNL     1       7.684   6.632  16.291  0.00  0.00    +0.000 OA
ATOM     15  C   UNL     1       7.066   7.130  17.218  0.00  0.00    +0.000 C 
ATOM     16  N   UNL     1       7.384   8.325  17.799  0.00  0.00    +0.000 N 
ATOM     17  H   UNL     1       6.801   8.665  18.552  0.00  0.00    +0.000 HD
BRANCH  16  18
ATOM     18  C   UNL     1       8.511   9.114  17.363  0.00  0.00    +0.000 C 
BRANCH  18  19
ATOM     19  C   UNL     1       8.806  10.239  18.321  0.00  0.00    +0.000 A 
ATOM     20  C   UNL     1       9.150   9.973  19.654  0.00  0.00    +0.000 A 
ATOM     21  C   UNL     1       9.430  11.021  20.534  0.00  0.00    +0.000 A 
ATOM     22  C   UNL     1       9.363  12.342  20.094  0.00  0.00    +0.000 A 
ATOM     23  C   UNL     1       9.015  12.618  18.773  0.00  0.00    +0.000 A 
ATOM     24  C   UNL     1       8.730  11.572  17.893  0.00  0.00    +0.000 A 
ENDBRANCH  18  19
ENDBRANCH  16  18
ENDBRANCH   1  15
BRANCH   5  25
ATOM     25  O   UNL     1       5.048   3.555  19.772  0.00  0.00    +0.000 OA
BRANCH  25  26
ATOM     26  C   UNL     1       4.354   2.374  19.358  0.00  0.00    +0.000 C 
BRANCH  26  27
ATOM     27  C   UNL     1       3.306   1.983  20.379  0.00  0.00    +0.000 C 
BRANCH  27  28
ATOM     28  C   UNL     1       1.926   2.422  19.899  0.00  0.00    +0.000 C 
BRANCH  28  29
ATOM     29  C   UNL     1       1.144   3.129  20.988  0.00  0.00    +0.000 C 
BRANCH  29  30
ATOM     30  O   UNL     1       1.476   2.558  22.246  0.00  0.00    +0.000 OA
ATOM     31  H   UNL     1       2.428   2.706  22.389  0.00  0.00    +0.000 HD
ENDBRANCH  29  30
ENDBRANCH  28  29
ENDBRANCH  27  28
ENDBRANCH  26  27
ENDBRANCH  25  26
ENDBRANCH   5  25
TORSDOF 10
ENDMDL
