MODEL 1
REMARK VINA RESULT:      -7.8      0.000      0.000
REMARK  Name = 
REMARK  4 active torsions:
REMARK  status: ('A' for Active; 'I' for Inactive)
REMARK    1  A    between atoms: C_1  and  C_2
REMARK    2  A    between atoms: N_6  and  C_7
REMARK    3  A    between atoms: C_7  and  C_9
REMARK    4  A    between atoms: N_14  and  C_15
REMARK                            x       y       z     vdW  Elec       q    Type
REMARK                         _______ _______ _______ _____ _____    ______ ____
ROOT
ATOM      1  C   UNL     1       0.912   3.908  20.456  0.00  0.00    +0.000 C 
ATOM      2  C   UNL     1       2.371   3.911  20.110  0.00  0.00    +0.000 A 
ATOM      3  C   UNL     1       3.071   2.765  20.180  0.00  0.00    +0.000 A 
ATOM      4  S   UNL     1       4.695   2.950  19.630  0.00  0.00    +0.000 S 
ATOM      5  C   UNL     1       4.447   4.689  19.273  0.00  0.00    +0.000 A 
ATOM      6  N   UNL     1       5.372   5.485  18.852  0.00  0.00    +0.000 NA
ATOM      7  N   UNL     1       3.101   5.025  19.608  0.00  0.00    +0.000 N 
ENDROOT
BRANCH   7   8
ATOM      8  C   UNL     1       2.594   6.367  19.510  0.00  0.00    +0.000 A 
ATOM      9  C   UNL     1       1.864   6.919  20.587  0.00  0.00    +0.000 A 
ATOM     10  C   UNL     1       1.321   8.212  20.550  0.00  0.00    +0.000 A 
ATOM     11 CL   UNL     1       0.311   8.697  21.867  0.00  0.00    +0.000 Cl
ATOM     12  C   UNL     1       1.585   9.044  19.468  0.00  0.00    +0.000 A 
ATOM     13 CL   UNL     1       0.998  10.664  19.372  0.00  0.00    +0.000 Cl
ATOM     14  C   UNL     1       2.329   8.550  18.400  0.00  0.00    +0.000 A 
ATOM     15  C   UNL     1       2.776   7.216  18.390  0.00  0.00    +0.000 A 
ATOM     16 CL   UNL     1       3.363   6.672  16.851  0.00  0.00    +0.000 Cl
ENDBRANCH   7   8
BRANCH   6  17
ATOM     17  C   UNL     1       6.583   5.040  18.388  0.00  0.00    +0.000 C 
ATOM     18  O   UNL     1       7.581   4.779  19.052  0.00  0.00    +0.000 OA
BRANCH  17  19
ATOM     19  C   UNL     1       6.519   4.752  16.962  0.00  0.00    +0.000 A 
ATOM     20  C   UNL     1       5.617   3.993  16.238  0.00  0.00    +0.000 A 
ATOM     21  C   UNL     1       5.996   4.085  14.878  0.00  0.00    +0.000 A 
ATOM     22  C   UNL     1       7.106   4.893  14.846  0.00  0.00    +0.000 A 
ATOM     23  O   UNL     1       7.438   5.300  16.098  0.00  0.00    +0.000 OA
ENDBRANCH  17  19
ENDBRANCH   6  17
TORSDOF 3
ENDMDL
MODEL 2
REMARK VINA RESULT:      -7.8      1.621      2.180
REMARK  Name = 
REMARK  4 active torsions:
REMARK  status: ('A' for Active; 'I' for Inactive)
REMARK    1  A    between atoms: C_1  and  C_2
REMARK    2  A    between atoms: N_6  and  C_7
REMARK    3  A    between atoms: C_7  and  C_9
REMARK    4  A    between atoms: N_14  and  C_15
REMARK                            x       y       z     vdW  Elec       q    Type
REMARK                         _______ _______ _______ _____ _____    ______ ____
ROOT
ATOM      1  C   UNL     1       0.666   3.046  18.650  0.00  0.00    +0.000 C 
ATOM      2  C   UNL     1       2.148   3.134  18.438  0.00  0.00    +0.000 A 
ATOM      3  C   UNL     1       2.816   2.066  17.965  0.00  0.00    +0.000 A 
ATOM      4  S   UNL     1       4.481   2.404  17.678  0.00  0.00    +0.000 S 
ATOM      5  C   UNL     1       4.301   4.102  18.225  0.00  0.00    +0.000 A 
ATOM      6  N   UNL     1       5.275   4.945  18.314  0.00  0.00    +0.000 NA
ATOM      7  N   UNL     1       2.941   4.305  18.604  0.00  0.00    +0.000 N 
ENDROOT
BRANCH   7   8
ATOM      8  C   UNL     1       2.472   5.545  19.161  0.00  0.00    +0.000 A 
ATOM      9  C   UNL     1       2.452   6.708  18.358  0.00  0.00    +0.000 A 
ATOM     10  C   UNL     1       2.030   7.956  18.842  0.00  0.00    +0.000 A 
ATOM     11 CL   UNL     1       2.213   9.325  17.803  0.00  0.00    +0.000 Cl
ATOM     12  C   UNL     1       1.507   8.060  20.126  0.00  0.00    +0.000 A 
ATOM     13 CL   UNL     1       0.919   9.547  20.777  0.00  0.00    +0.000 Cl
ATOM     14  C   UNL     1       1.479   6.930  20.939  0.00  0.00    +0.000 A 
ATOM     15  C   UNL     1       2.007   5.706  20.490  0.00  0.00    +0.000 A 
ATOM     16 CL   UNL     1       2.217   4.519  21.737  0.00  0.00    +0.000 Cl
ENDBRANCH   7   8
BRANCH   6  17
ATOM     17  C   UNL     1       6.508   4.720  17.762  0.00  0.00    +0.000 C 
ATOM     18  O   UNL     1       7.522   4.341  18.341  0.00  0.00    +0.000 OA
BRANCH  17  19
ATOM     19  C   UNL     1       6.459   4.840  16.311  0.00  0.00    +0.000 A 
ATOM     20  C   UNL     1       5.433   5.250  15.479  0.00  0.00    +0.000 A 
ATOM     21  C   UNL     1       5.937   5.221  14.157  0.00  0.00    +0.000 A 
ATOM     22  C   UNL     1       7.240   4.795  14.255  0.00  0.00    +0.000 A 
ATOM     23  O   UNL     1       7.568   4.555  15.551  0.00  0.00    +0.000 OA
ENDBRANCH  17  19
ENDBRANCH   6  17
TORSDOF 3
ENDMDL
MODEL 3
REMARK VINA RESULT:      -7.7      2.448      3.286
REMARK  Name = 
REMARK  4 active torsions:
REMARK  status: ('A' for Active; 'I' for Inactive)
REMARK    1  A    between atoms: C_1  and  C_2
REMARK    2  A    between atoms: N_6  and  C_7
REMARK    3  A    between atoms: C_7  and  C_9
REMARK    4  A    between atoms: N_14  and  C_15
REMARK                            x       y       z     vdW  Elec       q    Type
REMARK                         _______ _______ _______ _____ _____    ______ ____
ROOT
ATOM      1  C   UNL     1       1.154   3.683  18.092  0.00  0.00    +0.000 C 
ATOM      2  C   UNL     1       2.561   4.090  17.773  0.00  0.00    +0.000 A 
ATOM      3  C   UNL     1       3.358   3.247  17.093  0.00  0.00    +0.000 A 
ATOM      4  S   UNL     1       4.891   3.943  16.721  0.00  0.00    +0.000 S 
ATOM      5  C   UNL     1       4.463   5.485  17.529  0.00  0.00    +0.000 A 
ATOM      6  N   UNL     1       5.267   6.486  17.660  0.00  0.00    +0.000 NA
ATOM      7  N   UNL     1       3.138   5.363  18.045  0.00  0.00    +0.000 N 
ENDROOT
BRANCH   7   8
ATOM      8  C   UNL     1       2.513   6.403  18.818  0.00  0.00    +0.000 A 
ATOM      9  C   UNL     1       2.317   7.679  18.242  0.00  0.00    +0.000 A 
ATOM     10  C   UNL     1       1.736   8.746  18.945  0.00  0.00    +0.000 A 
ATOM     11 CL   UNL     1       1.709  10.294  18.177  0.00  0.00    +0.000 Cl
ATOM     12  C   UNL     1       1.228   8.539  20.222  0.00  0.00    +0.000 A 
ATOM     13 CL   UNL     1       0.453   9.785  21.131  0.00  0.00    +0.000 Cl
ATOM     14  C   UNL     1       1.371   7.287  20.813  0.00  0.00    +0.000 A 
ATOM     15  C   UNL     1       2.055   6.252  20.150  0.00  0.00    +0.000 A 
ATOM     16 CL   UNL     1       2.451   4.897  21.159  0.00  0.00    +0.000 Cl
ENDBRANCH   7   8
BRANCH   6  17
ATOM     17  C   UNL     1       6.453   6.583  16.980  0.00  0.00    +0.000 C 
ATOM     18  O   UNL     1       6.743   6.047  15.915  0.00  0.00    +0.000 OA
BRANCH  17  19
ATOM     19  C   UNL     1       7.334   7.558  17.607  0.00  0.00    +0.000 A 
ATOM     20  C   UNL     1       8.272   7.407  18.612  0.00  0.00    +0.000 A 
ATOM     21  C   UNL     1       8.878   8.670  18.806  0.00  0.00    +0.000 A 
ATOM     22  C   UNL     1       8.277   9.523  17.912  0.00  0.00    +0.000 A 
ATOM     23  O   UNL     1       7.338   8.867  17.183  0.00  0.00    +0.000 OA
ENDBRANCH  17  19
ENDBRANCH   6  17
TORSDOF 3
ENDMDL
MODEL 4
REMARK VINA RESULT:      -7.5      3.617      5.856
REMARK  Name = 
REMARK  4 active torsions:
REMARK  status: ('A' for Active; 'I' for Inactive)
REMARK    1  A    between atoms: C_1  and  C_2
REMARK    2  A    between atoms: N_6  and  C_7
REMARK    3  A    between atoms: C_7  and  C_9
REMARK    4  A    between atoms: N_14  and  C_15
REMARK                            x       y       z     vdW  Elec       q    Type
REMARK                         _______ _______ _______ _____ _____    ______ ____
ROOT
ATOM      1  C   UNL     1       4.504   1.729  19.945  0.00  0.00    +0.000 C 
ATOM      2  C   UNL     1       3.627   2.926  20.157  0.00  0.00    +0.000 A 
ATOM      3  C   UNL     1       2.727   2.921  21.157  0.00  0.00    +0.000 A 
ATOM      4  S   UNL     1       1.904   4.428  21.311  0.00  0.00    +0.000 S 
ATOM      5  C   UNL     1       2.814   5.142  19.941  0.00  0.00    +0.000 A 
ATOM      6  N   UNL     1       2.612   6.328  19.472  0.00  0.00    +0.000 NA
ATOM      7  N   UNL     1       3.712   4.153  19.440  0.00  0.00    +0.000 N 
ENDROOT
BRANCH   7   8
ATOM      8  C   UNL     1       4.543   4.379  18.288  0.00  0.00    +0.000 A 
ATOM      9  C   UNL     1       5.647   5.257  18.384  0.00  0.00    +0.000 A 
ATOM     10  C   UNL     1       6.485   5.542  17.296  0.00  0.00    +0.000 A 
ATOM     11 CL   UNL     1       7.695   6.758  17.509  0.00  0.00    +0.000 Cl
ATOM     12  C   UNL     1       6.311   4.867  16.092  0.00  0.00    +0.000 A 
ATOM     13 CL   UNL     1       7.332   5.123  14.723  0.00  0.00    +0.000 Cl
ATOM     14  C   UNL     1       5.255   3.970  15.966  0.00  0.00    +0.000 A 
ATOM     15  C   UNL     1       4.349   3.771  17.023  0.00  0.00    +0.000 A 
ATOM     16 CL   UNL     1       2.910   2.909  16.578  0.00  0.00    +0.000 Cl
ENDBRANCH   7   8
BRANCH   6  17
ATOM     17  C   UNL     1       1.859   7.269  20.125  0.00  0.00    +0.000 C 
ATOM     18  O   UNL     1       1.428   7.208  21.273  0.00  0.00    +0.000 OA
BRANCH  17  19
ATOM     19  C   UNL     1       1.737   8.482  19.329  0.00  0.00    +0.000 A 
ATOM     20  C   UNL     1       2.242   8.790  18.078  0.00  0.00    +0.000 A 
ATOM     21  C   UNL     1       1.783  10.089  17.756  0.00  0.00    +0.000 A 
ATOM     22  C   UNL     1       1.025  10.502  18.825  0.00  0.00    +0.000 A 
ATOM     23  O   UNL     1       0.992   9.543  19.786  0.00  0.00    +0.000 OA
ENDBRANCH  17  19
ENDBRANCH   6  17
TORSDOF 3
ENDMDL
MODEL 5
REMARK VINA RESULT:      -7.4      3.443      6.081
REMARK  Name = 
REMARK  4 active torsions:
REMARK  status: ('A' for Active; 'I' for Inactive)
REMARK    1  A    between atoms: C_1  and  C_2
REMARK    2  A    between atoms: N_6  and  C_7
REMARK    3  A    between atoms: C_7  and  C_9
REMARK    4  A    between atoms: N_14  and  C_15
REMARK                            x       y       z     vdW  Elec       q    Type
REMARK                         _______ _______ _______ _____ _____    ______ ____
ROOT
ATOM      1  C   UNL     1       3.726   1.395  18.249  0.00  0.00    +0.000 C 
ATOM      2  C   UNL     1       3.050   2.649  18.716  0.00  0.00    +0.000 A 
ATOM      3  C   UNL     1       1.998   2.565  19.549  0.00  0.00    +0.000 A 
ATOM      4  S   UNL     1       1.440   4.113  20.064  0.00  0.00    +0.000 S 
ATOM      5  C   UNL     1       2.694   4.960  19.104  0.00  0.00    +0.000 A 
ATOM      6  N   UNL     1       2.793   6.244  19.007  0.00  0.00    +0.000 NA
ATOM      7  N   UNL     1       3.480   3.977  18.432  0.00  0.00    +0.000 N 
ENDROOT
BRANCH   7   8
ATOM      8  C   UNL     1       4.532   4.325  17.516  0.00  0.00    +0.000 A 
ATOM      9  C   UNL     1       4.381   4.042  16.139  0.00  0.00    +0.000 A 
ATOM     10  C   UNL     1       5.376   4.333  15.193  0.00  0.00    +0.000 A 
ATOM     11 CL   UNL     1       5.129   3.783  13.573  0.00  0.00    +0.000 Cl
ATOM     12  C   UNL     1       6.520   5.022  15.580  0.00  0.00    +0.000 A 
ATOM     13 CL   UNL     1       7.765   5.462  14.468  0.00  0.00    +0.000 Cl
ATOM     14  C   UNL     1       6.693   5.348  16.922  0.00  0.00    +0.000 A 
ATOM     15  C   UNL     1       5.746   4.955  17.886  0.00  0.00    +0.000 A 
ATOM     16 CL   UNL     1       6.285   5.124  19.526  0.00  0.00    +0.000 Cl
ENDBRANCH   7   8
BRANCH   6  17
ATOM     17  C   UNL     1       2.113   7.107  19.825  0.00  0.00    +0.000 C 
ATOM     18  O   UNL     1       1.840   6.946  21.010  0.00  0.00    +0.000 OA
BRANCH  17  19
ATOM     19  C   UNL     1       1.858   8.372  19.149  0.00  0.00    +0.000 A 
ATOM     20  C   UNL     1       2.279   8.831  17.914  0.00  0.00    +0.000 A 
ATOM     21  C   UNL     1       1.704  10.111  17.731  0.00  0.00    +0.000 A 
ATOM     22  C   UNL     1       0.966  10.363  18.862  0.00  0.00    +0.000 A 
ATOM     23  O   UNL     1       1.054   9.323  19.731  0.00  0.00    +0.000 OA
ENDBRANCH  17  19
ENDBRANCH   6  17
TORSDOF 3
ENDMDL
MODEL 6
REMARK VINA RESULT:      -7.1      2.339      3.120
REMARK  Name = 
REMARK  4 active torsions:
REMARK  status: ('A' for Active; 'I' for Inactive)
REMARK    1  A    between atoms: C_1  and  C_2
REMARK    2  A    between atoms: N_6  and  C_7
REMARK    3  A    between atoms: C_7  and  C_9
REMARK    4  A    between atoms: N_14  and  C_15
REMARK                            x       y       z     vdW  Elec       q    Type
REMARK                         _______ _______ _______ _____ _____    ______ ____
ROOT
ATOM      1  C   UNL     1       1.146   3.841  17.543  0.00  0.00    +0.000 C 
ATOM      2  C   UNL     1       2.633   4.007  17.642  0.00  0.00    +0.000 A 
ATOM      3  C   UNL     1       3.442   3.076  17.105  0.00  0.00    +0.000 A 
ATOM      4  S   UNL     1       5.108   3.507  17.216  0.00  0.00    +0.000 S 
ATOM      5  C   UNL     1       4.724   5.050  18.044  0.00  0.00    +0.000 A 
ATOM      6  N   UNL     1       5.609   5.880  18.483  0.00  0.00    +0.000 NA
ATOM      7  N   UNL     1       3.306   5.137  18.186  0.00  0.00    +0.000 N 
ENDROOT
BRANCH   7   8
ATOM      8  C   UNL     1       2.667   6.224  18.877  0.00  0.00    +0.000 A 
ATOM      9  C   UNL     1       2.539   7.479  18.239  0.00  0.00    +0.000 A 
ATOM     10  C   UNL     1       1.948   8.589  18.861  0.00  0.00    +0.000 A 
ATOM     11 CL   UNL     1       2.008  10.103  18.030  0.00  0.00    +0.000 Cl
ATOM     12  C   UNL     1       1.361   8.449  20.114  0.00  0.00    +0.000 A 
ATOM     13 CL   UNL     1       0.568   9.752  20.923  0.00  0.00    +0.000 Cl
ATOM     14  C   UNL     1       1.435   7.220  20.763  0.00  0.00    +0.000 A 
ATOM     15  C   UNL     1       2.127   6.141  20.184  0.00  0.00    +0.000 A 
ATOM     16 CL   UNL     1       2.426   4.821  21.270  0.00  0.00    +0.000 Cl
ENDBRANCH   7   8
BRANCH   6  17
ATOM     17  C   UNL     1       6.935   5.804  18.145  0.00  0.00    +0.000 C 
ATOM     18  O   UNL     1       7.555   4.803  17.799  0.00  0.00    +0.000 OA
BRANCH  17  19
ATOM     19  C   UNL     1       7.535   7.129  18.093  0.00  0.00    +0.000 A 
ATOM     20  C   UNL     1       7.247   8.215  17.286  0.00  0.00    +0.000 A 
ATOM     21  C   UNL     1       8.104   9.267  17.686  0.00  0.00    +0.000 A 
ATOM     22  C   UNL     1       8.868   8.767  18.713  0.00  0.00    +0.000 A 
ATOM     23  O   UNL     1       8.539   7.474  18.967  0.00  0.00    +0.000 OA
ENDBRANCH  17  19
ENDBRANCH   6  17
TORSDOF 3
ENDMDL
MODEL 7
REMARK VINA RESULT:      -7.0      5.676      8.303
REMARK  Name = 
REMARK  4 active torsions:
REMARK  status: ('A' for Active; 'I' for Inactive)
REMARK    1  A    between atoms: C_1  and  C_2
REMARK    2  A    between atoms: N_6  and  C_7
REMARK    3  A    between atoms: C_7  and  C_9
REMARK    4  A    between atoms: N_14  and  C_15
REMARK                            x       y       z     vdW  Elec       q    Type
REMARK                         _______ _______ _______ _____ _____    ______ ____
ROOT
ATOM      1  C   UNL     1      -1.986   9.998  18.033  0.00  0.00    +0.000 C 
ATOM      2  C   UNL     1      -1.106  11.133  18.460  0.00  0.00    +0.000 A 
ATOM      3  C   UNL     1      -1.540  12.399  18.320  0.00  0.00    +0.000 A 
ATOM      4  S   UNL     1      -0.438  13.551  18.977  0.00  0.00    +0.000 S 
ATOM      5  C   UNL     1       0.705  12.268  19.486  0.00  0.00    +0.000 A 
ATOM      6  N   UNL     1       1.853  12.490  20.035  0.00  0.00    +0.000 NA
ATOM      7  N   UNL     1       0.155  11.006  19.109  0.00  0.00    +0.000 N 
ENDROOT
BRANCH   7   8
ATOM      8  C   UNL     1       0.859   9.768  19.308  0.00  0.00    +0.000 A 
ATOM      9  C   UNL     1       1.704   9.273  18.288  0.00  0.00    +0.000 A 
ATOM     10  C   UNL     1       2.402   8.061  18.405  0.00  0.00    +0.000 A 
ATOM     11 CL   UNL     1       3.266   7.495  17.019  0.00  0.00    +0.000 Cl
ATOM     12  C   UNL     1       2.363   7.352  19.600  0.00  0.00    +0.000 A 
ATOM     13 CL   UNL     1       3.235   5.881  19.840  0.00  0.00    +0.000 Cl
ATOM     14  C   UNL     1       1.569   7.822  20.641  0.00  0.00    +0.000 A 
ATOM     15  C   UNL     1       0.782   8.977  20.481  0.00  0.00    +0.000 A 
ATOM     16 CL   UNL     1      -0.403   9.212  21.727  0.00  0.00    +0.000 Cl
ENDBRANCH   7   8
BRANCH   6  17
ATOM     17  C   UNL     1       2.219  13.718  20.522  0.00  0.00    +0.000 C 
ATOM     18  O   UNL     1       2.190  14.091  21.691  0.00  0.00    +0.000 OA
BRANCH  17  19
ATOM     19  C   UNL     1       2.820  14.534  19.476  0.00  0.00    +0.000 A 
ATOM     20  C   UNL     1       2.554  15.834  19.087  0.00  0.00    +0.000 A 
ATOM     21  C   UNL     1       3.463  16.149  18.049  0.00  0.00    +0.000 A 
ATOM     22  C   UNL     1       4.232  15.026  17.861  0.00  0.00    +0.000 A 
ATOM     23  O   UNL     1       3.852  14.039  18.713  0.00  0.00    +0.000 OA
ENDBRANCH  17  19
ENDBRANCH   6  17
TORSDOF 3
ENDMDL
MODEL 8
REMARK VINA RESULT:      -6.7      3.698      6.538
REMARK  Name = 
REMARK  4 active torsions:
REMARK  status: ('A' for Active; 'I' for Inactive)
REMARK    1  A    between atoms: C_1  and  C_2
REMARK    2  A    between atoms: N_6  and  C_7
REMARK    3  A    between atoms: C_7  and  C_9
REMARK    4  A    between atoms: N_14  and  C_15
REMARK                            x       y       z     vdW  Elec       q    Type
REMARK                         _______ _______ _______ _____ _____    ______ ____
ROOT
ATOM      1  C   UNL     1       2.424   4.707  21.139  0.00  0.00    +0.000 C 
ATOM      2  C   UNL     1       2.028   6.041  20.582  0.00  0.00    +0.000 A 
ATOM      3  C   UNL     1       1.238   6.855  21.306  0.00  0.00    +0.000 A 
ATOM      4  S   UNL     1       0.997   8.385  20.549  0.00  0.00    +0.000 S 
ATOM      5  C   UNL     1       2.021   7.930  19.150  0.00  0.00    +0.000 A 
ATOM      6  N   UNL     1       2.217   8.679  18.117  0.00  0.00    +0.000 NA
ATOM      7  N   UNL     1       2.494   6.600  19.359  0.00  0.00    +0.000 N 
ENDROOT
BRANCH   7   8
ATOM      8  C   UNL     1       3.288   5.902  18.383  0.00  0.00    +0.000 A 
ATOM      9  C   UNL     1       4.602   6.343  18.107  0.00  0.00    +0.000 A 
ATOM     10  C   UNL     1       5.423   5.725  17.152  0.00  0.00    +0.000 A 
ATOM     11 CL   UNL     1       6.943   6.469  16.797  0.00  0.00    +0.000 Cl
ATOM     12  C   UNL     1       4.993   4.567  16.514  0.00  0.00    +0.000 A 
ATOM     13 CL   UNL     1       5.965   3.719  15.366  0.00  0.00    +0.000 Cl
ATOM     14  C   UNL     1       3.717   4.080  16.782  0.00  0.00    +0.000 A 
ATOM     15  C   UNL     1       2.854   4.767  17.655  0.00  0.00    +0.000 A 
ATOM     16 CL   UNL     1       1.204   4.230  17.596  0.00  0.00    +0.000 Cl
ENDBRANCH   7   8
BRANCH   6  17
ATOM     17  C   UNL     1       1.873  10.006  18.083  0.00  0.00    +0.000 C 
ATOM     18  O   UNL     1       2.628  10.965  17.957  0.00  0.00    +0.000 OA
BRANCH  17  19
ATOM     19  C   UNL     1       0.426  10.167  18.063  0.00  0.00    +0.000 A 
ATOM     20  C   UNL     1      -0.390  11.046  18.752  0.00  0.00    +0.000 A 
ATOM     21  C   UNL     1      -1.716  10.803  18.322  0.00  0.00    +0.000 A 
ATOM     22  C   UNL     1      -1.637   9.790  17.397  0.00  0.00    +0.000 A 
ATOM     23  O   UNL     1      -0.349   9.392  17.233  0.00  0.00    +0.000 OA
ENDBRANCH  17  19
ENDBRANCH   6  17
TORSDOF 3
ENDMDL
MODEL 9
REMARK VINA RESULT:      -6.7      6.235      9.006
REMARK  Name = 
REMARK  4 active torsions:
REMARK  status: ('A' for Active; 'I' for Inactive)
REMARK    1  A    between atoms: C_1  and  C_2
REMARK    2  A    between atoms: N_6  and  C_7
REMARK    3  A    between atoms: C_7  and  C_9
REMARK    4  A    between atoms: N_14  and  C_15
REMARK                            x       y       z     vdW  Elec       q    Type
REMARK                         _______ _______ _______ _____ _____    ______ ____
ROOT
ATOM      1  C   UNL     1       2.280  13.029  20.759  0.00  0.00    +0.000 C 
ATOM      2  C   UNL     1       0.838  12.951  20.355  0.00  0.00    +0.000 A 
ATOM      3  C   UNL     1       0.123  14.084  20.227  0.00  0.00    +0.000 A 
ATOM      4  S   UNL     1      -1.472  13.794  19.642  0.00  0.00    +0.000 S 
ATOM      5  C   UNL     1      -1.191  12.026  19.553  0.00  0.00    +0.000 A 
ATOM      6  N   UNL     1      -2.088  11.162  19.213  0.00  0.00    +0.000 NA
ATOM      7  N   UNL     1       0.142  11.765  19.990  0.00  0.00    +0.000 N 
ENDROOT
BRANCH   7   8
ATOM      8  C   UNL     1       0.667  10.431  20.110  0.00  0.00    +0.000 A 
ATOM      9  C   UNL     1       1.332   9.841  19.011  0.00  0.00    +0.000 A 
ATOM     10  C   UNL     1       1.848   8.536  19.050  0.00  0.00    +0.000 A 
ATOM     11 CL   UNL     1       2.488   7.882  17.584  0.00  0.00    +0.000 Cl
ATOM     12  C   UNL     1       1.811   7.812  20.236  0.00  0.00    +0.000 A 
ATOM     13 CL   UNL     1       2.470   6.223  20.379  0.00  0.00    +0.000 Cl
ATOM     14  C   UNL     1       1.194   8.370  21.351  0.00  0.00    +0.000 A 
ATOM     15  C   UNL     1       0.578   9.632  21.277  0.00  0.00    +0.000 A 
ATOM     16 CL   UNL     1      -0.440  10.011  22.630  0.00  0.00    +0.000 Cl
ENDBRANCH   7   8
BRANCH   6  17
ATOM     17  C   UNL     1      -3.282  11.515  18.638  0.00  0.00    +0.000 C 
ATOM     18  O   UNL     1      -4.142  12.253  19.109  0.00  0.00    +0.000 OA
BRANCH  17  19
ATOM     19  C   UNL     1      -3.369  11.016  17.273  0.00  0.00    +0.000 A 
ATOM     20  C   UNL     1      -4.204  11.383  16.233  0.00  0.00    +0.000 A 
ATOM     21  C   UNL     1      -3.831  10.609  15.110  0.00  0.00    +0.000 A 
ATOM     22  C   UNL     1      -2.791   9.813  15.524  0.00  0.00    +0.000 A 
ATOM     23  O   UNL     1      -2.503  10.043  16.830  0.00  0.00    +0.000 OA
ENDBRANCH  17  19
ENDBRANCH   6  17
TORSDOF 3
ENDMDL
