MODEL 1
REMARK VINA RESULT:      -8.1      0.000      0.000
REMARK  Name = 
REMARK  6 active torsions:
REMARK  status: ('A' for Active; 'I' for Inactive)
REMARK    1  A    between atoms: C_1  and  C_2
REMARK    2  A    between atoms: C_5  and  C_6
REMARK    3  A    between atoms: C_6  and  C_8
REMARK    4  A    between atoms: C_11  and  C_12
REMARK    5  A    between atoms: N_14  and  C_15
REMARK    6  A    between atoms: C_15  and  C_16
REMARK                            x       y       z     vdW  Elec       q    Type
REMARK                         _______ _______ _______ _____ _____    ______ ____
ROOT
ATOM      1  C   UNL     1       1.511   9.049  19.117  0.00  0.00    +0.000 A 
ATOM      2  C   UNL     1       1.457   8.458  20.367  0.00  0.00    +0.000 A 
ATOM      3  N   UNL     1       2.043   7.223  20.286  0.00  0.00    +0.000 N 
ATOM      4  C   UNL     1       2.480   6.977  19.003  0.00  0.00    +0.000 A 
ATOM      5  C   UNL     1       2.122   8.087  18.256  0.00  0.00    +0.000 A 
ATOM      6  H   UNL     1       2.154   6.564  21.049  0.00  0.00    +0.000 HD
ENDROOT
BRANCH   4   7
ATOM      7  C   UNL     1       3.160   5.746  18.660  0.00  0.00    +0.000 C 
ATOM      8  O   UNL     1       2.544   4.747  18.297  0.00  0.00    +0.000 OA
ATOM      9  N   UNL     1       4.525   5.776  18.782  0.00  0.00    +0.000 N 
ATOM     10  H   UNL     1       4.977   6.624  19.090  0.00  0.00    +0.000 HD
BRANCH   9  11
ATOM     11  C   UNL     1       5.363   4.635  18.489  0.00  0.00    +0.000 C 
BRANCH  11  12
ATOM     12  C   UNL     1       5.899   4.696  17.088  0.00  0.00    +0.000 A 
ATOM     13  C   UNL     1       5.326   3.953  16.051  0.00  0.00    +0.000 A 
ATOM     14  C   UNL     1       5.853   4.038  14.765  0.00  0.00    +0.000 A 
ATOM     15  C   UNL     1       6.946   4.862  14.558  0.00  0.00    +0.000 A 
ATOM     16  N   UNL     1       7.537   5.583  15.534  0.00  0.00    +0.000 NA
ATOM     17  C   UNL     1       7.003   5.481  16.773  0.00  0.00    +0.000 A 
ENDBRANCH  11  12
ENDBRANCH   9  11
ENDBRANCH   4   7
BRANCH   1  18
ATOM     18  C   UNL     1       1.012  10.363  18.715  0.00  0.00    +0.000 C 
ATOM     19  O   UNL     1       1.779  11.313  18.568  0.00  0.00    +0.000 OA
BRANCH  18  24
ATOM     20  C   UNL     1      -4.634  11.276  17.735  0.00  0.00    +0.000 C 
ATOM     21  C   UNL     1      -3.179  11.025  18.001  0.00  0.00    +0.000 A 
ATOM     22  C   UNL     1      -2.481  10.025  17.316  0.00  0.00    +0.000 A 
ATOM     23  C   UNL     1      -1.123   9.807  17.569  0.00  0.00    +0.000 A 
ATOM     24  C   UNL     1      -0.448  10.585  18.519  0.00  0.00    +0.000 A 
ATOM     25  C   UNL     1      -1.141  11.599  19.192  0.00  0.00    +0.000 A 
ATOM     26  C   UNL     1      -2.499  11.809  18.942  0.00  0.00    +0.000 A 
ENDBRANCH  18  24
ENDBRANCH   1  18
TORSDOF 5
ENDMDL
MODEL 2
REMARK VINA RESULT:      -8.0      5.341      8.497
REMARK  Name = 
REMARK  6 active torsions:
REMARK  status: ('A' for Active; 'I' for Inactive)
REMARK    1  A    between atoms: C_1  and  C_2
REMARK    2  A    between atoms: C_5  and  C_6
REMARK    3  A    between atoms: C_6  and  C_8
REMARK    4  A    between atoms: C_11  and  C_12
REMARK    5  A    between atoms: N_14  and  C_15
REMARK    6  A    between atoms: C_15  and  C_16
REMARK                            x       y       z     vdW  Elec       q    Type
REMARK                         _______ _______ _______ _____ _____    ______ ____
ROOT
ATOM      1  C   UNL     1       7.283   6.915  17.449  0.00  0.00    +0.000 A 
ATOM      2  C   UNL     1       7.958   6.524  18.592  0.00  0.00    +0.000 A 
ATOM      3  N   UNL     1       8.597   7.619  19.112  0.00  0.00    +0.000 N 
ATOM      4  C   UNL     1       8.365   8.730  18.331  0.00  0.00    +0.000 A 
ATOM      5  C   UNL     1       7.582   8.300  17.272  0.00  0.00    +0.000 A 
ATOM      6  H   UNL     1       9.165   7.636  19.951  0.00  0.00    +0.000 HD
ENDROOT
BRANCH   4   7
ATOM      7  C   UNL     1       8.911  10.025  18.680  0.00  0.00    +0.000 C 
ATOM      8  O   UNL     1       8.943  10.951  17.875  0.00  0.00    +0.000 OA
ATOM      9  N   UNL     1       9.395  10.131  19.959  0.00  0.00    +0.000 N 
ATOM     10  H   UNL     1       9.347   9.334  20.575  0.00  0.00    +0.000 HD
BRANCH   9  11
ATOM     11  C   UNL     1       9.982  11.347  20.475  0.00  0.00    +0.000 C 
BRANCH  11  12
ATOM     12  C   UNL     1       8.980  12.152  21.250  0.00  0.00    +0.000 A 
ATOM     13  C   UNL     1       8.392  11.659  22.420  0.00  0.00    +0.000 A 
ATOM     14  C   UNL     1       7.466  12.437  23.109  0.00  0.00    +0.000 A 
ATOM     15  C   UNL     1       7.151  13.685  22.601  0.00  0.00    +0.000 A 
ATOM     16  N   UNL     1       7.684  14.190  21.469  0.00  0.00    +0.000 NA
ATOM     17  C   UNL     1       8.581  13.413  20.820  0.00  0.00    +0.000 A 
ENDBRANCH  11  12
ENDBRANCH   9  11
ENDBRANCH   4   7
BRANCH   1  18
ATOM     18  C   UNL     1       6.465   6.096  16.557  0.00  0.00    +0.000 C 
ATOM     19  O   UNL     1       6.816   5.877  15.398  0.00  0.00    +0.000 OA
BRANCH  18  24
ATOM     20  C   UNL     1       1.341   3.895  18.163  0.00  0.00    +0.000 C 
ATOM     21  C   UNL     1       2.674   4.458  17.765  0.00  0.00    +0.000 A 
ATOM     22  C   UNL     1       3.652   3.650  17.174  0.00  0.00    +0.000 A 
ATOM     23  C   UNL     1       4.887   4.190  16.802  0.00  0.00    +0.000 A 
ATOM     24  C   UNL     1       5.161   5.546  17.024  0.00  0.00    +0.000 A 
ATOM     25  C   UNL     1       4.176   6.360  17.599  0.00  0.00    +0.000 A 
ATOM     26  C   UNL     1       2.946   5.815  17.976  0.00  0.00    +0.000 A 
ENDBRANCH  18  24
ENDBRANCH   1  18
TORSDOF 5
ENDMDL
MODEL 3
REMARK VINA RESULT:      -8.0      0.700      1.209
REMARK  Name = 
REMARK  6 active torsions:
REMARK  status: ('A' for Active; 'I' for Inactive)
REMARK    1  A    between atoms: C_1  and  C_2
REMARK    2  A    between atoms: C_5  and  C_6
REMARK    3  A    between atoms: C_6  and  C_8
REMARK    4  A    between atoms: C_11  and  C_12
REMARK    5  A    between atoms: N_14  and  C_15
REMARK    6  A    between atoms: C_15  and  C_16
REMARK                            x       y       z     vdW  Elec       q    Type
REMARK                         _______ _______ _______ _____ _____    ______ ____
ROOT
ATOM      1  C   UNL     1       1.376   9.110  19.362  0.00  0.00    +0.000 A 
ATOM      2  C   UNL     1       1.141   8.729  20.671  0.00  0.00    +0.000 A 
ATOM      3  N   UNL     1       1.704   7.496  20.869  0.00  0.00    +0.000 N 
ATOM      4  C   UNL     1       2.303   7.046  19.713  0.00  0.00    +0.000 A 
ATOM      5  C   UNL     1       2.073   8.021  18.756  0.00  0.00    +0.000 A 
ATOM      6  H   UNL     1       1.697   6.968  21.735  0.00  0.00    +0.000 HD
ENDROOT
BRANCH   4   7
ATOM      7  C   UNL     1       2.993   5.774  19.665  0.00  0.00    +0.000 C 
ATOM      8  O   UNL     1       2.828   4.917  20.529  0.00  0.00    +0.000 OA
ATOM      9  N   UNL     1       3.844   5.609  18.603  0.00  0.00    +0.000 N 
ATOM     10  H   UNL     1       3.943   6.351  17.926  0.00  0.00    +0.000 HD
BRANCH   9  11
ATOM     11  C   UNL     1       4.620   4.405  18.401  0.00  0.00    +0.000 C 
BRANCH  11  12
ATOM     12  C   UNL     1       5.447   4.492  17.152  0.00  0.00    +0.000 A 
ATOM     13  C   UNL     1       4.880   4.323  15.884  0.00  0.00    +0.000 A 
ATOM     14  C   UNL     1       5.682   4.411  14.750  0.00  0.00    +0.000 A 
ATOM     15  C   UNL     1       7.033   4.660  14.920  0.00  0.00    +0.000 A 
ATOM     16  N   UNL     1       7.621   4.814  16.125  0.00  0.00    +0.000 NA
ATOM     17  C   UNL     1       6.817   4.724  17.210  0.00  0.00    +0.000 A 
ENDBRANCH  11  12
ENDBRANCH   9  11
ENDBRANCH   4   7
BRANCH   1  18
ATOM     18  C   UNL     1       0.966  10.343  18.692  0.00  0.00    +0.000 C 
ATOM     19  O   UNL     1       1.789  11.208  18.399  0.00  0.00    +0.000 OA
BRANCH  18  24
ATOM     20  C   UNL     1      -4.684  11.271  17.743  0.00  0.00    +0.000 C 
ATOM     21  C   UNL     1      -3.218  11.046  17.975  0.00  0.00    +0.000 A 
ATOM     22  C   UNL     1      -2.512  11.802  18.918  0.00  0.00    +0.000 A 
ATOM     23  C   UNL     1      -1.149  11.576  19.129  0.00  0.00    +0.000 A 
ATOM     24  C   UNL     1      -0.472  10.594  18.392  0.00  0.00    +0.000 A 
ATOM     25  C   UNL     1      -1.182   9.824  17.463  0.00  0.00    +0.000 A 
ATOM     26  C   UNL     1      -2.543  10.058  17.249  0.00  0.00    +0.000 A 
ENDBRANCH  18  24
ENDBRANCH   1  18
TORSDOF 5
ENDMDL
MODEL 4
REMARK VINA RESULT:      -8.0      5.352      8.172
REMARK  Name = 
REMARK  6 active torsions:
REMARK  status: ('A' for Active; 'I' for Inactive)
REMARK    1  A    between atoms: C_1  and  C_2
REMARK    2  A    between atoms: C_5  and  C_6
REMARK    3  A    between atoms: C_6  and  C_8
REMARK    4  A    between atoms: C_11  and  C_12
REMARK    5  A    between atoms: N_14  and  C_15
REMARK    6  A    between atoms: C_15  and  C_16
REMARK                            x       y       z     vdW  Elec       q    Type
REMARK                         _______ _______ _______ _____ _____    ______ ____
ROOT
ATOM      1  C   UNL     1       6.940   6.953  17.444  0.00  0.00    +0.000 A 
ATOM      2  C   UNL     1       7.678   6.395  18.473  0.00  0.00    +0.000 A 
ATOM      3  N   UNL     1       8.477   7.369  19.009  0.00  0.00    +0.000 N 
ATOM      4  C   UNL     1       8.291   8.565  18.350  0.00  0.00    +0.000 A 
ATOM      5  C   UNL     1       7.367   8.312  17.349  0.00  0.00    +0.000 A 
ATOM      6  H   UNL     1       9.123   7.254  19.782  0.00  0.00    +0.000 HD
ENDROOT
BRANCH   4   7
ATOM      7  C   UNL     1       9.004   9.762  18.742  0.00  0.00    +0.000 C 
ATOM      8  O   UNL     1       9.205  10.037  19.922  0.00  0.00    +0.000 OA
ATOM      9  N   UNL     1       9.420  10.562  17.709  0.00  0.00    +0.000 N 
ATOM     10  H   UNL     1       9.221  10.287  16.758  0.00  0.00    +0.000 HD
BRANCH   9  11
ATOM     11  C   UNL     1      10.139  11.799  17.916  0.00  0.00    +0.000 C 
BRANCH  11  12
ATOM     12  C   UNL     1       9.214  12.981  17.876  0.00  0.00    +0.000 A 
ATOM     13  C   UNL     1       7.874  12.850  17.494  0.00  0.00    +0.000 A 
ATOM     14  C   UNL     1       7.049  13.971  17.469  0.00  0.00    +0.000 A 
ATOM     15  C   UNL     1       7.594  15.194  17.822  0.00  0.00    +0.000 A 
ATOM     16  N   UNL     1       8.884  15.364  18.181  0.00  0.00    +0.000 NA
ATOM     17  C   UNL     1       9.662  14.257  18.197  0.00  0.00    +0.000 A 
ENDBRANCH  11  12
ENDBRANCH   9  11
ENDBRANCH   4   7
BRANCH   1  18
ATOM     18  C   UNL     1       5.955   6.303  16.581  0.00  0.00    +0.000 C 
ATOM     19  O   UNL     1       6.074   6.325  15.357  0.00  0.00    +0.000 OA
BRANCH  18  24
ATOM     20  C   UNL     1       1.235   3.652  18.671  0.00  0.00    +0.000 C 
ATOM     21  C   UNL     1       2.466   4.332  18.147  0.00  0.00    +0.000 A 
ATOM     22  C   UNL     1       3.447   3.616  17.452  0.00  0.00    +0.000 A 
ATOM     23  C   UNL     1       4.585   4.264  16.963  0.00  0.00    +0.000 A 
ATOM     24  C   UNL     1       4.759   5.639  17.171  0.00  0.00    +0.000 A 
ATOM     25  C   UNL     1       3.769   6.360  17.850  0.00  0.00    +0.000 A 
ATOM     26  C   UNL     1       2.637   5.708  18.344  0.00  0.00    +0.000 A 
ENDBRANCH  18  24
ENDBRANCH   1  18
TORSDOF 5
ENDMDL
MODEL 5
REMARK VINA RESULT:      -8.0      5.503      8.644
REMARK  Name = 
REMARK  6 active torsions:
REMARK  status: ('A' for Active; 'I' for Inactive)
REMARK    1  A    between atoms: C_1  and  C_2
REMARK    2  A    between atoms: C_5  and  C_6
REMARK    3  A    between atoms: C_6  and  C_8
REMARK    4  A    between atoms: C_11  and  C_12
REMARK    5  A    between atoms: N_14  and  C_15
REMARK    6  A    between atoms: C_15  and  C_16
REMARK                            x       y       z     vdW  Elec       q    Type
REMARK                         _______ _______ _______ _____ _____    ______ ____
ROOT
ATOM      1  C   UNL     1       7.420   6.936  17.498  0.00  0.00    +0.000 A 
ATOM      2  C   UNL     1       8.063   6.624  18.682  0.00  0.00    +0.000 A 
ATOM      3  N   UNL     1       8.650   7.762  19.168  0.00  0.00    +0.000 N 
ATOM      4  C   UNL     1       8.416   8.825  18.324  0.00  0.00    +0.000 A 
ATOM      5  C   UNL     1       7.685   8.319  17.262  0.00  0.00    +0.000 A 
ATOM      6  H   UNL     1       9.186   7.838  20.025  0.00  0.00    +0.000 HD
ENDROOT
BRANCH   4   7
ATOM      7  C   UNL     1       8.911  10.152  18.626  0.00  0.00    +0.000 C 
ATOM      8  O   UNL     1       8.726  11.099  17.867  0.00  0.00    +0.000 OA
ATOM      9  N   UNL     1       9.606  10.264  19.803  0.00  0.00    +0.000 N 
ATOM     10  H   UNL     1       9.732   9.449  20.384  0.00  0.00    +0.000 HD
BRANCH   9  11
ATOM     11  C   UNL     1      10.178  11.512  20.258  0.00  0.00    +0.000 C 
BRANCH  11  12
ATOM     12  C   UNL     1       9.388  12.091  21.396  0.00  0.00    +0.000 A 
ATOM     13  C   UNL     1       9.533  13.428  21.782  0.00  0.00    +0.000 A 
ATOM     14  C   UNL     1       8.782  13.926  22.843  0.00  0.00    +0.000 A 
ATOM     15  C   UNL     1       7.911  13.067  23.491  0.00  0.00    +0.000 A 
ATOM     16  N   UNL     1       7.754  11.769  23.158  0.00  0.00    +0.000 NA
ATOM     17  C   UNL     1       8.496  11.311  22.124  0.00  0.00    +0.000 A 
ENDBRANCH  11  12
ENDBRANCH   9  11
ENDBRANCH   4   7
BRANCH   1  18
ATOM     18  C   UNL     1       6.658   6.049  16.620  0.00  0.00    +0.000 C 
ATOM     19  O   UNL     1       7.087   5.737  15.511  0.00  0.00    +0.000 OA
BRANCH  18  24
ATOM     20  C   UNL     1       1.408   4.023  18.035  0.00  0.00    +0.000 C 
ATOM     21  C   UNL     1       2.773   4.540  17.687  0.00  0.00    +0.000 A 
ATOM     22  C   UNL     1       3.728   3.711  17.089  0.00  0.00    +0.000 A 
ATOM     23  C   UNL     1       4.994   4.208  16.764  0.00  0.00    +0.000 A 
ATOM     24  C   UNL     1       5.321   5.542  17.039  0.00  0.00    +0.000 A 
ATOM     25  C   UNL     1       4.359   6.378  17.620  0.00  0.00    +0.000 A 
ATOM     26  C   UNL     1       3.098   5.876  17.950  0.00  0.00    +0.000 A 
ENDBRANCH  18  24
ENDBRANCH   1  18
TORSDOF 5
ENDMDL
MODEL 6
REMARK VINA RESULT:      -7.9      5.466      8.635
REMARK  Name = 
REMARK  6 active torsions:
REMARK  status: ('A' for Active; 'I' for Inactive)
REMARK    1  A    between atoms: C_1  and  C_2
REMARK    2  A    between atoms: C_5  and  C_6
REMARK    3  A    between atoms: C_6  and  C_8
REMARK    4  A    between atoms: C_11  and  C_12
REMARK    5  A    between atoms: N_14  and  C_15
REMARK    6  A    between atoms: C_15  and  C_16
REMARK                            x       y       z     vdW  Elec       q    Type
REMARK                         _______ _______ _______ _____ _____    ______ ____
ROOT
ATOM      1  C   UNL     1       7.431   6.855  17.448  0.00  0.00    +0.000 A 
ATOM      2  C   UNL     1       8.021   6.556  18.663  0.00  0.00    +0.000 A 
ATOM      3  N   UNL     1       8.584   7.699  19.163  0.00  0.00    +0.000 N 
ATOM      4  C   UNL     1       8.387   8.754  18.298  0.00  0.00    +0.000 A 
ATOM      5  C   UNL     1       7.706   8.236  17.209  0.00  0.00    +0.000 A 
ATOM      6  H   UNL     1       9.081   7.785  20.043  0.00  0.00    +0.000 HD
ENDROOT
BRANCH   4   7
ATOM      7  C   UNL     1       8.867  10.084  18.609  0.00  0.00    +0.000 C 
ATOM      8  O   UNL     1       8.651  11.038  17.866  0.00  0.00    +0.000 OA
ATOM      9  N   UNL     1       9.582  10.192  19.774  0.00  0.00    +0.000 N 
ATOM     10  H   UNL     1       9.732   9.372  20.341  0.00  0.00    +0.000 HD
BRANCH   9  11
ATOM     11  C   UNL     1      10.142  11.443  20.235  0.00  0.00    +0.000 C 
BRANCH  11  12
ATOM     12  C   UNL     1       9.325  12.030  21.348  0.00  0.00    +0.000 A 
ATOM     13  C   UNL     1       8.507  11.233  22.155  0.00  0.00    +0.000 A 
ATOM     14  C   UNL     1       7.763  11.817  23.178  0.00  0.00    +0.000 A 
ATOM     15  C   UNL     1       7.857  13.186  23.357  0.00  0.00    +0.000 A 
ATOM     16  N   UNL     1       8.623  13.992  22.590  0.00  0.00    +0.000 NA
ATOM     17  C   UNL     1       9.334  13.397  21.605  0.00  0.00    +0.000 A 
ENDBRANCH  11  12
ENDBRANCH   9  11
ENDBRANCH   4   7
BRANCH   1  18
ATOM     18  C   UNL     1       6.712   5.957  16.546  0.00  0.00    +0.000 C 
ATOM     19  O   UNL     1       7.196   5.624  15.466  0.00  0.00    +0.000 OA
BRANCH  18  24
ATOM     20  C   UNL     1       1.453   4.099  18.148  0.00  0.00    +0.000 C 
ATOM     21  C   UNL     1       2.805   4.586  17.716  0.00  0.00    +0.000 A 
ATOM     22  C   UNL     1       3.189   5.917  17.910  0.00  0.00    +0.000 A 
ATOM     23  C   UNL     1       4.455   6.355  17.509  0.00  0.00    +0.000 A 
ATOM     24  C   UNL     1       5.351   5.465  16.901  0.00  0.00    +0.000 A 
ATOM     25  C   UNL     1       4.975   4.128  16.724  0.00  0.00    +0.000 A 
ATOM     26  C   UNL     1       3.706   3.696  17.120  0.00  0.00    +0.000 A 
ENDBRANCH  18  24
ENDBRANCH   1  18
TORSDOF 5
ENDMDL
MODEL 7
REMARK VINA RESULT:      -7.9      5.218      8.313
REMARK  Name = 
REMARK  6 active torsions:
REMARK  status: ('A' for Active; 'I' for Inactive)
REMARK    1  A    between atoms: C_1  and  C_2
REMARK    2  A    between atoms: C_5  and  C_6
REMARK    3  A    between atoms: C_6  and  C_8
REMARK    4  A    between atoms: C_11  and  C_12
REMARK    5  A    between atoms: N_14  and  C_15
REMARK    6  A    between atoms: C_15  and  C_16
REMARK                            x       y       z     vdW  Elec       q    Type
REMARK                         _______ _______ _______ _____ _____    ______ ____
ROOT
ATOM      1  C   UNL     1       7.183   6.849  17.451  0.00  0.00    +0.000 A 
ATOM      2  C   UNL     1       7.849   6.387  18.572  0.00  0.00    +0.000 A 
ATOM      3  N   UNL     1       8.548   7.429  19.120  0.00  0.00    +0.000 N 
ATOM      4  C   UNL     1       8.366   8.576  18.378  0.00  0.00    +0.000 A 
ATOM      5  C   UNL     1       7.551   8.222  17.316  0.00  0.00    +0.000 A 
ATOM      6  H   UNL     1       9.125   7.389  19.953  0.00  0.00    +0.000 HD
ENDROOT
BRANCH   4   7
ATOM      7  C   UNL     1       8.981   9.829  18.763  0.00  0.00    +0.000 C 
ATOM      8  O   UNL     1       9.293  10.065  19.927  0.00  0.00    +0.000 OA
ATOM      9  N   UNL     1       9.174  10.725  17.743  0.00  0.00    +0.000 N 
ATOM     10  H   UNL     1       8.892  10.478  16.806  0.00  0.00    +0.000 HD
BRANCH   9  11
ATOM     11  C   UNL     1       9.768  12.027  17.947  0.00  0.00    +0.000 C 
BRANCH  11  12
ATOM     12  C   UNL     1       8.722  13.065  18.235  0.00  0.00    +0.000 A 
ATOM     13  C   UNL     1       8.776  13.859  19.384  0.00  0.00    +0.000 A 
ATOM     14  C   UNL     1       7.785  14.810  19.615  0.00  0.00    +0.000 A 
ATOM     15  C   UNL     1       6.765  14.933  18.687  0.00  0.00    +0.000 A 
ATOM     16  N   UNL     1       6.670  14.176  17.573  0.00  0.00    +0.000 NA
ATOM     17  C   UNL     1       7.646  13.260  17.375  0.00  0.00    +0.000 A 
ENDBRANCH  11  12
ENDBRANCH   9  11
ENDBRANCH   4   7
BRANCH   1  18
ATOM     18  C   UNL     1       6.314   6.103  16.542  0.00  0.00    +0.000 C 
ATOM     19  O   UNL     1       6.604   5.972  15.354  0.00  0.00    +0.000 OA
BRANCH  18  24
ATOM     20  C   UNL     1       1.269   3.792  18.239  0.00  0.00    +0.000 C 
ATOM     21  C   UNL     1       2.582   4.383  17.818  0.00  0.00    +0.000 A 
ATOM     22  C   UNL     1       3.561   3.600  17.197  0.00  0.00    +0.000 A 
ATOM     23  C   UNL     1       4.777   4.166  16.803  0.00  0.00    +0.000 A 
ATOM     24  C   UNL     1       5.031   5.525  17.033  0.00  0.00    +0.000 A 
ATOM     25  C   UNL     1       4.045   6.314  17.637  0.00  0.00    +0.000 A 
ATOM     26  C   UNL     1       2.834   5.743  18.036  0.00  0.00    +0.000 A 
ENDBRANCH  18  24
ENDBRANCH   1  18
TORSDOF 5
ENDMDL
MODEL 8
REMARK VINA RESULT:      -7.8      5.207      8.310
REMARK  Name = 
REMARK  6 active torsions:
REMARK  status: ('A' for Active; 'I' for Inactive)
REMARK    1  A    between atoms: C_1  and  C_2
REMARK    2  A    between atoms: C_5  and  C_6
REMARK    3  A    between atoms: C_6  and  C_8
REMARK    4  A    between atoms: C_11  and  C_12
REMARK    5  A    between atoms: N_14  and  C_15
REMARK    6  A    between atoms: C_15  and  C_16
REMARK                            x       y       z     vdW  Elec       q    Type
REMARK                         _______ _______ _______ _____ _____    ______ ____
ROOT
ATOM      1  C   UNL     1       7.125   6.832  17.440  0.00  0.00    +0.000 A 
ATOM      2  C   UNL     1       7.801   6.336  18.541  0.00  0.00    +0.000 A 
ATOM      3  N   UNL     1       8.519   7.357  19.103  0.00  0.00    +0.000 N 
ATOM      4  C   UNL     1       8.341   8.523  18.392  0.00  0.00    +0.000 A 
ATOM      5  C   UNL     1       7.508   8.204  17.333  0.00  0.00    +0.000 A 
ATOM      6  H   UNL     1       9.107   7.291  19.927  0.00  0.00    +0.000 HD
ENDROOT
BRANCH   4   7
ATOM      7  C   UNL     1       8.975   9.760  18.798  0.00  0.00    +0.000 C 
ATOM      8  O   UNL     1       9.320   9.958  19.960  0.00  0.00    +0.000 OA
ATOM      9  N   UNL     1       9.148  10.685  17.800  0.00  0.00    +0.000 N 
ATOM     10  H   UNL     1       8.839  10.468  16.865  0.00  0.00    +0.000 HD
BRANCH   9  11
ATOM     11  C   UNL     1       9.757  11.976  18.027  0.00  0.00    +0.000 C 
BRANCH  11  12
ATOM     12  C   UNL     1       8.719  13.035  18.265  0.00  0.00    +0.000 A 
ATOM     13  C   UNL     1       7.692  13.273  17.346  0.00  0.00    +0.000 A 
ATOM     14  C   UNL     1       6.749  14.264  17.604  0.00  0.00    +0.000 A 
ATOM     15  C   UNL     1       6.868  14.994  18.774  0.00  0.00    +0.000 A 
ATOM     16  N   UNL     1       7.852  14.805  19.679  0.00  0.00    +0.000 NA
ATOM     17  C   UNL     1       8.754  13.834  19.402  0.00  0.00    +0.000 A 
ENDBRANCH  11  12
ENDBRANCH   9  11
ENDBRANCH   4   7
BRANCH   1  18
ATOM     18  C   UNL     1       6.236   6.118  16.526  0.00  0.00    +0.000 C 
ATOM     19  O   UNL     1       6.487   6.047  15.324  0.00  0.00    +0.000 OA
BRANCH  18  24
ATOM     20  C   UNL     1       1.371   3.813  18.692  0.00  0.00    +0.000 C 
ATOM     21  C   UNL     1       2.620   4.410  18.114  0.00  0.00    +0.000 A 
ATOM     22  C   UNL     1       2.777   5.797  18.013  0.00  0.00    +0.000 A 
ATOM     23  C   UNL     1       3.950   6.339  17.479  0.00  0.00    +0.000 A 
ATOM     24  C   UNL     1       4.978   5.498  17.031  0.00  0.00    +0.000 A 
ATOM     25  C   UNL     1       4.829   4.111  17.149  0.00  0.00    +0.000 A 
ATOM     26  C   UNL     1       3.653   3.572  17.676  0.00  0.00    +0.000 A 
ENDBRANCH  18  24
ENDBRANCH   1  18
TORSDOF 5
ENDMDL
MODEL 9
REMARK VINA RESULT:      -7.6      2.444      9.028
REMARK  Name = 
REMARK  6 active torsions:
REMARK  status: ('A' for Active; 'I' for Inactive)
REMARK    1  A    between atoms: C_1  and  C_2
REMARK    2  A    between atoms: C_5  and  C_6
REMARK    3  A    between atoms: C_6  and  C_8
REMARK    4  A    between atoms: C_11  and  C_12
REMARK    5  A    between atoms: N_14  and  C_15
REMARK    6  A    between atoms: C_15  and  C_16
REMARK                            x       y       z     vdW  Elec       q    Type
REMARK                         _______ _______ _______ _____ _____    ______ ____
ROOT
ATOM      1  C   UNL     1       4.045   5.555  18.740  0.00  0.00    +0.000 A 
ATOM      2  C   UNL     1       3.197   5.523  19.833  0.00  0.00    +0.000 A 
ATOM      3  N   UNL     1       2.392   6.630  19.788  0.00  0.00    +0.000 N 
ATOM      4  C   UNL     1       2.694   7.403  18.688  0.00  0.00    +0.000 A 
ATOM      5  C   UNL     1       3.746   6.769  18.049  0.00  0.00    +0.000 A 
ATOM      6  H   UNL     1       1.668   6.869  20.456  0.00  0.00    +0.000 HD
ENDROOT
BRANCH   4   7
ATOM      7  C   UNL     1       1.965   8.620  18.399  0.00  0.00    +0.000 C 
ATOM      8  O   UNL     1       2.107   9.222  17.337  0.00  0.00    +0.000 OA
ATOM      9  N   UNL     1       1.126   9.052  19.394  0.00  0.00    +0.000 N 
ATOM     10  H   UNL     1       1.054   8.519  20.248  0.00  0.00    +0.000 HD
BRANCH   9  11
ATOM     11  C   UNL     1       0.327  10.252  19.279  0.00  0.00    +0.000 C 
BRANCH  11  12
ATOM     12  C   UNL     1      -0.233  10.664  20.609  0.00  0.00    +0.000 A 
ATOM     13  C   UNL     1      -0.205   9.806  21.713  0.00  0.00    +0.000 A 
ATOM     14  C   UNL     1      -0.735  10.226  22.930  0.00  0.00    +0.000 A 
ATOM     15  C   UNL     1      -1.285  11.494  23.002  0.00  0.00    +0.000 A 
ATOM     16  N   UNL     1      -1.344  12.346  21.957  0.00  0.00    +0.000 NA
ATOM     17  C   UNL     1      -0.821  11.911  20.787  0.00  0.00    +0.000 A 
ENDBRANCH  11  12
ENDBRANCH   9  11
ENDBRANCH   4   7
BRANCH   1  18
ATOM     18  C   UNL     1       5.078   4.591  18.367  0.00  0.00    +0.000 C 
ATOM     19  O   UNL     1       5.520   3.788  19.188  0.00  0.00    +0.000 OA
BRANCH  18  24
ATOM     20  C   UNL     1       7.348   4.828  13.032  0.00  0.00    +0.000 C 
ATOM     21  C   UNL     1       6.768   4.748  14.414  0.00  0.00    +0.000 A 
ATOM     22  C   UNL     1       7.537   5.068  15.538  0.00  0.00    +0.000 A 
ATOM     23  C   UNL     1       6.981   4.996  16.819  0.00  0.00    +0.000 A 
ATOM     24  C   UNL     1       5.649   4.594  16.991  0.00  0.00    +0.000 A 
ATOM     25  C   UNL     1       4.874   4.292  15.864  0.00  0.00    +0.000 A 
ATOM     26  C   UNL     1       5.435   4.358  14.586  0.00  0.00    +0.000 A 
ENDBRANCH  18  24
ENDBRANCH   1  18
TORSDOF 5
ENDMDL
