MODEL 1
REMARK VINA RESULT:      -6.6      0.000      0.000
REMARK  Name = 
REMARK  9 active torsions:
REMARK  status: ('A' for Active; 'I' for Inactive)
REMARK    1  A    between atoms: C_1  and  C_2
REMARK    2  A    between atoms: C_2  and  S_3
REMARK    3  A    between atoms: S_3  and  C_4
REMARK    4  A    between atoms: C_4  and  C_5
REMARK    5  A    between atoms: C_9  and  N_10
REMARK    6  A    between atoms: N_13  and  C_14
REMARK    7  A    between atoms: N_13  and  C_15
REMARK    8  A    between atoms: C_15  and  C_16
REMARK    9  A    between atoms: N_20  and  C_21
REMARK                            x       y       z     vdW  Elec       q    Type
REMARK                         _______ _______ _______ _____ _____    ______ ____
ROOT
ATOM      1  N   UNL     1       2.064   7.147  19.030  0.00  0.00    +0.000 N 
ATOM      2  C   UNL     1       1.996   8.404  18.472  0.00  0.00    +0.000 C 
ATOM      3  O   UNL     1       2.418   8.673  17.344  0.00  0.00    +0.000 OA
ATOM      4  N   UNL     1       1.339   9.356  19.250  0.00  0.00    +0.000 N 
ATOM      5  C   UNL     1       0.951   9.176  20.650  0.00  0.00    +0.000 C 
ATOM      6  H   UNL     1       1.284   6.915  19.626  0.00  0.00    +0.000 HD
ENDROOT
BRANCH   1  11
ATOM      7  C   UNL     1       4.698   4.748  17.885  0.00  0.00    +0.000 A 
ATOM      8  C   UNL     1       3.878   3.741  17.357  0.00  0.00    +0.000 A 
ATOM      9  C   UNL     1       2.491   3.878  17.369  0.00  0.00    +0.000 A 
ATOM     10  C   UNL     1       1.913   5.010  17.941  0.00  0.00    +0.000 A 
ATOM     11  C   UNL     1       2.711   6.035  18.453  0.00  0.00    +0.000 A 
ATOM     12  C   UNL     1       4.105   5.907  18.417  0.00  0.00    +0.000 A 
BRANCH   7  13
ATOM     13  C   UNL     1       6.200   4.591  17.891  0.00  0.00    +0.000 C 
BRANCH  13  14
ATOM     14  S   UNL     1       7.069   5.811  16.858  0.00  0.00    +0.000 S 
BRANCH  14  16
ATOM     15  C   UNL     1       7.816   8.302  17.678  0.00  0.00    +0.000 C 
ATOM     16  C   UNL     1       7.766   6.867  18.168  0.00  0.00    +0.000 C 
ENDBRANCH  14  16
ENDBRANCH  13  14
ENDBRANCH   7  13
ENDBRANCH   1  11
BRANCH   4  17
ATOM     17  C   UNL     1       0.816  10.545  18.566  0.00  0.00    +0.000 C 
BRANCH  17  18
ATOM     18  C   UNL     1      -0.653  10.484  18.313  0.00  0.00    +0.000 A 
ATOM     19  N   UNL     1      -1.254   9.747  17.395  0.00  0.00    +0.000 NA
ATOM     20  C   UNL     1      -2.561  10.124  17.484  0.00  0.00    +0.000 A 
ATOM     21  N   UNL     1      -2.821  11.047  18.409  0.00  0.00    +0.000 NA
ATOM     22  N   UNL     1      -1.597  11.261  18.933  0.00  0.00    +0.000 N 
ATOM     23  C   UNL     1      -1.432  12.252  19.966  0.00  0.00    +0.000 C 
ENDBRANCH  17  18
ENDBRANCH   4  17
TORSDOF 6
ENDMDL
MODEL 2
REMARK VINA RESULT:      -6.5      1.434      1.824
REMARK  Name = 
REMARK  9 active torsions:
REMARK  status: ('A' for Active; 'I' for Inactive)
REMARK    1  A    between atoms: C_1  and  C_2
REMARK    2  A    between atoms: C_2  and  S_3
REMARK    3  A    between atoms: S_3  and  C_4
REMARK    4  A    between atoms: C_4  and  C_5
REMARK    5  A    between atoms: C_9  and  N_10
REMARK    6  A    between atoms: N_13  and  C_14
REMARK    7  A    between atoms: N_13  and  C_15
REMARK    8  A    between atoms: C_15  and  C_16
REMARK    9  A    between atoms: N_20  and  C_21
REMARK                            x       y       z     vdW  Elec       q    Type
REMARK                         _______ _______ _______ _____ _____    ______ ____
ROOT
ATOM      1  N   UNL     1       1.947   7.649  18.926  0.00  0.00    +0.000 N 
ATOM      2  C   UNL     1       1.739   8.924  18.448  0.00  0.00    +0.000 C 
ATOM      3  O   UNL     1       2.113   9.306  17.336  0.00  0.00    +0.000 OA
ATOM      4  N   UNL     1       0.998   9.751  19.290  0.00  0.00    +0.000 N 
ATOM      5  C   UNL     1       0.653   9.446  20.680  0.00  0.00    +0.000 C 
ATOM      6  H   UNL     1       1.205   7.300  19.512  0.00  0.00    +0.000 HD
ENDROOT
BRANCH   1  11
ATOM      7  C   UNL     1       4.682   5.855  17.106  0.00  0.00    +0.000 A 
ATOM      8  C   UNL     1       4.134   4.565  17.083  0.00  0.00    +0.000 A 
ATOM      9  C   UNL     1       2.881   4.316  17.643  0.00  0.00    +0.000 A 
ATOM     10  C   UNL     1       2.182   5.352  18.259  0.00  0.00    +0.000 A 
ATOM     11  C   UNL     1       2.698   6.650  18.274  0.00  0.00    +0.000 A 
ATOM     12  C   UNL     1       3.945   6.902  17.690  0.00  0.00    +0.000 A 
BRANCH   7  13
ATOM     13  C   UNL     1       6.047   6.121  16.520  0.00  0.00    +0.000 C 
BRANCH  13  14
ATOM     14  S   UNL     1       6.992   4.612  16.147  0.00  0.00    +0.000 S 
BRANCH  14  16
ATOM     15  C   UNL     1       5.829   3.958  13.768  0.00  0.00    +0.000 C 
ATOM     16  C   UNL     1       7.016   4.718  14.329  0.00  0.00    +0.000 C 
ENDBRANCH  14  16
ENDBRANCH  13  14
ENDBRANCH   7  13
ENDBRANCH   1  11
BRANCH   4  17
ATOM     17  C   UNL     1       0.343  10.919  18.688  0.00  0.00    +0.000 C 
BRANCH  17  18
ATOM     18  C   UNL     1      -1.071  10.663  18.287  0.00  0.00    +0.000 A 
ATOM     19  N   UNL     1      -1.473   9.837  17.336  0.00  0.00    +0.000 NA
ATOM     20  C   UNL     1      -2.819  10.043  17.279  0.00  0.00    +0.000 A 
ATOM     21  N   UNL     1      -3.291  10.940  18.143  0.00  0.00    +0.000 NA
ATOM     22  N   UNL     1      -2.167  11.321  18.782  0.00  0.00    +0.000 N 
ATOM     23  C   UNL     1      -2.240  12.343  19.795  0.00  0.00    +0.000 C 
ENDBRANCH  17  18
ENDBRANCH   4  17
TORSDOF 6
ENDMDL
MODEL 3
REMARK VINA RESULT:      -6.3      1.088      1.312
REMARK  Name = 
REMARK  9 active torsions:
REMARK  status: ('A' for Active; 'I' for Inactive)
REMARK    1  A    between atoms: C_1  and  C_2
REMARK    2  A    between atoms: C_2  and  S_3
REMARK    3  A    between atoms: S_3  and  C_4
REMARK    4  A    between atoms: C_4  and  C_5
REMARK    5  A    between atoms: C_9  and  N_10
REMARK    6  A    between atoms: N_13  and  C_14
REMARK    7  A    between atoms: N_13  and  C_15
REMARK    8  A    between atoms: C_15  and  C_16
REMARK    9  A    between atoms: N_20  and  C_21
REMARK                            x       y       z     vdW  Elec       q    Type
REMARK                         _______ _______ _______ _____ _____    ______ ____
ROOT
ATOM      1  N   UNL     1       1.908   7.821  18.915  0.00  0.00    +0.000 N 
ATOM      2  C   UNL     1       1.668   9.094  18.445  0.00  0.00    +0.000 C 
ATOM      3  O   UNL     1       2.026   9.489  17.332  0.00  0.00    +0.000 OA
ATOM      4  N   UNL     1       0.912   9.899  19.295  0.00  0.00    +0.000 N 
ATOM      5  C   UNL     1       0.583   9.579  20.685  0.00  0.00    +0.000 C 
ATOM      6  H   UNL     1       1.177   7.453  19.504  0.00  0.00    +0.000 HD
ENDROOT
BRANCH   1  11
ATOM      7  C   UNL     1       4.637   6.119  17.002  0.00  0.00    +0.000 A 
ATOM      8  C   UNL     1       4.164   4.800  17.050  0.00  0.00    +0.000 A 
ATOM      9  C   UNL     1       2.959   4.502  17.687  0.00  0.00    +0.000 A 
ATOM     10  C   UNL     1       2.236   5.519  18.309  0.00  0.00    +0.000 A 
ATOM     11  C   UNL     1       2.678   6.843  18.253  0.00  0.00    +0.000 A 
ATOM     12  C   UNL     1       3.875   7.143  17.593  0.00  0.00    +0.000 A 
BRANCH   7  13
ATOM     13  C   UNL     1       5.951   6.439  16.332  0.00  0.00    +0.000 C 
BRANCH  13  14
ATOM     14  S   UNL     1       7.189   7.162  17.451  0.00  0.00    +0.000 S 
BRANCH  14  16
ATOM     15  C   UNL     1       7.829   4.540  17.842  0.00  0.00    +0.000 C 
ATOM     16  C   UNL     1       7.390   5.772  18.611  0.00  0.00    +0.000 C 
ENDBRANCH  14  16
ENDBRANCH  13  14
ENDBRANCH   7  13
ENDBRANCH   1  11
BRANCH   4  17
ATOM     17  C   UNL     1       0.227  11.054  18.702  0.00  0.00    +0.000 C 
BRANCH  17  18
ATOM     18  C   UNL     1      -1.170  10.756  18.273  0.00  0.00    +0.000 A 
ATOM     19  N   UNL     1      -1.527   9.929  17.305  0.00  0.00    +0.000 NA
ATOM     20  C   UNL     1      -2.878  10.091  17.226  0.00  0.00    +0.000 A 
ATOM     21  N   UNL     1      -3.396  10.963  18.091  0.00  0.00    +0.000 NA
ATOM     22  N   UNL     1      -2.296  11.372  18.756  0.00  0.00    +0.000 N 
ATOM     23  C   UNL     1      -2.421  12.379  19.779  0.00  0.00    +0.000 C 
ENDBRANCH  17  18
ENDBRANCH   4  17
TORSDOF 6
ENDMDL
MODEL 4
REMARK VINA RESULT:      -6.3      1.684      2.201
REMARK  Name = 
REMARK  9 active torsions:
REMARK  status: ('A' for Active; 'I' for Inactive)
REMARK    1  A    between atoms: C_1  and  C_2
REMARK    2  A    between atoms: C_2  and  S_3
REMARK    3  A    between atoms: S_3  and  C_4
REMARK    4  A    between atoms: C_4  and  C_5
REMARK    5  A    between atoms: C_9  and  N_10
REMARK    6  A    between atoms: N_13  and  C_14
REMARK    7  A    between atoms: N_13  and  C_15
REMARK    8  A    between atoms: C_15  and  C_16
REMARK    9  A    between atoms: N_20  and  C_21
REMARK                            x       y       z     vdW  Elec       q    Type
REMARK                         _______ _______ _______ _____ _____    ______ ____
ROOT
ATOM      1  N   UNL     1       2.222   6.942  19.282  0.00  0.00    +0.000 N 
ATOM      2  C   UNL     1       1.904   8.167  18.741  0.00  0.00    +0.000 C 
ATOM      3  O   UNL     1       2.057   8.447  17.549  0.00  0.00    +0.000 OA
ATOM      4  N   UNL     1       1.315   9.065  19.629  0.00  0.00    +0.000 N 
ATOM      5  C   UNL     1       1.239   8.887  21.080  0.00  0.00    +0.000 C 
ATOM      6  H   UNL     1       1.608   6.645  20.026  0.00  0.00    +0.000 HD
ENDROOT
BRANCH   1  11
ATOM      7  C   UNL     1       4.837   4.706  17.810  0.00  0.00    +0.000 A 
ATOM      8  C   UNL     1       4.011   3.706  17.279  0.00  0.00    +0.000 A 
ATOM      9  C   UNL     1       2.625   3.794  17.395  0.00  0.00    +0.000 A 
ATOM     10  C   UNL     1       2.056   4.870  18.075  0.00  0.00    +0.000 A 
ATOM     11  C   UNL     1       2.858   5.889  18.594  0.00  0.00    +0.000 A 
ATOM     12  C   UNL     1       4.249   5.810  18.454  0.00  0.00    +0.000 A 
BRANCH   7  13
ATOM     13  C   UNL     1       6.339   4.600  17.703  0.00  0.00    +0.000 C 
BRANCH  13  14
ATOM     14  S   UNL     1       7.109   5.975  16.794  0.00  0.00    +0.000 S 
BRANCH  14  16
ATOM     15  C   UNL     1       8.001   8.354  17.786  0.00  0.00    +0.000 C 
ATOM     16  C   UNL     1       7.803   6.907  18.197  0.00  0.00    +0.000 C 
ENDBRANCH  14  16
ENDBRANCH  13  14
ENDBRANCH   7  13
ENDBRANCH   1  11
BRANCH   4  17
ATOM     17  C   UNL     1       0.537  10.171  19.057  0.00  0.00    +0.000 C 
BRANCH  17  18
ATOM     18  C   UNL     1       1.252  11.481  19.100  0.00  0.00    +0.000 A 
ATOM     19  N   UNL     1       2.202  11.876  18.270  0.00  0.00    +0.000 NA
ATOM     20  C   UNL     1       2.606  13.069  18.789  0.00  0.00    +0.000 A 
ATOM     21  N   UNL     1       1.962  13.455  19.890  0.00  0.00    +0.000 NA
ATOM     22  N   UNL     1       1.098  12.436  20.071  0.00  0.00    +0.000 N 
ATOM     23  C   UNL     1       0.222  12.445  21.215  0.00  0.00    +0.000 C 
ENDBRANCH  17  18
ENDBRANCH   4  17
TORSDOF 6
ENDMDL
MODEL 5
REMARK VINA RESULT:      -6.2      4.982      7.296
REMARK  Name = 
REMARK  9 active torsions:
REMARK  status: ('A' for Active; 'I' for Inactive)
REMARK    1  A    between atoms: C_1  and  C_2
REMARK    2  A    between atoms: C_2  and  S_3
REMARK    3  A    between atoms: S_3  and  C_4
REMARK    4  A    between atoms: C_4  and  C_5
REMARK    5  A    between atoms: C_9  and  N_10
REMARK    6  A    between atoms: N_13  and  C_14
REMARK    7  A    between atoms: N_13  and  C_15
REMARK    8  A    between atoms: C_15  and  C_16
REMARK    9  A    between atoms: N_20  and  C_21
REMARK                            x       y       z     vdW  Elec       q    Type
REMARK                         _______ _______ _______ _____ _____    ______ ____
ROOT
ATOM      1  N   UNL     1       5.336   5.298  15.578  0.00  0.00    +0.000 N 
ATOM      2  C   UNL     1       4.960   4.533  16.659  0.00  0.00    +0.000 C 
ATOM      3  O   UNL     1       5.176   3.321  16.745  0.00  0.00    +0.000 OA
ATOM      4  N   UNL     1       4.374   5.244  17.705  0.00  0.00    +0.000 N 
ATOM      5  C   UNL     1       3.934   6.639  17.632  0.00  0.00    +0.000 C 
ATOM      6  H   UNL     1       5.608   6.241  15.812  0.00  0.00    +0.000 HD
ENDROOT
BRANCH   1  11
ATOM      7  C   UNL     1       5.837   3.487  12.341  0.00  0.00    +0.000 A 
ATOM      8  C   UNL     1       7.119   3.950  12.015  0.00  0.00    +0.000 A 
ATOM      9  C   UNL     1       7.796   4.823  12.866  0.00  0.00    +0.000 A 
ATOM     10  C   UNL     1       7.178   5.266  14.035  0.00  0.00    +0.000 A 
ATOM     11  C   UNL     1       5.910   4.801  14.390  0.00  0.00    +0.000 A 
ATOM     12  C   UNL     1       5.243   3.905  13.546  0.00  0.00    +0.000 A 
BRANCH   7  13
ATOM     13  C   UNL     1       5.095   2.559  11.411  0.00  0.00    +0.000 C 
BRANCH  13  14
ATOM     14  S   UNL     1       3.375   3.059  11.093  0.00  0.00    +0.000 S 
BRANCH  14  16
ATOM     15  C   UNL     1       2.311   4.730   9.218  0.00  0.00    +0.000 C 
ATOM     16  C   UNL     1       3.639   4.132   9.646  0.00  0.00    +0.000 C 
ENDBRANCH  14  16
ENDBRANCH  13  14
ENDBRANCH   7  13
ENDBRANCH   1  11
BRANCH   4  17
ATOM     17  C   UNL     1       4.378   4.621  19.034  0.00  0.00    +0.000 C 
BRANCH  17  18
ATOM     18  C   UNL     1       3.012   4.299  19.540  0.00  0.00    +0.000 A 
ATOM     19  N   UNL     1       2.257   5.080  20.294  0.00  0.00    +0.000 NA
ATOM     20  C   UNL     1       1.175   4.303  20.580  0.00  0.00    +0.000 A 
ATOM     21  N   UNL     1       1.196   3.083  20.044  0.00  0.00    +0.000 NA
ATOM     22  N   UNL     1       2.369   3.098  19.379  0.00  0.00    +0.000 N 
ATOM     23  C   UNL     1       2.802   1.915  18.679  0.00  0.00    +0.000 C 
ENDBRANCH  17  18
ENDBRANCH   4  17
TORSDOF 6
ENDMDL
MODEL 6
REMARK VINA RESULT:      -6.2      1.980      2.442
REMARK  Name = 
REMARK  9 active torsions:
REMARK  status: ('A' for Active; 'I' for Inactive)
REMARK    1  A    between atoms: C_1  and  C_2
REMARK    2  A    between atoms: C_2  and  S_3
REMARK    3  A    between atoms: S_3  and  C_4
REMARK    4  A    between atoms: C_4  and  C_5
REMARK    5  A    between atoms: C_9  and  N_10
REMARK    6  A    between atoms: N_13  and  C_14
REMARK    7  A    between atoms: N_13  and  C_15
REMARK    8  A    between atoms: C_15  and  C_16
REMARK    9  A    between atoms: N_20  and  C_21
REMARK                            x       y       z     vdW  Elec       q    Type
REMARK                         _______ _______ _______ _____ _____    ______ ____
ROOT
ATOM      1  N   UNL     1       2.155   6.981  20.038  0.00  0.00    +0.000 N 
ATOM      2  C   UNL     1       1.706   8.194  19.562  0.00  0.00    +0.000 C 
ATOM      3  O   UNL     1       1.738   8.512  18.371  0.00  0.00    +0.000 OA
ATOM      4  N   UNL     1       1.134   9.025  20.524  0.00  0.00    +0.000 N 
ATOM      5  C   UNL     1       1.195   8.806  21.970  0.00  0.00    +0.000 C 
ATOM      6  H   UNL     1       1.628   6.624  20.821  0.00  0.00    +0.000 HD
ENDROOT
BRANCH   1  11
ATOM      7  C   UNL     1       4.776   4.757  18.561  0.00  0.00    +0.000 A 
ATOM      8  C   UNL     1       3.963   3.947  17.756  0.00  0.00    +0.000 A 
ATOM      9  C   UNL     1       2.586   4.158  17.699  0.00  0.00    +0.000 A 
ATOM     10  C   UNL     1       2.009   5.162  18.475  0.00  0.00    +0.000 A 
ATOM     11  C   UNL     1       2.802   5.995  19.267  0.00  0.00    +0.000 A 
ATOM     12  C   UNL     1       4.188   5.796  19.304  0.00  0.00    +0.000 A 
BRANCH   7  13
ATOM     13  C   UNL     1       6.264   4.515  18.640  0.00  0.00    +0.000 C 
BRANCH  13  14
ATOM     14  S   UNL     1       7.128   4.732  17.054  0.00  0.00    +0.000 S 
BRANCH  14  16
ATOM     15  C   UNL     1       7.663   7.305  17.781  0.00  0.00    +0.000 C 
ATOM     16  C   UNL     1       6.831   6.509  16.793  0.00  0.00    +0.000 C 
ENDBRANCH  14  16
ENDBRANCH  13  14
ENDBRANCH   7  13
ENDBRANCH   1  11
BRANCH   4  17
ATOM     17  C   UNL     1       0.234  10.085  20.053  0.00  0.00    +0.000 C 
BRANCH  17  18
ATOM     18  C   UNL     1       0.697  11.457  20.415  0.00  0.00    +0.000 A 
ATOM     19  N   UNL     1       1.690  12.119  19.845  0.00  0.00    +0.000 NA
ATOM     20  C   UNL     1       1.792  13.253  20.594  0.00  0.00    +0.000 A 
ATOM     21  N   UNL     1       0.918  13.350  21.595  0.00  0.00    +0.000 NA
ATOM     22  N   UNL     1       0.224  12.203  21.463  0.00  0.00    +0.000 N 
ATOM     23  C   UNL     1      -0.819  11.892  22.409  0.00  0.00    +0.000 C 
ENDBRANCH  17  18
ENDBRANCH   4  17
TORSDOF 6
ENDMDL
MODEL 7
REMARK VINA RESULT:      -6.1      1.994      2.734
REMARK  Name = 
REMARK  9 active torsions:
REMARK  status: ('A' for Active; 'I' for Inactive)
REMARK    1  A    between atoms: C_1  and  C_2
REMARK    2  A    between atoms: C_2  and  S_3
REMARK    3  A    between atoms: S_3  and  C_4
REMARK    4  A    between atoms: C_4  and  C_5
REMARK    5  A    between atoms: C_9  and  N_10
REMARK    6  A    between atoms: N_13  and  C_14
REMARK    7  A    between atoms: N_13  and  C_15
REMARK    8  A    between atoms: C_15  and  C_16
REMARK    9  A    between atoms: N_20  and  C_21
REMARK                            x       y       z     vdW  Elec       q    Type
REMARK                         _______ _______ _______ _____ _____    ______ ____
ROOT
ATOM      1  N   UNL     1       2.065   7.191  19.156  0.00  0.00    +0.000 N 
ATOM      2  C   UNL     1       1.900   8.425  18.566  0.00  0.00    +0.000 C 
ATOM      3  O   UNL     1       2.177   8.659  17.387  0.00  0.00    +0.000 OA
ATOM      4  N   UNL     1       1.317   9.392  19.384  0.00  0.00    +0.000 N 
ATOM      5  C   UNL     1       1.104   9.257  20.826  0.00  0.00    +0.000 C 
ATOM      6  H   UNL     1       1.367   6.967  19.849  0.00  0.00    +0.000 HD
ENDROOT
BRANCH   1  11
ATOM      7  C   UNL     1       4.602   4.774  17.842  0.00  0.00    +0.000 A 
ATOM      8  C   UNL     1       3.743   3.762  17.390  0.00  0.00    +0.000 A 
ATOM      9  C   UNL     1       2.360   3.901  17.507  0.00  0.00    +0.000 A 
ATOM     10  C   UNL     1       1.829   5.041  18.108  0.00  0.00    +0.000 A 
ATOM     11  C   UNL     1       2.665   6.072  18.545  0.00  0.00    +0.000 A 
ATOM     12  C   UNL     1       4.052   5.940  18.404  0.00  0.00    +0.000 A 
BRANCH   7  13
ATOM     13  C   UNL     1       6.099   4.615  17.735  0.00  0.00    +0.000 C 
BRANCH  13  14
ATOM     14  S   UNL     1       6.880   5.775  16.572  0.00  0.00    +0.000 S 
BRANCH  14  16
ATOM     15  C   UNL     1       5.779   4.540  14.404  0.00  0.00    +0.000 C 
ATOM     16  C   UNL     1       7.097   4.665  15.145  0.00  0.00    +0.000 C 
ENDBRANCH  14  16
ENDBRANCH  13  14
ENDBRANCH   7  13
ENDBRANCH   1  11
BRANCH   4  17
ATOM     17  C   UNL     1       0.688  10.544  18.727  0.00  0.00    +0.000 C 
BRANCH  17  18
ATOM     18  C   UNL     1       1.502  11.791  18.815  0.00  0.00    +0.000 A 
ATOM     19  N   UNL     1       2.514  12.117  18.028  0.00  0.00    +0.000 NA
ATOM     20  C   UNL     1       2.991  13.270  18.578  0.00  0.00    +0.000 A 
ATOM     21  N   UNL     1       2.334  13.695  19.657  0.00  0.00    +0.000 NA
ATOM     22  N   UNL     1       1.386  12.747  19.791  0.00  0.00    +0.000 N 
ATOM     23  C   UNL     1       0.466  12.816  20.899  0.00  0.00    +0.000 C 
ENDBRANCH  17  18
ENDBRANCH   4  17
TORSDOF 6
ENDMDL
MODEL 8
REMARK VINA RESULT:      -6.1      3.188      8.175
REMARK  Name = 
REMARK  9 active torsions:
REMARK  status: ('A' for Active; 'I' for Inactive)
REMARK    1  A    between atoms: C_1  and  C_2
REMARK    2  A    between atoms: C_2  and  S_3
REMARK    3  A    between atoms: S_3  and  C_4
REMARK    4  A    between atoms: C_4  and  C_5
REMARK    5  A    between atoms: C_9  and  N_10
REMARK    6  A    between atoms: N_13  and  C_14
REMARK    7  A    between atoms: N_13  and  C_15
REMARK    8  A    between atoms: C_15  and  C_16
REMARK    9  A    between atoms: N_20  and  C_21
REMARK                            x       y       z     vdW  Elec       q    Type
REMARK                         _______ _______ _______ _____ _____    ______ ____
ROOT
ATOM      1  N   UNL     1       1.354   9.151  19.190  0.00  0.00    +0.000 N 
ATOM      2  C   UNL     1       2.058   8.413  18.263  0.00  0.00    +0.000 C 
ATOM      3  O   UNL     1       2.249   8.782  17.101  0.00  0.00    +0.000 OA
ATOM      4  N   UNL     1       2.615   7.234  18.755  0.00  0.00    +0.000 N 
ATOM      5  C   UNL     1       2.313   6.639  20.058  0.00  0.00    +0.000 C 
ATOM      6  H   UNL     1       1.698   9.066  20.134  0.00  0.00    +0.000 HD
ENDROOT
BRANCH   1  11
ATOM      7  C   UNL     1      -1.349  11.638  18.472  0.00  0.00    +0.000 A 
ATOM      8  C   UNL     1      -0.588  12.815  18.485  0.00  0.00    +0.000 A 
ATOM      9  C   UNL     1       0.788  12.767  18.707  0.00  0.00    +0.000 A 
ATOM     10  C   UNL     1       1.406  11.542  18.951  0.00  0.00    +0.000 A 
ATOM     11  C   UNL     1       0.671  10.355  18.921  0.00  0.00    +0.000 A 
ATOM     12  C   UNL     1      -0.706  10.403  18.673  0.00  0.00    +0.000 A 
BRANCH   7  13
ATOM     13  C   UNL     1      -2.841  11.690  18.253  0.00  0.00    +0.000 C 
BRANCH  13  14
ATOM     14  S   UNL     1      -3.479  10.339  17.215  0.00  0.00    +0.000 S 
BRANCH  14  16
ATOM     15  C   UNL     1      -3.543  10.170  14.494  0.00  0.00    +0.000 C 
ATOM     16  C   UNL     1      -2.759  10.827  15.615  0.00  0.00    +0.000 C 
ENDBRANCH  14  16
ENDBRANCH  13  14
ENDBRANCH   7  13
ENDBRANCH   1  11
BRANCH   4  17
ATOM     17  C   UNL     1       3.733   6.650  18.004  0.00  0.00    +0.000 C 
BRANCH  17  18
ATOM     18  C   UNL     1       3.984   5.217  18.337  0.00  0.00    +0.000 A 
ATOM     19  N   UNL     1       3.121   4.224  18.201  0.00  0.00    +0.000 NA
ATOM     20  C   UNL     1       3.773   3.156  18.741  0.00  0.00    +0.000 A 
ATOM     21  N   UNL     1       4.997   3.413  19.200  0.00  0.00    +0.000 NA
ATOM     22  N   UNL     1       5.119   4.727  18.929  0.00  0.00    +0.000 N 
ATOM     23  C   UNL     1       6.319   5.423  19.321  0.00  0.00    +0.000 C 
ENDBRANCH  17  18
ENDBRANCH   4  17
TORSDOF 6
ENDMDL
MODEL 9
REMARK VINA RESULT:      -6.1      2.567      3.967
REMARK  Name = 
REMARK  9 active torsions:
REMARK  status: ('A' for Active; 'I' for Inactive)
REMARK    1  A    between atoms: C_1  and  C_2
REMARK    2  A    between atoms: C_2  and  S_3
REMARK    3  A    between atoms: S_3  and  C_4
REMARK    4  A    between atoms: C_4  and  C_5
REMARK    5  A    between atoms: C_9  and  N_10
REMARK    6  A    between atoms: N_13  and  C_14
REMARK    7  A    between atoms: N_13  and  C_15
REMARK    8  A    between atoms: C_15  and  C_16
REMARK    9  A    between atoms: N_20  and  C_21
REMARK                            x       y       z     vdW  Elec       q    Type
REMARK                         _______ _______ _______ _____ _____    ______ ____
ROOT
ATOM      1  N   UNL     1       2.113   7.594  19.004  0.00  0.00    +0.000 N 
ATOM      2  C   UNL     1       1.845   8.827  18.451  0.00  0.00    +0.000 C 
ATOM      3  O   UNL     1       2.089   9.115  17.276  0.00  0.00    +0.000 OA
ATOM      4  N   UNL     1       1.198   9.722  19.301  0.00  0.00    +0.000 N 
ATOM      5  C   UNL     1       1.014   9.533  20.741  0.00  0.00    +0.000 C 
ATOM      6  H   UNL     1       1.444   7.297  19.698  0.00  0.00    +0.000 HD
ENDROOT
BRANCH   1  11
ATOM      7  C   UNL     1       2.987   4.233  17.611  0.00  0.00    +0.000 A 
ATOM      8  C   UNL     1       4.186   4.558  16.962  0.00  0.00    +0.000 A 
ATOM      9  C   UNL     1       4.689   5.857  17.011  0.00  0.00    +0.000 A 
ATOM     10  C   UNL     1       3.978   6.849  17.684  0.00  0.00    +0.000 A 
ATOM     11  C   UNL     1       2.792   6.543  18.356  0.00  0.00    +0.000 A 
ATOM     12  C   UNL     1       2.301   5.232  18.325  0.00  0.00    +0.000 A 
BRANCH   7  13
ATOM     13  C   UNL     1       2.430   2.832  17.540  0.00  0.00    +0.000 C 
BRANCH  13  14
ATOM     14  S   UNL     1       1.090   2.513  18.729  0.00  0.00    +0.000 S 
BRANCH  14  16
ATOM     15  C   UNL     1       1.463   2.994  21.387  0.00  0.00    +0.000 C 
ATOM     16  C   UNL     1       2.084   2.235  20.230  0.00  0.00    +0.000 C 
ENDBRANCH  14  16
ENDBRANCH  13  14
ENDBRANCH   7  13
ENDBRANCH   1  11
BRANCH   4  17
ATOM     17  C   UNL     1       0.473  10.839  18.683  0.00  0.00    +0.000 C 
BRANCH  17  18
ATOM     18  C   UNL     1       1.176  12.148  18.820  0.00  0.00    +0.000 A 
ATOM     19  N   UNL     1       2.319  12.481  18.245  0.00  0.00    +0.000 NA
ATOM     20  C   UNL     1       2.594  13.710  18.766  0.00  0.00    +0.000 A 
ATOM     21  N   UNL     1       1.690  14.176  19.626  0.00  0.00    +0.000 NA
ATOM     22  N   UNL     1       0.789  13.173  19.645  0.00  0.00    +0.000 N 
ATOM     23  C   UNL     1      -0.358  13.266  20.513  0.00  0.00    +0.000 C 
ENDBRANCH  17  18
ENDBRANCH   4  17
TORSDOF 6
ENDMDL
