MODEL 1
REMARK VINA RESULT:      -8.4      0.000      0.000
REMARK  Name = 
REMARK  3 active torsions:
REMARK  status: ('A' for Active; 'I' for Inactive)
REMARK    1  A    between atoms: C_2  and  C_22
REMARK    2  A    between atoms: N_3  and  C_4
REMARK    3  A    between atoms: C_11  and  C_13
REMARK                            x       y       z     vdW  Elec       q    Type
REMARK                         _______ _______ _______ _____ _____    ______ ____
ROOT
ATOM      1  C   UNL     1       1.897   7.574  19.797  0.00  0.00    +0.000 A 
ATOM      2  C   UNL     1       1.443   6.729  20.805  0.00  0.00    +0.000 A 
ATOM      3  C   UNL     1       1.691   5.363  20.742  0.00  0.00    +0.000 A 
ATOM      4  C   UNL     1       2.419   4.816  19.679  0.00  0.00    +0.000 A 
ATOM      5  C   UNL     1       2.910   5.651  18.652  0.00  0.00    +0.000 A 
ATOM      6  C   UNL     1       2.601   7.024  18.714  0.00  0.00    +0.000 A 
ATOM      7  N   UNL     1       3.711   5.084  17.587  0.00  0.00    +0.000 N 
ATOM      8  C   UNL     1       4.628   5.876  16.853  0.00  0.00    +0.000 C 
ATOM      9  O   UNL     1       4.870   7.067  17.071  0.00  0.00    +0.000 OA
ATOM     10  C   UNL     1       3.578   3.624  17.436  0.00  0.00    +0.000 C 
ATOM     11  C   UNL     1       3.708   2.883  18.748  0.00  0.00    +0.000 C 
ATOM     12  C   UNL     1       2.623   3.327  19.699  0.00  0.00    +0.000 C 
ENDROOT
BRANCH   8  13
ATOM     13  C   UNL     1       5.465   5.261  15.780  0.00  0.00    +0.000 A 
ATOM     14  C   UNL     1       6.862   5.322  15.779  0.00  0.00    +0.000 A 
ATOM     15  C   UNL     1       7.584   4.875  14.671  0.00  0.00    +0.000 A 
ATOM     16  C   UNL     1       6.924   4.256  13.611  0.00  0.00    +0.000 A 
ATOM     17  C   UNL     1       5.543   4.076  13.660  0.00  0.00    +0.000 A 
ATOM     18  C   UNL     1       4.812   4.587  14.735  0.00  0.00    +0.000 A 
ENDBRANCH   8  13
BRANCH   1  21
ATOM     19  O   UNL     1       0.620   9.219  17.754  0.00  0.00    +0.000 OA
ATOM     20  C   UNL     1       1.091   9.697  18.780  0.00  0.00    +0.000 C 
ATOM     21  N   UNL     1       1.673   8.970  19.808  0.00  0.00    +0.000 N 
ATOM     22  H   UNL     1       1.849   9.445  20.688  0.00  0.00    +0.000 HD
BRANCH  20  23
ATOM     23  C   UNL     1       0.985  11.165  18.962  0.00  0.00    +0.000 A 
ATOM     24  C   UNL     1       1.926  12.057  18.461  0.00  0.00    +0.000 A 
ATOM     25  F   UNL     1       2.961  11.623  17.727  0.00  0.00    +0.000 F 
ATOM     26  C   UNL     1       1.828  13.427  18.713  0.00  0.00    +0.000 A 
ATOM     27  C   UNL     1       0.770  13.923  19.471  0.00  0.00    +0.000 A 
ATOM     28  C   UNL     1      -0.189  13.045  19.968  0.00  0.00    +0.000 A 
ATOM     29  C   UNL     1      -0.082  11.679  19.711  0.00  0.00    +0.000 A 
ATOM     30  F   UNL     1      -1.052  10.886  20.191  0.00  0.00    +0.000 F 
ENDBRANCH  20  23
ENDBRANCH   1  21
TORSDOF 3
ENDMDL
MODEL 2
REMARK VINA RESULT:      -8.4      0.187      1.545
REMARK  Name = 
REMARK  3 active torsions:
REMARK  status: ('A' for Active; 'I' for Inactive)
REMARK    1  A    between atoms: C_2  and  C_22
REMARK    2  A    between atoms: N_3  and  C_4
REMARK    3  A    between atoms: C_11  and  C_13
REMARK                            x       y       z     vdW  Elec       q    Type
REMARK                         _______ _______ _______ _____ _____    ______ ____
ROOT
ATOM      1  C   UNL     1       1.903   7.384  19.871  0.00  0.00    +0.000 A 
ATOM      2  C   UNL     1       1.484   6.512  20.871  0.00  0.00    +0.000 A 
ATOM      3  C   UNL     1       1.764   5.154  20.783  0.00  0.00    +0.000 A 
ATOM      4  C   UNL     1       2.491   4.641  19.701  0.00  0.00    +0.000 A 
ATOM      5  C   UNL     1       2.948   5.504  18.681  0.00  0.00    +0.000 A 
ATOM      6  C   UNL     1       2.606   6.868  18.770  0.00  0.00    +0.000 A 
ATOM      7  N   UNL     1       3.748   4.974  17.597  0.00  0.00    +0.000 N 
ATOM      8  C   UNL     1       4.636   5.800  16.864  0.00  0.00    +0.000 C 
ATOM      9  O   UNL     1       4.852   6.993  17.099  0.00  0.00    +0.000 OA
ATOM     10  C   UNL     1       3.649   3.514  17.424  0.00  0.00    +0.000 C 
ATOM     11  C   UNL     1       3.814   2.755  18.723  0.00  0.00    +0.000 C 
ATOM     12  C   UNL     1       2.731   3.157  19.694  0.00  0.00    +0.000 C 
ENDROOT
BRANCH   8  13
ATOM     13  C   UNL     1       5.474   5.222  15.771  0.00  0.00    +0.000 A 
ATOM     14  C   UNL     1       6.869   5.317  15.754  0.00  0.00    +0.000 A 
ATOM     15  C   UNL     1       7.586   4.905  14.630  0.00  0.00    +0.000 A 
ATOM     16  C   UNL     1       6.928   4.288  13.567  0.00  0.00    +0.000 A 
ATOM     17  C   UNL     1       5.552   4.076  13.630  0.00  0.00    +0.000 A 
ATOM     18  C   UNL     1       4.823   4.552  14.723  0.00  0.00    +0.000 A 
ENDBRANCH   8  13
BRANCH   1  21
ATOM     19  O   UNL     1       0.904   9.097  17.731  0.00  0.00    +0.000 OA
ATOM     20  C   UNL     1       1.205   9.536  18.835  0.00  0.00    +0.000 C 
ATOM     21  N   UNL     1       1.646   8.774  19.907  0.00  0.00    +0.000 N 
ATOM     22  H   UNL     1       1.678   9.210  20.823  0.00  0.00    +0.000 HD
BRANCH  20  23
ATOM     23  C   UNL     1       1.037  10.992  19.062  0.00  0.00    +0.000 A 
ATOM     24  C   UNL     1       0.022  11.520  19.852  0.00  0.00    +0.000 A 
ATOM     25  F   UNL     1      -0.832  10.715  20.502  0.00  0.00    +0.000 F 
ATOM     26  C   UNL     1      -0.145  12.900  19.985  0.00  0.00    +0.000 A 
ATOM     27  C   UNL     1       0.717  13.774  19.327  0.00  0.00    +0.000 A 
ATOM     28  C   UNL     1       1.748  13.261  18.544  0.00  0.00    +0.000 A 
ATOM     29  C   UNL     1       1.906  11.882  18.417  0.00  0.00    +0.000 A 
ATOM     30  F   UNL     1       2.935  11.448  17.674  0.00  0.00    +0.000 F 
ENDBRANCH  20  23
ENDBRANCH   1  21
TORSDOF 3
ENDMDL
MODEL 3
REMARK VINA RESULT:      -8.3      2.520      8.420
REMARK  Name = 
REMARK  3 active torsions:
REMARK  status: ('A' for Active; 'I' for Inactive)
REMARK    1  A    between atoms: C_2  and  C_22
REMARK    2  A    between atoms: N_3  and  C_4
REMARK    3  A    between atoms: C_11  and  C_13
REMARK                            x       y       z     vdW  Elec       q    Type
REMARK                         _______ _______ _______ _____ _____    ______ ____
ROOT
ATOM      1  C   UNL     1       1.313   8.380  20.740  0.00  0.00    +0.000 A 
ATOM      2  C   UNL     1       0.428   7.988  21.741  0.00  0.00    +0.000 A 
ATOM      3  C   UNL     1      -0.328   8.935  22.421  0.00  0.00    +0.000 A 
ATOM      4  C   UNL     1      -0.233  10.294  22.098  0.00  0.00    +0.000 A 
ATOM      5  C   UNL     1       0.640  10.720  21.073  0.00  0.00    +0.000 A 
ATOM      6  C   UNL     1       1.432   9.745  20.435  0.00  0.00    +0.000 A 
ATOM      7  N   UNL     1       0.689  12.120  20.707  0.00  0.00    +0.000 N 
ATOM      8  C   UNL     1       1.115  12.531  19.419  0.00  0.00    +0.000 C 
ATOM      9  O   UNL     1       1.422  11.769  18.497  0.00  0.00    +0.000 OA
ATOM     10  C   UNL     1       0.145  13.035  21.725  0.00  0.00    +0.000 C 
ATOM     11  C   UNL     1      -1.204  12.596  22.251  0.00  0.00    +0.000 C 
ATOM     12  C   UNL     1      -1.086  11.238  22.899  0.00  0.00    +0.000 C 
ENDROOT
BRANCH   8  13
ATOM     13  C   UNL     1       1.126  13.979  19.055  0.00  0.00    +0.000 A 
ATOM     14  C   UNL     1       2.305  14.725  18.953  0.00  0.00    +0.000 A 
ATOM     15  C   UNL     1       2.246  16.108  18.772  0.00  0.00    +0.000 A 
ATOM     16  C   UNL     1       1.017  16.736  18.575  0.00  0.00    +0.000 A 
ATOM     17  C   UNL     1      -0.154  15.981  18.550  0.00  0.00    +0.000 A 
ATOM     18  C   UNL     1      -0.103  14.608  18.801  0.00  0.00    +0.000 A 
ENDBRANCH   8  13
BRANCH   1  21
ATOM     19  O   UNL     1       1.709   8.208  17.855  0.00  0.00    +0.000 OA
ATOM     20  C   UNL     1       2.221   7.413  18.635  0.00  0.00    +0.000 C 
ATOM     21  N   UNL     1       2.108   7.462  20.017  0.00  0.00    +0.000 N 
ATOM     22  H   UNL     1       2.729   6.877  20.567  0.00  0.00    +0.000 HD
BRANCH  20  23
ATOM     23  C   UNL     1       3.073   6.344  18.061  0.00  0.00    +0.000 A 
ATOM     24  C   UNL     1       4.328   6.590  17.516  0.00  0.00    +0.000 A 
ATOM     25  F   UNL     1       4.857   7.822  17.539  0.00  0.00    +0.000 F 
ATOM     26  C   UNL     1       5.070   5.567  16.922  0.00  0.00    +0.000 A 
ATOM     27  C   UNL     1       4.560   4.272  16.875  0.00  0.00    +0.000 A 
ATOM     28  C   UNL     1       3.311   4.005  17.429  0.00  0.00    +0.000 A 
ATOM     29  C   UNL     1       2.578   5.033  18.020  0.00  0.00    +0.000 A 
ATOM     30  F   UNL     1       1.395   4.710  18.563  0.00  0.00    +0.000 F 
ENDBRANCH  20  23
ENDBRANCH   1  21
TORSDOF 3
ENDMDL
MODEL 4
REMARK VINA RESULT:      -8.3      2.554      8.163
REMARK  Name = 
REMARK  3 active torsions:
REMARK  status: ('A' for Active; 'I' for Inactive)
REMARK    1  A    between atoms: C_2  and  C_22
REMARK    2  A    between atoms: N_3  and  C_4
REMARK    3  A    between atoms: C_11  and  C_13
REMARK                            x       y       z     vdW  Elec       q    Type
REMARK                         _______ _______ _______ _____ _____    ______ ____
ROOT
ATOM      1  C   UNL     1       2.616   6.710  19.004  0.00  0.00    +0.000 A 
ATOM      2  C   UNL     1       1.990   5.949  19.986  0.00  0.00    +0.000 A 
ATOM      3  C   UNL     1       1.196   6.559  20.949  0.00  0.00    +0.000 A 
ATOM      4  C   UNL     1       0.991   7.944  20.935  0.00  0.00    +0.000 A 
ATOM      5  C   UNL     1       1.595   8.740  19.938  0.00  0.00    +0.000 A 
ATOM      6  C   UNL     1       2.436   8.103  19.005  0.00  0.00    +0.000 A 
ATOM      7  N   UNL     1       1.330  10.164  19.898  0.00  0.00    +0.000 N 
ATOM      8  C   UNL     1       1.460  10.904  18.696  0.00  0.00    +0.000 C 
ATOM      9  O   UNL     1       1.747  10.424  17.595  0.00  0.00    +0.000 OA
ATOM     10  C   UNL     1       0.803  10.721  21.155  0.00  0.00    +0.000 C 
ATOM     11  C   UNL     1      -0.342   9.911  21.724  0.00  0.00    +0.000 C 
ATOM     12  C   UNL     1       0.123   8.507  22.026  0.00  0.00    +0.000 C 
ENDROOT
BRANCH   8  13
ATOM     13  C   UNL     1       1.151  12.365  18.674  0.00  0.00    +0.000 A 
ATOM     14  C   UNL     1       2.141  13.350  18.749  0.00  0.00    +0.000 A 
ATOM     15  C   UNL     1       1.785  14.692  18.889  0.00  0.00    +0.000 A 
ATOM     16  C   UNL     1       0.445  15.070  18.836  0.00  0.00    +0.000 A 
ATOM     17  C   UNL     1      -0.542  14.106  18.634  0.00  0.00    +0.000 A 
ATOM     18  C   UNL     1      -0.193  12.756  18.565  0.00  0.00    +0.000 A 
ENDBRANCH   8  13
BRANCH   1  21
ATOM     19  O   UNL     1       5.273   5.541  19.284  0.00  0.00    +0.000 OA
ATOM     20  C   UNL     1       4.712   5.637  18.199  0.00  0.00    +0.000 C 
ATOM     21  N   UNL     1       3.436   6.144  18.000  0.00  0.00    +0.000 N 
ATOM     22  H   UNL     1       2.999   5.996  17.096  0.00  0.00    +0.000 HD
BRANCH  20  23
ATOM     23  C   UNL     1       5.432   5.126  17.008  0.00  0.00    +0.000 A 
ATOM     24  C   UNL     1       6.576   5.732  16.500  0.00  0.00    +0.000 A 
ATOM     25  F   UNL     1       7.119   6.794  17.113  0.00  0.00    +0.000 F 
ATOM     26  C   UNL     1       7.186   5.262  15.336  0.00  0.00    +0.000 A 
ATOM     27  C   UNL     1       6.655   4.162  14.666  0.00  0.00    +0.000 A 
ATOM     28  C   UNL     1       5.519   3.534  15.169  0.00  0.00    +0.000 A 
ATOM     29  C   UNL     1       4.917   4.012  16.332  0.00  0.00    +0.000 A 
ATOM     30  F   UNL     1       3.843   3.348  16.785  0.00  0.00    +0.000 F 
ENDBRANCH  20  23
ENDBRANCH   1  21
TORSDOF 3
ENDMDL
MODEL 5
REMARK VINA RESULT:      -8.2      3.578      9.591
REMARK  Name = 
REMARK  3 active torsions:
REMARK  status: ('A' for Active; 'I' for Inactive)
REMARK    1  A    between atoms: C_2  and  C_22
REMARK    2  A    between atoms: N_3  and  C_4
REMARK    3  A    between atoms: C_11  and  C_13
REMARK                            x       y       z     vdW  Elec       q    Type
REMARK                         _______ _______ _______ _____ _____    ______ ____
ROOT
ATOM      1  C   UNL     1       1.810   8.516  19.500  0.00  0.00    +0.000 A 
ATOM      2  C   UNL     1       2.362   9.048  18.339  0.00  0.00    +0.000 A 
ATOM      3  C   UNL     1       2.019  10.328  17.920  0.00  0.00    +0.000 A 
ATOM      4  C   UNL     1       1.132  11.112  18.667  0.00  0.00    +0.000 A 
ATOM      5  C   UNL     1       0.572  10.607  19.861  0.00  0.00    +0.000 A 
ATOM      6  C   UNL     1       0.898   9.289  20.235  0.00  0.00    +0.000 A 
ATOM      7  N   UNL     1      -0.298  11.447  20.657  0.00  0.00    +0.000 N 
ATOM      8  C   UNL     1      -0.469  11.225  22.046  0.00  0.00    +0.000 C 
ATOM      9  O   UNL     1       0.123  10.364  22.704  0.00  0.00    +0.000 OA
ATOM     10  C   UNL     1      -0.866  12.597  19.932  0.00  0.00    +0.000 C 
ATOM     11  C   UNL     1       0.174  13.373  19.153  0.00  0.00    +0.000 C 
ATOM     12  C   UNL     1       0.818  12.478  18.123  0.00  0.00    +0.000 C 
ENDROOT
BRANCH   8  13
ATOM     13  C   UNL     1      -1.348  12.124  22.852  0.00  0.00    +0.000 A 
ATOM     14  C   UNL     1      -2.613  11.740  23.306  0.00  0.00    +0.000 A 
ATOM     15  C   UNL     1      -3.455  12.674  23.910  0.00  0.00    +0.000 A 
ATOM     16  C   UNL     1      -2.995  13.964  24.172  0.00  0.00    +0.000 A 
ATOM     17  C   UNL     1      -1.690  14.319  23.836  0.00  0.00    +0.000 A 
ATOM     18  C   UNL     1      -0.871  13.407  23.167  0.00  0.00    +0.000 A 
ENDBRANCH   8  13
BRANCH   1  21
ATOM     19  O   UNL     1       2.321   6.097  17.951  0.00  0.00    +0.000 OA
ATOM     20  C   UNL     1       2.316   6.101  19.177  0.00  0.00    +0.000 C 
ATOM     21  N   UNL     1       2.121   7.220  19.973  0.00  0.00    +0.000 N 
ATOM     22  H   UNL     1       2.331   7.144  20.963  0.00  0.00    +0.000 HD
BRANCH  20  23
ATOM     23  C   UNL     1       2.590   4.817  19.867  0.00  0.00    +0.000 A 
ATOM     24  C   UNL     1       3.818   4.168  19.793  0.00  0.00    +0.000 A 
ATOM     25  F   UNL     1       4.845   4.717  19.128  0.00  0.00    +0.000 F 
ATOM     26  C   UNL     1       4.016   2.927  20.400  0.00  0.00    +0.000 A 
ATOM     27  C   UNL     1       2.976   2.319  21.100  0.00  0.00    +0.000 A 
ATOM     28  C   UNL     1       1.745   2.961  21.196  0.00  0.00    +0.000 A 
ATOM     29  C   UNL     1       1.557   4.201  20.586  0.00  0.00    +0.000 A 
ATOM     30  F   UNL     1       0.359   4.785  20.738  0.00  0.00    +0.000 F 
ENDBRANCH  20  23
ENDBRANCH   1  21
TORSDOF 3
ENDMDL
MODEL 6
REMARK VINA RESULT:      -8.2      2.543      8.526
REMARK  Name = 
REMARK  3 active torsions:
REMARK  status: ('A' for Active; 'I' for Inactive)
REMARK    1  A    between atoms: C_2  and  C_22
REMARK    2  A    between atoms: N_3  and  C_4
REMARK    3  A    between atoms: C_11  and  C_13
REMARK                            x       y       z     vdW  Elec       q    Type
REMARK                         _______ _______ _______ _____ _____    ______ ____
ROOT
ATOM      1  C   UNL     1       1.301   8.380  20.723  0.00  0.00    +0.000 A 
ATOM      2  C   UNL     1       0.424   7.989  21.730  0.00  0.00    +0.000 A 
ATOM      3  C   UNL     1      -0.326   8.936  22.416  0.00  0.00    +0.000 A 
ATOM      4  C   UNL     1      -0.232  10.295  22.093  0.00  0.00    +0.000 A 
ATOM      5  C   UNL     1       0.633  10.720  21.061  0.00  0.00    +0.000 A 
ATOM      6  C   UNL     1       1.419   9.745  20.417  0.00  0.00    +0.000 A 
ATOM      7  N   UNL     1       0.680  12.121  20.695  0.00  0.00    +0.000 N 
ATOM      8  C   UNL     1       1.095  12.532  19.404  0.00  0.00    +0.000 C 
ATOM      9  O   UNL     1       1.394  11.771  18.480  0.00  0.00    +0.000 OA
ATOM     10  C   UNL     1       0.145  13.036  21.719  0.00  0.00    +0.000 C 
ATOM     11  C   UNL     1      -1.200  12.598  22.255  0.00  0.00    +0.000 C 
ATOM     12  C   UNL     1      -1.078  11.239  22.902  0.00  0.00    +0.000 C 
ENDROOT
BRANCH   8  13
ATOM     13  C   UNL     1       1.105  13.981  19.041  0.00  0.00    +0.000 A 
ATOM     14  C   UNL     1       2.283  14.723  18.918  0.00  0.00    +0.000 A 
ATOM     15  C   UNL     1       2.225  16.106  18.739  0.00  0.00    +0.000 A 
ATOM     16  C   UNL     1       0.996  16.737  18.564  0.00  0.00    +0.000 A 
ATOM     17  C   UNL     1      -0.178  15.986  18.559  0.00  0.00    +0.000 A 
ATOM     18  C   UNL     1      -0.127  14.613  18.809  0.00  0.00    +0.000 A 
ENDBRANCH   8  13
BRANCH   1  21
ATOM     19  O   UNL     1       1.726   8.251  17.840  0.00  0.00    +0.000 OA
ATOM     20  C   UNL     1       2.217   7.435  18.611  0.00  0.00    +0.000 C 
ATOM     21  N   UNL     1       2.089   7.462  19.992  0.00  0.00    +0.000 N 
ATOM     22  H   UNL     1       2.694   6.858  20.539  0.00  0.00    +0.000 HD
BRANCH  20  23
ATOM     23  C   UNL     1       3.058   6.361  18.028  0.00  0.00    +0.000 A 
ATOM     24  C   UNL     1       2.640   5.038  17.944  0.00  0.00    +0.000 A 
ATOM     25  F   UNL     1       1.411   4.679  18.344  0.00  0.00    +0.000 F 
ATOM     26  C   UNL     1       3.487   4.043  17.452  0.00  0.00    +0.000 A 
ATOM     27  C   UNL     1       4.773   4.370  17.026  0.00  0.00    +0.000 A 
ATOM     28  C   UNL     1       5.201   5.693  17.089  0.00  0.00    +0.000 A 
ATOM     29  C   UNL     1       4.348   6.679  17.583  0.00  0.00    +0.000 A 
ATOM     30  F   UNL     1       4.806   7.939  17.592  0.00  0.00    +0.000 F 
ENDBRANCH  20  23
ENDBRANCH   1  21
TORSDOF 3
ENDMDL
MODEL 7
REMARK VINA RESULT:      -8.2      1.017      1.443
REMARK  Name = 
REMARK  3 active torsions:
REMARK  status: ('A' for Active; 'I' for Inactive)
REMARK    1  A    between atoms: C_2  and  C_22
REMARK    2  A    between atoms: N_3  and  C_4
REMARK    3  A    between atoms: C_11  and  C_13
REMARK                            x       y       z     vdW  Elec       q    Type
REMARK                         _______ _______ _______ _____ _____    ______ ____
ROOT
ATOM      1  C   UNL     1       1.484   8.616  20.007  0.00  0.00    +0.000 A 
ATOM      2  C   UNL     1       0.913   7.895  21.051  0.00  0.00    +0.000 A 
ATOM      3  C   UNL     1       1.123   6.525  21.157  0.00  0.00    +0.000 A 
ATOM      4  C   UNL     1       1.929   5.851  20.233  0.00  0.00    +0.000 A 
ATOM      5  C   UNL     1       2.539   6.559  19.175  0.00  0.00    +0.000 A 
ATOM      6  C   UNL     1       2.269   7.937  19.062  0.00  0.00    +0.000 A 
ATOM      7  N   UNL     1       3.418   5.863  18.257  0.00  0.00    +0.000 N 
ATOM      8  C   UNL     1       4.424   6.552  17.535  0.00  0.00    +0.000 C 
ATOM      9  O   UNL     1       4.682   7.753  17.648  0.00  0.00    +0.000 OA
ATOM     10  C   UNL     1       3.254   4.399  18.250  0.00  0.00    +0.000 C 
ATOM     11  C   UNL     1       3.238   3.801  19.640  0.00  0.00    +0.000 C 
ATOM     12  C   UNL     1       2.084   4.368  20.430  0.00  0.00    +0.000 C 
ENDROOT
BRANCH   8  13
ATOM     13  C   UNL     1       5.338   5.806  16.618  0.00  0.00    +0.000 A 
ATOM     14  C   UNL     1       5.095   5.676  15.248  0.00  0.00    +0.000 A 
ATOM     15  C   UNL     1       5.892   4.833  14.471  0.00  0.00    +0.000 A 
ATOM     16  C   UNL     1       7.005   4.210  15.033  0.00  0.00    +0.000 A 
ATOM     17  C   UNL     1       7.327   4.435  16.370  0.00  0.00    +0.000 A 
ATOM     18  C   UNL     1       6.491   5.221  17.165  0.00  0.00    +0.000 A 
ENDBRANCH   8  13
BRANCH   1  21
ATOM     19  O   UNL     1      -0.220  10.016  18.099  0.00  0.00    +0.000 OA
ATOM     20  C   UNL     1       0.502  10.611  18.890  0.00  0.00    +0.000 C 
ATOM     21  N   UNL     1       1.305  10.009  19.849  0.00  0.00    +0.000 N 
ATOM     22  H   UNL     1       1.705  10.597  20.573  0.00  0.00    +0.000 HD
BRANCH  20  23
ATOM     23  C   UNL     1       0.481  12.093  18.856  0.00  0.00    +0.000 A 
ATOM     24  C   UNL     1       1.564  12.853  18.429  0.00  0.00    +0.000 A 
ATOM     25  F   UNL     1       2.677  12.264  17.967  0.00  0.00    +0.000 F 
ATOM     26  C   UNL     1       1.530  14.248  18.477  0.00  0.00    +0.000 A 
ATOM     27  C   UNL     1       0.395  14.903  18.950  0.00  0.00    +0.000 A 
ATOM     28  C   UNL     1      -0.704  14.156  19.367  0.00  0.00    +0.000 A 
ATOM     29  C   UNL     1      -0.660  12.764  19.316  0.00  0.00    +0.000 A 
ATOM     30  F   UNL     1      -1.759  12.100  19.704  0.00  0.00    +0.000 F 
ENDBRANCH  20  23
ENDBRANCH   1  21
TORSDOF 3
ENDMDL
MODEL 8
REMARK VINA RESULT:      -8.1      3.562      9.710
REMARK  Name = 
REMARK  3 active torsions:
REMARK  status: ('A' for Active; 'I' for Inactive)
REMARK    1  A    between atoms: C_2  and  C_22
REMARK    2  A    between atoms: N_3  and  C_4
REMARK    3  A    between atoms: C_11  and  C_13
REMARK                            x       y       z     vdW  Elec       q    Type
REMARK                         _______ _______ _______ _____ _____    ______ ____
ROOT
ATOM      1  C   UNL     1       1.792   8.520  19.499  0.00  0.00    +0.000 A 
ATOM      2  C   UNL     1       2.389   9.056  18.362  0.00  0.00    +0.000 A 
ATOM      3  C   UNL     1       2.098  10.355  17.961  0.00  0.00    +0.000 A 
ATOM      4  C   UNL     1       1.219  11.153  18.702  0.00  0.00    +0.000 A 
ATOM      5  C   UNL     1       0.614  10.643  19.872  0.00  0.00    +0.000 A 
ATOM      6  C   UNL     1       0.888   9.308  20.228  0.00  0.00    +0.000 A 
ATOM      7  N   UNL     1      -0.248  11.496  20.664  0.00  0.00    +0.000 N 
ATOM      8  C   UNL     1      -0.459  11.252  22.044  0.00  0.00    +0.000 C 
ATOM      9  O   UNL     1       0.088  10.360  22.699  0.00  0.00    +0.000 OA
ATOM     10  C   UNL     1      -0.760  12.678  19.949  0.00  0.00    +0.000 C 
ATOM     11  C   UNL     1       0.323  13.434  19.211  0.00  0.00    +0.000 C 
ATOM     12  C   UNL     1       0.963  12.538  18.178  0.00  0.00    +0.000 C 
ENDROOT
BRANCH   8  13
ATOM     13  C   UNL     1      -1.328  12.164  22.846  0.00  0.00    +0.000 A 
ATOM     14  C   UNL     1      -2.600  11.797  23.298  0.00  0.00    +0.000 A 
ATOM     15  C   UNL     1      -3.431  12.743  23.899  0.00  0.00    +0.000 A 
ATOM     16  C   UNL     1      -2.955  14.027  24.160  0.00  0.00    +0.000 A 
ATOM     17  C   UNL     1      -1.644  14.364  23.827  0.00  0.00    +0.000 A 
ATOM     18  C   UNL     1      -0.836  13.441  23.161  0.00  0.00    +0.000 A 
ENDBRANCH   8  13
BRANCH   1  21
ATOM     19  O   UNL     1       2.298   6.123  17.915  0.00  0.00    +0.000 OA
ATOM     20  C   UNL     1       2.245   6.100  19.139  0.00  0.00    +0.000 C 
ATOM     21  N   UNL     1       2.050   7.206  19.953  0.00  0.00    +0.000 N 
ATOM     22  H   UNL     1       2.220   7.102  20.948  0.00  0.00    +0.000 HD
BRANCH  20  23
ATOM     23  C   UNL     1       2.458   4.794  19.809  0.00  0.00    +0.000 A 
ATOM     24  C   UNL     1       1.475   4.165  20.564  0.00  0.00    +0.000 A 
ATOM     25  F   UNL     1       0.248   4.696  20.675  0.00  0.00    +0.000 F 
ATOM     26  C   UNL     1       1.736   2.969  21.236  0.00  0.00    +0.000 A 
ATOM     27  C   UNL     1       2.995   2.381  21.151  0.00  0.00    +0.000 A 
ATOM     28  C   UNL     1       3.987   2.990  20.386  0.00  0.00    +0.000 A 
ATOM     29  C   UNL     1       3.716   4.184  19.719  0.00  0.00    +0.000 A 
ATOM     30  F   UNL     1       4.701   4.708  18.975  0.00  0.00    +0.000 F 
ENDBRANCH  20  23
ENDBRANCH   1  21
TORSDOF 3
ENDMDL
MODEL 9
REMARK VINA RESULT:      -8.1      0.981      2.053
REMARK  Name = 
REMARK  3 active torsions:
REMARK  status: ('A' for Active; 'I' for Inactive)
REMARK    1  A    between atoms: C_2  and  C_22
REMARK    2  A    between atoms: N_3  and  C_4
REMARK    3  A    between atoms: C_11  and  C_13
REMARK                            x       y       z     vdW  Elec       q    Type
REMARK                         _______ _______ _______ _____ _____    ______ ____
ROOT
ATOM      1  C   UNL     1       1.502   8.536  20.047  0.00  0.00    +0.000 A 
ATOM      2  C   UNL     1       0.928   7.797  21.077  0.00  0.00    +0.000 A 
ATOM      3  C   UNL     1       1.125   6.423  21.151  0.00  0.00    +0.000 A 
ATOM      4  C   UNL     1       1.921   5.763  20.208  0.00  0.00    +0.000 A 
ATOM      5  C   UNL     1       2.535   6.489  19.164  0.00  0.00    +0.000 A 
ATOM      6  C   UNL     1       2.277   7.872  19.084  0.00  0.00    +0.000 A 
ATOM      7  N   UNL     1       3.403   5.806  18.228  0.00  0.00    +0.000 N 
ATOM      8  C   UNL     1       4.414   6.502  17.518  0.00  0.00    +0.000 C 
ATOM      9  O   UNL     1       4.683   7.698  17.657  0.00  0.00    +0.000 OA
ATOM     10  C   UNL     1       3.226   4.344  18.188  0.00  0.00    +0.000 C 
ATOM     11  C   UNL     1       3.210   3.715  19.564  0.00  0.00    +0.000 C 
ATOM     12  C   UNL     1       2.063   4.275  20.371  0.00  0.00    +0.000 C 
ENDROOT
BRANCH   8  13
ATOM     13  C   UNL     1       5.317   5.768  16.581  0.00  0.00    +0.000 A 
ATOM     14  C   UNL     1       5.073   5.680  15.207  0.00  0.00    +0.000 A 
ATOM     15  C   UNL     1       5.859   4.847  14.409  0.00  0.00    +0.000 A 
ATOM     16  C   UNL     1       6.962   4.193  14.953  0.00  0.00    +0.000 A 
ATOM     17  C   UNL     1       7.287   4.376  16.296  0.00  0.00    +0.000 A 
ATOM     18  C   UNL     1       6.461   5.152  17.112  0.00  0.00    +0.000 A 
ENDBRANCH   8  13
BRANCH   1  21
ATOM     19  O   UNL     1      -0.115   9.998  18.110  0.00  0.00    +0.000 OA
ATOM     20  C   UNL     1       0.576  10.567  18.947  0.00  0.00    +0.000 C 
ATOM     21  N   UNL     1       1.335   9.935  19.921  0.00  0.00    +0.000 N 
ATOM     22  H   UNL     1       1.707  10.500  20.677  0.00  0.00    +0.000 HD
BRANCH  20  23
ATOM     23  C   UNL     1       0.562  12.050  18.954  0.00  0.00    +0.000 A 
ATOM     24  C   UNL     1      -0.542  12.791  19.360  0.00  0.00    +0.000 A 
ATOM     25  F   UNL     1      -1.644  12.184  19.825  0.00  0.00    +0.000 F 
ATOM     26  C   UNL     1      -0.541  14.186  19.287  0.00  0.00    +0.000 A 
ATOM     27  C   UNL     1       0.581  14.859  18.809  0.00  0.00    +0.000 A 
ATOM     28  C   UNL     1       1.700  14.132  18.413  0.00  0.00    +0.000 A 
ATOM     29  C   UNL     1       1.689  12.740  18.489  0.00  0.00    +0.000 A 
ATOM     30  F   UNL     1       2.807  12.096  18.121  0.00  0.00    +0.000 F 
ENDBRANCH  20  23
ENDBRANCH   1  21
TORSDOF 3
ENDMDL
