MODEL 1
REMARK VINA RESULT:      -8.3      0.000      0.000
REMARK  Name = 
REMARK  6 active torsions:
REMARK  status: ('A' for Active; 'I' for Inactive)
REMARK    1  A    between atoms: C_1  and  C_2
REMARK    2  A    between atoms: C_7  and  C_8
REMARK    3  A    between atoms: C_14  and  C_15
REMARK    4  A    between atoms: C_15  and  O_16
REMARK    5  A    between atoms: O_16  and  C_17
REMARK    6  A    between atoms: C_20  and  C_21
REMARK                            x       y       z     vdW  Elec       q    Type
REMARK                         _______ _______ _______ _____ _____    ______ ____
ROOT
ATOM      1  C   UNL     1      -0.053   8.966  20.966  0.00  0.00    +0.000 C 
ENDROOT
BRANCH   1   8
ATOM      2  C   UNL     1      -1.078  11.493  22.492  0.00  0.00    +0.000 C 
ATOM      3  O   UNL     1      -0.487  10.706  23.229  0.00  0.00    +0.000 OA
ATOM      4  N   UNL     1      -1.121  11.305  21.106  0.00  0.00    +0.000 N 
ATOM      5  C   UNL     1      -1.877  12.090  20.138  0.00  0.00    +0.000 C 
ATOM      6  C   UNL     1      -1.973  11.197  18.928  0.00  0.00    +0.000 C 
ATOM      7  C   UNL     1      -0.597  10.546  18.910  0.00  0.00    +0.000 C 
ATOM      8  C   UNL     1      -0.188  10.400  20.397  0.00  0.00    +0.000 C 
BRANCH   2  15
ATOM      9  C   UNL     1       0.091  14.343  22.379  0.00  0.00    +0.000 C 
ATOM     10  C   UNL     1      -1.198  13.991  23.074  0.00  0.00    +0.000 A 
ATOM     11  C   UNL     1      -1.887  15.038  23.725  0.00  0.00    +0.000 A 
ATOM     12  C   UNL     1      -3.099  14.816  24.374  0.00  0.00    +0.000 A 
ATOM     13  C   UNL     1      -3.675  13.558  24.345  0.00  0.00    +0.000 A 
ATOM     14  C   UNL     1      -3.017  12.518  23.687  0.00  0.00    +0.000 A 
ATOM     15  C   UNL     1      -1.743  12.689  23.114  0.00  0.00    +0.000 A 
ENDBRANCH   2  15
ENDBRANCH   1   8
BRANCH   1  16
ATOM     16  O   UNL     1       1.313   8.556  21.135  0.00  0.00    +0.000 OA
BRANCH  16  17
ATOM     17  C   UNL     1       1.845   7.689  20.228  0.00  0.00    +0.000 A 
ATOM     18  C   UNL     1       2.214   8.038  18.932  0.00  0.00    +0.000 A 
ATOM     19  C   UNL     1       2.924   7.144  18.149  0.00  0.00    +0.000 A 
ATOM     20  C   UNL     1       3.056   5.815  18.549  0.00  0.00    +0.000 A 
ATOM     21  C   UNL     1       2.690   5.450  19.847  0.00  0.00    +0.000 A 
ATOM     22  C   UNL     1       2.102   6.399  20.689  0.00  0.00    +0.000 A 
BRANCH  20  23
ATOM     23  C   UNL     1       3.530   4.792  17.596  0.00  0.00    +0.000 C 
ATOM     24  O   UNL     1       2.681   4.104  17.038  0.00  0.00    +0.000 OA
ATOM     25  N   UNL     1       4.904   4.673  17.361  0.00  0.00    +0.000 N 
ATOM     26  C   UNL     1       5.994   5.483  17.937  0.00  0.00    +0.000 C 
ATOM     27  C   UNL     1       6.953   5.998  16.866  0.00  0.00    +0.000 C 
ATOM     28  O   UNL     1       7.417   4.939  16.026  0.00  0.00    +0.000 OA
ATOM     29  C   UNL     1       6.307   4.282  15.396  0.00  0.00    +0.000 C 
ATOM     30  C   UNL     1       5.377   3.651  16.430  0.00  0.00    +0.000 C 
ENDBRANCH  20  23
ENDBRANCH  16  17
ENDBRANCH   1  16
TORSDOF 5
ENDMDL
MODEL 2
REMARK VINA RESULT:      -8.3      1.758      2.689
REMARK  Name = 
REMARK  6 active torsions:
REMARK  status: ('A' for Active; 'I' for Inactive)
REMARK    1  A    between atoms: C_1  and  C_2
REMARK    2  A    between atoms: C_7  and  C_8
REMARK    3  A    between atoms: C_14  and  C_15
REMARK    4  A    between atoms: C_15  and  O_16
REMARK    5  A    between atoms: O_16  and  C_17
REMARK    6  A    between atoms: C_20  and  C_21
REMARK                            x       y       z     vdW  Elec       q    Type
REMARK                         _______ _______ _______ _____ _____    ______ ____
ROOT
ATOM      1  C   UNL     1       0.914  11.477  19.790  0.00  0.00    +0.000 C 
ENDROOT
BRANCH   1   8
ATOM      2  C   UNL     1      -1.173  12.725  21.753  0.00  0.00    +0.000 C 
ATOM      3  O   UNL     1      -0.045  12.668  22.239  0.00  0.00    +0.000 OA
ATOM      4  N   UNL     1      -1.408  12.401  20.413  0.00  0.00    +0.000 N 
ATOM      5  C   UNL     1      -2.701  12.314  19.746  0.00  0.00    +0.000 C 
ATOM      6  C   UNL     1      -2.435  11.474  18.523  0.00  0.00    +0.000 C 
ATOM      7  C   UNL     1      -1.061  11.972  18.095  0.00  0.00    +0.000 C 
ATOM      8  C   UNL     1      -0.322  12.330  19.409  0.00  0.00    +0.000 C 
BRANCH   2  15
ATOM      9  C   UNL     1      -2.243  15.616  21.795  0.00  0.00    +0.000 C 
ATOM     10  C   UNL     1      -2.784  14.507  22.660  0.00  0.00    +0.000 A 
ATOM     11  C   UNL     1      -3.829  14.835  23.552  0.00  0.00    +0.000 A 
ATOM     12  C   UNL     1      -4.411  13.873  24.375  0.00  0.00    +0.000 A 
ATOM     13  C   UNL     1      -3.998  12.555  24.289  0.00  0.00    +0.000 A 
ATOM     14  C   UNL     1      -2.981  12.211  23.397  0.00  0.00    +0.000 A 
ATOM     15  C   UNL     1      -2.305  13.179  22.632  0.00  0.00    +0.000 A 
ENDBRANCH   2  15
ENDBRANCH   1   8
BRANCH   1  16
ATOM     16  O   UNL     1       0.569  10.152  20.221  0.00  0.00    +0.000 OA
BRANCH  16  17
ATOM     17  C   UNL     1       1.309   9.107  19.752  0.00  0.00    +0.000 A 
ATOM     18  C   UNL     1       1.623   7.972  20.496  0.00  0.00    +0.000 A 
ATOM     19  C   UNL     1       2.208   6.880  19.879  0.00  0.00    +0.000 A 
ATOM     20  C   UNL     1       2.713   6.994  18.585  0.00  0.00    +0.000 A 
ATOM     21  C   UNL     1       2.405   8.127  17.827  0.00  0.00    +0.000 A 
ATOM     22  C   UNL     1       1.685   9.173  18.412  0.00  0.00    +0.000 A 
BRANCH  20  23
ATOM     23  C   UNL     1       3.605   5.954  18.036  0.00  0.00    +0.000 C 
ATOM     24  O   UNL     1       4.802   6.214  17.971  0.00  0.00    +0.000 OA
ATOM     25  N   UNL     1       3.054   4.730  17.643  0.00  0.00    +0.000 N 
ATOM     26  C   UNL     1       1.645   4.303  17.731  0.00  0.00    +0.000 C 
ATOM     27  C   UNL     1       1.501   2.928  18.378  0.00  0.00    +0.000 C 
ATOM     28  O   UNL     1       2.348   1.963  17.750  0.00  0.00    +0.000 OA
ATOM     29  C   UNL     1       3.719   2.383  17.821  0.00  0.00    +0.000 C 
ATOM     30  C   UNL     1       3.932   3.704  17.085  0.00  0.00    +0.000 C 
ENDBRANCH  20  23
ENDBRANCH  16  17
ENDBRANCH   1  16
TORSDOF 5
ENDMDL
MODEL 3
REMARK VINA RESULT:      -8.1      1.922      3.008
REMARK  Name = 
REMARK  6 active torsions:
REMARK  status: ('A' for Active; 'I' for Inactive)
REMARK    1  A    between atoms: C_1  and  C_2
REMARK    2  A    between atoms: C_7  and  C_8
REMARK    3  A    between atoms: C_14  and  C_15
REMARK    4  A    between atoms: C_15  and  O_16
REMARK    5  A    between atoms: O_16  and  C_17
REMARK    6  A    between atoms: C_20  and  C_21
REMARK                            x       y       z     vdW  Elec       q    Type
REMARK                         _______ _______ _______ _____ _____    ______ ____
ROOT
ATOM      1  C   UNL     1       0.787  10.990  21.013  0.00  0.00    +0.000 C 
ENDROOT
BRANCH   1   8
ATOM      2  C   UNL     1      -1.023  12.874  22.728  0.00  0.00    +0.000 C 
ATOM      3  O   UNL     1      -0.696  11.856  23.334  0.00  0.00    +0.000 OA
ATOM      4  N   UNL     1      -0.489  13.180  21.471  0.00  0.00    +0.000 N 
ATOM      5  C   UNL     1      -0.874  14.283  20.600  0.00  0.00    +0.000 C 
ATOM      6  C   UNL     1      -0.384  13.870  19.236  0.00  0.00    +0.000 C 
ATOM      7  C   UNL     1       0.945  13.206  19.569  0.00  0.00    +0.000 C 
ATOM      8  C   UNL     1       0.740  12.537  20.952  0.00  0.00    +0.000 C 
BRANCH   2  15
ATOM      9  C   UNL     1      -4.070  12.733  22.277  0.00  0.00    +0.000 C 
ATOM     10  C   UNL     1      -3.397  13.751  23.161  0.00  0.00    +0.000 A 
ATOM     11  C   UNL     1      -4.226  14.702  23.796  0.00  0.00    +0.000 A 
ATOM     12  C   UNL     1      -3.701  15.668  24.652  0.00  0.00    +0.000 A 
ATOM     13  C   UNL     1      -2.345  15.673  24.932  0.00  0.00    +0.000 A 
ATOM     14  C   UNL     1      -1.516  14.726  24.329  0.00  0.00    +0.000 A 
ATOM     15  C   UNL     1      -2.003  13.808  23.381  0.00  0.00    +0.000 A 
ENDBRANCH   2  15
ENDBRANCH   1   8
BRANCH   1  16
ATOM     16  O   UNL     1       0.531  10.371  19.743  0.00  0.00    +0.000 OA
BRANCH  16  17
ATOM     17  C   UNL     1       1.277   9.285  19.392  0.00  0.00    +0.000 A 
ATOM     18  C   UNL     1       1.609   8.248  20.259  0.00  0.00    +0.000 A 
ATOM     19  C   UNL     1       2.199   7.096  19.767  0.00  0.00    +0.000 A 
ATOM     20  C   UNL     1       2.691   7.063  18.463  0.00  0.00    +0.000 A 
ATOM     21  C   UNL     1       2.365   8.097  17.582  0.00  0.00    +0.000 A 
ATOM     22  C   UNL     1       1.639   9.198  18.049  0.00  0.00    +0.000 A 
BRANCH  20  23
ATOM     23  C   UNL     1       3.588   5.974  18.030  0.00  0.00    +0.000 C 
ATOM     24  O   UNL     1       4.792   6.204  18.024  0.00  0.00    +0.000 OA
ATOM     25  N   UNL     1       3.030   4.741  17.676  0.00  0.00    +0.000 N 
ATOM     26  C   UNL     1       1.609   4.350  17.702  0.00  0.00    +0.000 C 
ATOM     27  C   UNL     1       1.393   3.018  18.417  0.00  0.00    +0.000 C 
ATOM     28  O   UNL     1       2.252   2.000  17.898  0.00  0.00    +0.000 OA
ATOM     29  C   UNL     1       3.625   2.395  18.028  0.00  0.00    +0.000 C 
ATOM     30  C   UNL     1       3.915   3.665  17.232  0.00  0.00    +0.000 C 
ENDBRANCH  20  23
ENDBRANCH  16  17
ENDBRANCH   1  16
TORSDOF 5
ENDMDL
MODEL 4
REMARK VINA RESULT:      -8.1      1.852      2.783
REMARK  Name = 
REMARK  6 active torsions:
REMARK  status: ('A' for Active; 'I' for Inactive)
REMARK    1  A    between atoms: C_1  and  C_2
REMARK    2  A    between atoms: C_7  and  C_8
REMARK    3  A    between atoms: C_14  and  C_15
REMARK    4  A    between atoms: C_15  and  O_16
REMARK    5  A    between atoms: O_16  and  C_17
REMARK    6  A    between atoms: C_20  and  C_21
REMARK                            x       y       z     vdW  Elec       q    Type
REMARK                         _______ _______ _______ _____ _____    ______ ____
ROOT
ATOM      1  C   UNL     1       1.097  11.086  20.982  0.00  0.00    +0.000 C 
ENDROOT
BRANCH   1   8
ATOM      2  C   UNL     1      -1.277  12.488  22.452  0.00  0.00    +0.000 C 
ATOM      3  O   UNL     1      -0.743  11.621  23.141  0.00  0.00    +0.000 OA
ATOM      4  N   UNL     1      -0.742  12.872  21.217  0.00  0.00    +0.000 N 
ATOM      5  C   UNL     1      -1.333  13.794  20.255  0.00  0.00    +0.000 C 
ATOM      6  C   UNL     1      -0.643  13.470  18.955  0.00  0.00    +0.000 C 
ATOM      7  C   UNL     1       0.783  13.199  19.417  0.00  0.00    +0.000 C 
ATOM      8  C   UNL     1       0.650  12.559  20.822  0.00  0.00    +0.000 C 
BRANCH   2  15
ATOM      9  C   UNL     1      -1.237  15.015  24.218  0.00  0.00    +0.000 C 
ATOM     10  C   UNL     1      -2.496  14.302  23.800  0.00  0.00    +0.000 A 
ATOM     11  C   UNL     1      -3.721  14.824  24.272  0.00  0.00    +0.000 A 
ATOM     12  C   UNL     1      -4.940  14.249  23.921  0.00  0.00    +0.000 A 
ATOM     13  C   UNL     1      -4.967  13.173  23.050  0.00  0.00    +0.000 A 
ATOM     14  C   UNL     1      -3.766  12.659  22.558  0.00  0.00    +0.000 A 
ATOM     15  C   UNL     1      -2.518  13.153  22.979  0.00  0.00    +0.000 A 
ENDBRANCH   2  15
ENDBRANCH   1   8
BRANCH   1  16
ATOM     16  O   UNL     1       0.549  10.220  19.976  0.00  0.00    +0.000 OA
BRANCH  16  17
ATOM     17  C   UNL     1       1.294   9.156  19.563  0.00  0.00    +0.000 A 
ATOM     18  C   UNL     1       1.669   8.095  20.383  0.00  0.00    +0.000 A 
ATOM     19  C   UNL     1       2.254   6.968  19.832  0.00  0.00    +0.000 A 
ATOM     20  C   UNL     1       2.699   6.984  18.512  0.00  0.00    +0.000 A 
ATOM     21  C   UNL     1       2.330   8.042  17.677  0.00  0.00    +0.000 A 
ATOM     22  C   UNL     1       1.609   9.117  18.206  0.00  0.00    +0.000 A 
BRANCH  20  23
ATOM     23  C   UNL     1       3.592   5.920  18.011  0.00  0.00    +0.000 C 
ATOM     24  O   UNL     1       4.792   6.170  17.959  0.00  0.00    +0.000 OA
ATOM     25  N   UNL     1       3.039   4.689  17.649  0.00  0.00    +0.000 N 
ATOM     26  C   UNL     1       1.625   4.274  17.726  0.00  0.00    +0.000 C 
ATOM     27  C   UNL     1       1.461   2.921  18.413  0.00  0.00    +0.000 C 
ATOM     28  O   UNL     1       2.311   1.931  17.831  0.00  0.00    +0.000 OA
ATOM     29  C   UNL     1       3.684   2.344  17.911  0.00  0.00    +0.000 C 
ATOM     30  C   UNL     1       3.919   3.639  17.138  0.00  0.00    +0.000 C 
ENDBRANCH  20  23
ENDBRANCH  16  17
ENDBRANCH   1  16
TORSDOF 5
ENDMDL
MODEL 5
REMARK VINA RESULT:      -8.1      0.464      1.316
REMARK  Name = 
REMARK  6 active torsions:
REMARK  status: ('A' for Active; 'I' for Inactive)
REMARK    1  A    between atoms: C_1  and  C_2
REMARK    2  A    between atoms: C_7  and  C_8
REMARK    3  A    between atoms: C_14  and  C_15
REMARK    4  A    between atoms: C_15  and  O_16
REMARK    5  A    between atoms: O_16  and  C_17
REMARK    6  A    between atoms: C_20  and  C_21
REMARK                            x       y       z     vdW  Elec       q    Type
REMARK                         _______ _______ _______ _____ _____    ______ ____
ROOT
ATOM      1  C   UNL     1      -0.190   8.903  21.077  0.00  0.00    +0.000 C 
ENDROOT
BRANCH   1   8
ATOM      2  C   UNL     1      -0.795  11.721  22.282  0.00  0.00    +0.000 C 
ATOM      3  O   UNL     1      -0.274  10.963  23.098  0.00  0.00    +0.000 OA
ATOM      4  N   UNL     1      -0.935  11.364  20.937  0.00  0.00    +0.000 N 
ATOM      5  C   UNL     1      -1.632  12.112  19.899  0.00  0.00    +0.000 C 
ATOM      6  C   UNL     1      -1.907  11.092  18.824  0.00  0.00    +0.000 C 
ATOM      7  C   UNL     1      -0.631  10.262  18.847  0.00  0.00    +0.000 C 
ATOM      8  C   UNL     1      -0.166  10.256  20.325  0.00  0.00    +0.000 C 
BRANCH   2  15
ATOM      9  C   UNL     1      -3.455  12.166  23.776  0.00  0.00    +0.000 C 
ATOM     10  C   UNL     1      -2.490  13.270  23.431  0.00  0.00    +0.000 A 
ATOM     11  C   UNL     1      -2.853  14.584  23.804  0.00  0.00    +0.000 A 
ATOM     12  C   UNL     1      -2.016  15.668  23.550  0.00  0.00    +0.000 A 
ATOM     13  C   UNL     1      -0.779  15.460  22.966  0.00  0.00    +0.000 A 
ATOM     14  C   UNL     1      -0.397  14.165  22.612  0.00  0.00    +0.000 A 
ATOM     15  C   UNL     1      -1.265  13.067  22.760  0.00  0.00    +0.000 A 
ENDBRANCH   2  15
ENDBRANCH   1   8
BRANCH   1  16
ATOM     16  O   UNL     1       1.123   8.380  21.332  0.00  0.00    +0.000 OA
BRANCH  16  17
ATOM     17  C   UNL     1       1.681   7.552  20.403  0.00  0.00    +0.000 A 
ATOM     18  C   UNL     1       2.138   7.969  19.156  0.00  0.00    +0.000 A 
ATOM     19  C   UNL     1       2.866   7.101  18.360  0.00  0.00    +0.000 A 
ATOM     20  C   UNL     1       2.932   5.747  18.680  0.00  0.00    +0.000 A 
ATOM     21  C   UNL     1       2.478   5.314  19.929  0.00  0.00    +0.000 A 
ATOM     22  C   UNL     1       1.870   6.229  20.795  0.00  0.00    +0.000 A 
BRANCH  20  23
ATOM     23  C   UNL     1       3.431   4.769  17.693  0.00  0.00    +0.000 C 
ATOM     24  O   UNL     1       2.596   4.126  17.065  0.00  0.00    +0.000 OA
ATOM     25  N   UNL     1       4.811   4.641  17.507  0.00  0.00    +0.000 N 
ATOM     26  C   UNL     1       5.888   5.401  18.169  0.00  0.00    +0.000 C 
ATOM     27  C   UNL     1       6.897   5.958  17.168  0.00  0.00    +0.000 C 
ATOM     28  O   UNL     1       7.380   4.939  16.290  0.00  0.00    +0.000 OA
ATOM     29  C   UNL     1       6.288   4.334  15.581  0.00  0.00    +0.000 C 
ATOM     30  C   UNL     1       5.308   3.663  16.541  0.00  0.00    +0.000 C 
ENDBRANCH  20  23
ENDBRANCH  16  17
ENDBRANCH   1  16
TORSDOF 5
ENDMDL
MODEL 6
REMARK VINA RESULT:      -8.1      1.823      2.744
REMARK  Name = 
REMARK  6 active torsions:
REMARK  status: ('A' for Active; 'I' for Inactive)
REMARK    1  A    between atoms: C_1  and  C_2
REMARK    2  A    between atoms: C_7  and  C_8
REMARK    3  A    between atoms: C_14  and  C_15
REMARK    4  A    between atoms: C_15  and  O_16
REMARK    5  A    between atoms: O_16  and  C_17
REMARK    6  A    between atoms: C_20  and  C_21
REMARK                            x       y       z     vdW  Elec       q    Type
REMARK                         _______ _______ _______ _____ _____    ______ ____
ROOT
ATOM      1  C   UNL     1      -0.669  10.177  19.332  0.00  0.00    +0.000 C 
ENDROOT
BRANCH   1   8
ATOM      2  C   UNL     1      -1.572  12.017  21.690  0.00  0.00    +0.000 C 
ATOM      3  O   UNL     1      -0.559  11.374  21.957  0.00  0.00    +0.000 OA
ATOM      4  N   UNL     1      -2.127  12.008  20.406  0.00  0.00    +0.000 N 
ATOM      5  C   UNL     1      -3.379  12.626  19.988  0.00  0.00    +0.000 C 
ATOM      6  C   UNL     1      -3.736  11.915  18.707  0.00  0.00    +0.000 C 
ATOM      7  C   UNL     1      -2.373  11.750  18.051  0.00  0.00    +0.000 C 
ATOM      8  C   UNL     1      -1.372  11.552  19.217  0.00  0.00    +0.000 C 
BRANCH   2  15
ATOM      9  C   UNL     1      -0.818  14.954  22.248  0.00  0.00    +0.000 C 
ATOM     10  C   UNL     1      -1.840  14.183  23.042  0.00  0.00    +0.000 A 
ATOM     11  C   UNL     1      -2.465  14.857  24.116  0.00  0.00    +0.000 A 
ATOM     12  C   UNL     1      -3.441  14.237  24.892  0.00  0.00    +0.000 A 
ATOM     13  C   UNL     1      -3.851  12.951  24.584  0.00  0.00    +0.000 A 
ATOM     14  C   UNL     1      -3.259  12.281  23.513  0.00  0.00    +0.000 A 
ATOM     15  C   UNL     1      -2.198  12.843  22.779  0.00  0.00    +0.000 A 
ENDBRANCH   2  15
ENDBRANCH   1   8
BRANCH   1  16
ATOM     16  O   UNL     1       0.757  10.263  19.191  0.00  0.00    +0.000 OA
BRANCH  16  17
ATOM     17  C   UNL     1       1.476   9.104  19.173  0.00  0.00    +0.000 A 
ATOM     18  C   UNL     1       1.561   8.217  20.243  0.00  0.00    +0.000 A 
ATOM     19  C   UNL     1       2.149   6.976  20.069  0.00  0.00    +0.000 A 
ATOM     20  C   UNL     1       2.875   6.702  18.911  0.00  0.00    +0.000 A 
ATOM     21  C   UNL     1       2.798   7.582  17.829  0.00  0.00    +0.000 A 
ATOM     22  C   UNL     1       2.078   8.775  17.960  0.00  0.00    +0.000 A 
BRANCH  20  23
ATOM     23  C   UNL     1       3.756   5.519  18.845  0.00  0.00    +0.000 C 
ATOM     24  O   UNL     1       4.904   5.648  19.257  0.00  0.00    +0.000 OA
ATOM     25  N   UNL     1       3.240   4.320  18.343  0.00  0.00    +0.000 N 
ATOM     26  C   UNL     1       1.868   4.051  17.875  0.00  0.00    +0.000 C 
ATOM     27  C   UNL     1       1.289   2.782  18.497  0.00  0.00    +0.000 C 
ATOM     28  O   UNL     1       2.171   1.670  18.335  0.00  0.00    +0.000 OA
ATOM     29  C   UNL     1       3.445   1.955  18.931  0.00  0.00    +0.000 C 
ATOM     30  C   UNL     1       4.115   3.152  18.262  0.00  0.00    +0.000 C 
ENDBRANCH  20  23
ENDBRANCH  16  17
ENDBRANCH   1  16
TORSDOF 5
ENDMDL
MODEL 7
REMARK VINA RESULT:      -8.0      1.655      2.572
REMARK  Name = 
REMARK  6 active torsions:
REMARK  status: ('A' for Active; 'I' for Inactive)
REMARK    1  A    between atoms: C_1  and  C_2
REMARK    2  A    between atoms: C_7  and  C_8
REMARK    3  A    between atoms: C_14  and  C_15
REMARK    4  A    between atoms: C_15  and  O_16
REMARK    5  A    between atoms: O_16  and  C_17
REMARK    6  A    between atoms: C_20  and  C_21
REMARK                            x       y       z     vdW  Elec       q    Type
REMARK                         _______ _______ _______ _____ _____    ______ ____
ROOT
ATOM      1  C   UNL     1      -0.484  10.021  19.529  0.00  0.00    +0.000 C 
ENDROOT
BRANCH   1   8
ATOM      2  C   UNL     1      -1.443  11.877  21.852  0.00  0.00    +0.000 C 
ATOM      3  O   UNL     1      -0.471  11.193  22.167  0.00  0.00    +0.000 OA
ATOM      4  N   UNL     1      -1.927  11.899  20.540  0.00  0.00    +0.000 N 
ATOM      5  C   UNL     1      -3.129  12.568  20.060  0.00  0.00    +0.000 C 
ATOM      6  C   UNL     1      -3.443  11.881  18.755  0.00  0.00    +0.000 C 
ATOM      7  C   UNL     1      -2.053  11.668  18.172  0.00  0.00    +0.000 C 
ATOM      8  C   UNL     1      -1.125  11.423  19.389  0.00  0.00    +0.000 C 
BRANCH   2  15
ATOM      9  C   UNL     1      -0.423  14.666  22.681  0.00  0.00    +0.000 C 
ATOM     10  C   UNL     1      -1.617  13.989  23.301  0.00  0.00    +0.000 A 
ATOM     11  C   UNL     1      -2.284  14.681  24.338  0.00  0.00    +0.000 A 
ATOM     12  C   UNL     1      -3.413  14.149  24.956  0.00  0.00    +0.000 A 
ATOM     13  C   UNL     1      -3.931  12.940  24.521  0.00  0.00    +0.000 A 
ATOM     14  C   UNL     1      -3.295  12.256  23.483  0.00  0.00    +0.000 A 
ATOM     15  C   UNL     1      -2.095  12.719  22.913  0.00  0.00    +0.000 A 
ENDBRANCH   2  15
ENDBRANCH   1   8
BRANCH   1  16
ATOM     16  O   UNL     1       0.952  10.058  19.520  0.00  0.00    +0.000 OA
BRANCH  16  17
ATOM     17  C   UNL     1       1.624   8.950  19.096  0.00  0.00    +0.000 A 
ATOM     18  C   UNL     1       2.173   8.803  17.825  0.00  0.00    +0.000 A 
ATOM     19  C   UNL     1       3.004   7.732  17.549  0.00  0.00    +0.000 A 
ATOM     20  C   UNL     1       3.098   6.669  18.446  0.00  0.00    +0.000 A 
ATOM     21  C   UNL     1       2.553   6.802  19.725  0.00  0.00    +0.000 A 
ATOM     22  C   UNL     1       1.833   7.956  20.051  0.00  0.00    +0.000 A 
BRANCH  20  23
ATOM     23  C   UNL     1       3.723   5.397  18.034  0.00  0.00    +0.000 C 
ATOM     24  O   UNL     1       4.939   5.392  17.872  0.00  0.00    +0.000 OA
ATOM     25  N   UNL     1       2.913   4.268  17.873  0.00  0.00    +0.000 N 
ATOM     26  C   UNL     1       1.459   4.158  18.095  0.00  0.00    +0.000 C 
ATOM     27  C   UNL     1       1.101   2.956  18.965  0.00  0.00    +0.000 C 
ATOM     28  O   UNL     1       1.690   1.754  18.465  0.00  0.00    +0.000 OA
ATOM     29  C   UNL     1       3.117   1.888  18.402  0.00  0.00    +0.000 C 
ATOM     30  C   UNL     1       3.527   3.010  17.451  0.00  0.00    +0.000 C 
ENDBRANCH  20  23
ENDBRANCH  16  17
ENDBRANCH   1  16
TORSDOF 5
ENDMDL
MODEL 8
REMARK VINA RESULT:      -8.0      0.609      1.617
REMARK  Name = 
REMARK  6 active torsions:
REMARK  status: ('A' for Active; 'I' for Inactive)
REMARK    1  A    between atoms: C_1  and  C_2
REMARK    2  A    between atoms: C_7  and  C_8
REMARK    3  A    between atoms: C_14  and  C_15
REMARK    4  A    between atoms: C_15  and  O_16
REMARK    5  A    between atoms: O_16  and  C_17
REMARK    6  A    between atoms: C_20  and  C_21
REMARK                            x       y       z     vdW  Elec       q    Type
REMARK                         _______ _______ _______ _____ _____    ______ ____
ROOT
ATOM      1  C   UNL     1      -0.120   9.494  20.744  0.00  0.00    +0.000 C 
ENDROOT
BRANCH   1   8
ATOM      2  C   UNL     1      -0.890  12.092  22.299  0.00  0.00    +0.000 C 
ATOM      3  O   UNL     1      -0.220  11.318  22.980  0.00  0.00    +0.000 OA
ATOM      4  N   UNL     1      -1.120  11.858  20.939  0.00  0.00    +0.000 N 
ATOM      5  C   UNL     1      -1.985  12.626  20.052  0.00  0.00    +0.000 C 
ATOM      6  C   UNL     1      -2.256  11.695  18.898  0.00  0.00    +0.000 C 
ATOM      7  C   UNL     1      -0.905  11.014  18.722  0.00  0.00    +0.000 C 
ATOM      8  C   UNL     1      -0.304  10.910  20.147  0.00  0.00    +0.000 C 
BRANCH   2  15
ATOM      9  C   UNL     1      -3.597  12.158  23.775  0.00  0.00    +0.000 C 
ATOM     10  C   UNL     1      -2.693  13.354  23.623  0.00  0.00    +0.000 A 
ATOM     11  C   UNL     1      -3.139  14.574  24.177  0.00  0.00    +0.000 A 
ATOM     12  C   UNL     1      -2.364  15.729  24.110  0.00  0.00    +0.000 A 
ATOM     13  C   UNL     1      -1.106  15.680  23.533  0.00  0.00    +0.000 A 
ATOM     14  C   UNL     1      -0.643  14.476  22.999  0.00  0.00    +0.000 A 
ATOM     15  C   UNL     1      -1.446  13.322  22.960  0.00  0.00    +0.000 A 
ENDBRANCH   2  15
ENDBRANCH   1   8
BRANCH   1  16
ATOM     16  O   UNL     1       1.260   9.129  20.907  0.00  0.00    +0.000 OA
BRANCH  16  17
ATOM     17  C   UNL     1       1.739   8.075  20.187  0.00  0.00    +0.000 A 
ATOM     18  C   UNL     1       1.872   6.782  20.685  0.00  0.00    +0.000 A 
ATOM     19  C   UNL     1       2.180   5.738  19.829  0.00  0.00    +0.000 A 
ATOM     20  C   UNL     1       2.601   6.002  18.527  0.00  0.00    +0.000 A 
ATOM     21  C   UNL     1       2.472   7.296  18.013  0.00  0.00    +0.000 A 
ATOM     22  C   UNL     1       2.021   8.325  18.845  0.00  0.00    +0.000 A 
BRANCH  20  23
ATOM     23  C   UNL     1       3.223   4.940  17.712  0.00  0.00    +0.000 C 
ATOM     24  O   UNL     1       2.477   4.110  17.203  0.00  0.00    +0.000 OA
ATOM     25  N   UNL     1       4.611   4.944  17.544  0.00  0.00    +0.000 N 
ATOM     26  C   UNL     1       5.584   5.922  18.067  0.00  0.00    +0.000 C 
ATOM     27  C   UNL     1       6.537   6.419  16.983  0.00  0.00    +0.000 C 
ATOM     28  O   UNL     1       7.147   5.332  16.284  0.00  0.00    +0.000 OA
ATOM     29  C   UNL     1       6.143   4.496  15.690  0.00  0.00    +0.000 C 
ATOM     30  C   UNL     1       5.232   3.884  16.751  0.00  0.00    +0.000 C 
ENDBRANCH  20  23
ENDBRANCH  16  17
ENDBRANCH   1  16
TORSDOF 5
ENDMDL
MODEL 9
REMARK VINA RESULT:      -7.9      2.855      9.953
REMARK  Name = 
REMARK  6 active torsions:
REMARK  status: ('A' for Active; 'I' for Inactive)
REMARK    1  A    between atoms: C_1  and  C_2
REMARK    2  A    between atoms: C_7  and  C_8
REMARK    3  A    between atoms: C_14  and  C_15
REMARK    4  A    between atoms: C_15  and  O_16
REMARK    5  A    between atoms: O_16  and  C_17
REMARK    6  A    between atoms: C_20  and  C_21
REMARK                            x       y       z     vdW  Elec       q    Type
REMARK                         _______ _______ _______ _____ _____    ______ ____
ROOT
ATOM      1  C   UNL     1       1.499   6.019  20.324  0.00  0.00    +0.000 C 
ENDROOT
BRANCH   1   8
ATOM      2  C   UNL     1       3.979   5.470  18.504  0.00  0.00    +0.000 C 
ATOM      3  O   UNL     1       3.657   6.656  18.516  0.00  0.00    +0.000 OA
ATOM      4  N   UNL     1       3.368   4.539  19.351  0.00  0.00    +0.000 N 
ATOM      5  C   UNL     1       3.569   3.095  19.357  0.00  0.00    +0.000 C 
ATOM      6  C   UNL     1       2.357   2.552  20.069  0.00  0.00    +0.000 C 
ATOM      7  C   UNL     1       2.146   3.590  21.162  0.00  0.00    +0.000 C 
ATOM      8  C   UNL     1       2.588   4.941  20.544  0.00  0.00    +0.000 C 
BRANCH   2  15
ATOM      9  C   UNL     1       6.968   5.459  19.260  0.00  0.00    +0.000 C 
ATOM     10  C   UNL     1       6.441   5.048  17.910  0.00  0.00    +0.000 A 
ATOM     11  C   UNL     1       7.390   4.657  16.939  0.00  0.00    +0.000 A 
ATOM     12  C   UNL     1       6.999   4.236  15.670  0.00  0.00    +0.000 A 
ATOM     13  C   UNL     1       5.653   4.148  15.359  0.00  0.00    +0.000 A 
ATOM     14  C   UNL     1       4.703   4.510  16.315  0.00  0.00    +0.000 A 
ATOM     15  C   UNL     1       5.071   5.038  17.567  0.00  0.00    +0.000 A 
ENDBRANCH   2  15
ENDBRANCH   1   8
BRANCH   1  16
ATOM     16  O   UNL     1       1.603   7.116  21.245  0.00  0.00    +0.000 OA
BRANCH  16  17
ATOM     17  C   UNL     1       1.110   8.329  20.863  0.00  0.00    +0.000 A 
ATOM     18  C   UNL     1       0.497   9.233  21.726  0.00  0.00    +0.000 A 
ATOM     19  C   UNL     1       0.206  10.515  21.293  0.00  0.00    +0.000 A 
ATOM     20  C   UNL     1       0.290  10.832  19.938  0.00  0.00    +0.000 A 
ATOM     21  C   UNL     1       0.903   9.935  19.060  0.00  0.00    +0.000 A 
ATOM     22  C   UNL     1       1.330   8.690  19.535  0.00  0.00    +0.000 A 
BRANCH  20  23
ATOM     23  C   UNL     1      -0.308  12.081  19.425  0.00  0.00    +0.000 C 
ATOM     24  O   UNL     1      -1.507  12.068  19.168  0.00  0.00    +0.000 OA
ATOM     25  N   UNL     1       0.506  13.209  19.280  0.00  0.00    +0.000 N 
ATOM     26  C   UNL     1       1.937  13.341  19.610  0.00  0.00    +0.000 C 
ATOM     27  C   UNL     1       2.220  14.582  20.453  0.00  0.00    +0.000 C 
ATOM     28  O   UNL     1       1.665  15.757  19.858  0.00  0.00    +0.000 OA
ATOM     29  C   UNL     1       0.248  15.607  19.689  0.00  0.00    +0.000 C 
ATOM     30  C   UNL     1      -0.079  14.443  18.758  0.00  0.00    +0.000 C 
ENDBRANCH  20  23
ENDBRANCH  16  17
ENDBRANCH   1  16
TORSDOF 5
ENDMDL
