MODEL 1
REMARK VINA RESULT:      -8.0      0.000      0.000
REMARK  Name = 
REMARK  9 active torsions:
REMARK  status: ('A' for Active; 'I' for Inactive)
REMARK    1  A    between atoms: N_1  and  C_2
REMARK    2  A    between atoms: C_2  and  C_4
REMARK    3  A    between atoms: C_6  and  C_7
REMARK    4  A    between atoms: N_9  and  C_10
REMARK    5  A    between atoms: C_10  and  C_11
REMARK    6  A    between atoms: C_11  and  C_12
REMARK    7  A    between atoms: C_11  and  C_14
REMARK    8  A    between atoms: C_18  and  C_19
REMARK    9  A    between atoms: C_19  and  O_20
REMARK                            x       y       z     vdW  Elec       q    Type
REMARK                         _______ _______ _______ _____ _____    ______ ____
ROOT
ATOM      1  C   UNL     1       2.218   7.820  18.828  0.00  0.00    +0.000 A 
ATOM      2  C   UNL     1       3.128   7.992  17.804  0.00  0.00    +0.000 A 
ATOM      3  N   UNL     1       3.915   6.869  17.728  0.00  0.00    +0.000 N 
ATOM      4  C   UNL     1       3.487   5.927  18.641  0.00  0.00    +0.000 A 
ATOM      5  C   UNL     1       3.951   4.626  18.917  0.00  0.00    +0.000 A 
ATOM      6  C   UNL     1       3.334   3.887  19.942  0.00  0.00    +0.000 A 
ATOM      7  C   UNL     1       2.274   4.446  20.656  0.00  0.00    +0.000 A 
ATOM      8  C   UNL     1       1.815   5.737  20.370  0.00  0.00    +0.000 A 
ATOM      9  C   UNL     1       2.430   6.502  19.354  0.00  0.00    +0.000 A 
ENDROOT
BRANCH   1  12
ATOM     10  C   UNL     1      -0.520  10.415  18.666  0.00  0.00    +0.000 A 
ATOM     11  C   UNL     1       0.393   9.412  18.300  0.00  0.00    +0.000 A 
ATOM     12  C   UNL     1       1.271   8.852  19.240  0.00  0.00    +0.000 A 
ATOM     13  C   UNL     1       1.212   9.295  20.569  0.00  0.00    +0.000 A 
ATOM     14  C   UNL     1       0.291  10.273  20.949  0.00  0.00    +0.000 A 
ATOM     15  C   UNL     1      -0.565  10.826  19.999  0.00  0.00    +0.000 A 
ATOM     16  F   UNL     1      -1.432  11.767  20.407  0.00  0.00    +0.000 F 
BRANCH  10  17
ATOM     17  C   UNL     1      -1.418  11.027  17.645  0.00  0.00    +0.000 C 
ATOM     18  S   UNL     1      -2.557  10.199  16.739  0.00  0.00    +0.000 S 
BRANCH  17  19
ATOM     19  N   UNL     1      -1.291  12.375  17.433  0.00  0.00    +0.000 N 
ATOM     20  H   UNL     1      -1.487  13.013  18.198  0.00  0.00    +0.000 HD
ATOM     21  H   UNL     1      -1.139  12.778  16.516  0.00  0.00    +0.000 HD
ENDBRANCH  17  19
ENDBRANCH  10  17
ENDBRANCH   1  12
BRANCH   3  22
ATOM     22  C   UNL     1       5.030   6.723  16.804  0.00  0.00    +0.000 C 
BRANCH  22  23
ATOM     23  C   UNL     1       6.362   6.385  17.492  0.00  0.00    +0.000 C 
BRANCH  23  24
ATOM     24  C   UNL     1       7.098   5.234  16.821  0.00  0.00    +0.000 C 
ATOM     25  F   UNL     1       7.816   4.561  17.758  0.00  0.00    +0.000 F 
ENDBRANCH  23  24
BRANCH  23  26
ATOM     26  C   UNL     1       7.255   7.620  17.474  0.00  0.00    +0.000 C 
ATOM     27  F   UNL     1       8.290   7.422  18.334  0.00  0.00    +0.000 F 
ENDBRANCH  23  26
ENDBRANCH  22  23
ENDBRANCH   3  22
BRANCH   6  28
ATOM     28  C   UNL     1       3.819   2.497  20.261  0.00  0.00    +0.000 C 
BRANCH  28  29
ATOM     29  O   UNL     1       5.118   2.287  19.725  0.00  0.00    +0.000 OA
ATOM     30  H   UNL     1       5.638   3.083  19.929  0.00  0.00    +0.000 HD
ENDBRANCH  28  29
ENDBRANCH   6  28
TORSDOF 9
ENDMDL
MODEL 2
REMARK VINA RESULT:      -8.0      3.080      4.809
REMARK  Name = 
REMARK  9 active torsions:
REMARK  status: ('A' for Active; 'I' for Inactive)
REMARK    1  A    between atoms: N_1  and  C_2
REMARK    2  A    between atoms: C_2  and  C_4
REMARK    3  A    between atoms: C_6  and  C_7
REMARK    4  A    between atoms: N_9  and  C_10
REMARK    5  A    between atoms: C_10  and  C_11
REMARK    6  A    between atoms: C_11  and  C_12
REMARK    7  A    between atoms: C_11  and  C_14
REMARK    8  A    between atoms: C_18  and  C_19
REMARK    9  A    between atoms: C_19  and  O_20
REMARK                            x       y       z     vdW  Elec       q    Type
REMARK                         _______ _______ _______ _____ _____    ______ ____
ROOT
ATOM      1  C   UNL     1       2.587   6.391  18.262  0.00  0.00    +0.000 A 
ATOM      2  C   UNL     1       1.988   5.169  18.491  0.00  0.00    +0.000 A 
ATOM      3  N   UNL     1       2.714   4.200  17.845  0.00  0.00    +0.000 N 
ATOM      4  C   UNL     1       3.828   4.758  17.252  0.00  0.00    +0.000 A 
ATOM      5  C   UNL     1       4.874   4.174  16.511  0.00  0.00    +0.000 A 
ATOM      6  C   UNL     1       5.885   5.002  15.991  0.00  0.00    +0.000 A 
ATOM      7  C   UNL     1       5.839   6.377  16.224  0.00  0.00    +0.000 A 
ATOM      8  C   UNL     1       4.801   6.947  16.968  0.00  0.00    +0.000 A 
ATOM      9  C   UNL     1       3.768   6.135  17.488  0.00  0.00    +0.000 A 
ENDROOT
BRANCH   1  12
ATOM     10  C   UNL     1       1.281   9.055  20.597  0.00  0.00    +0.000 A 
ATOM     11  C   UNL     1       1.821   7.853  20.111  0.00  0.00    +0.000 A 
ATOM     12  C   UNL     1       2.037   7.656  18.739  0.00  0.00    +0.000 A 
ATOM     13  C   UNL     1       1.723   8.695  17.849  0.00  0.00    +0.000 A 
ATOM     14  C   UNL     1       1.210   9.903  18.324  0.00  0.00    +0.000 A 
ATOM     15  C   UNL     1       0.992  10.075  19.690  0.00  0.00    +0.000 A 
ATOM     16  F   UNL     1       0.492  11.251  20.102  0.00  0.00    +0.000 F 
BRANCH  10  17
ATOM     17  C   UNL     1       1.020   9.231  22.055  0.00  0.00    +0.000 C 
ATOM     18  S   UNL     1      -0.470   9.577  22.735  0.00  0.00    +0.000 S 
BRANCH  17  19
ATOM     19  N   UNL     1       2.093   9.103  22.898  0.00  0.00    +0.000 N 
ATOM     20  H   UNL     1       2.492   9.937  23.315  0.00  0.00    +0.000 HD
ATOM     21  H   UNL     1       2.593   8.231  23.026  0.00  0.00    +0.000 HD
ENDBRANCH  17  19
ENDBRANCH  10  17
ENDBRANCH   1  12
BRANCH   3  22
ATOM     22  C   UNL     1       2.338   2.794  17.811  0.00  0.00    +0.000 C 
BRANCH  22  23
ATOM     23  C   UNL     1       2.333   2.121  19.192  0.00  0.00    +0.000 C 
BRANCH  23  24
ATOM     24  C   UNL     1       3.440   2.631  20.102  0.00  0.00    +0.000 C 
ATOM     25  F   UNL     1       4.644   2.290  19.570  0.00  0.00    +0.000 F 
ENDBRANCH  23  24
BRANCH  23  26
ATOM     26  C   UNL     1       0.987   2.374  19.861  0.00  0.00    +0.000 C 
ATOM     27  F   UNL     1       1.200   3.007  21.045  0.00  0.00    +0.000 F 
ENDBRANCH  23  26
ENDBRANCH  22  23
ENDBRANCH   3  22
BRANCH   6  28
ATOM     28  C   UNL     1       7.008   4.402  15.187  0.00  0.00    +0.000 C 
BRANCH  28  29
ATOM     29  O   UNL     1       7.751   5.419  14.530  0.00  0.00    +0.000 OA
ATOM     30  H   UNL     1       7.741   6.196  15.115  0.00  0.00    +0.000 HD
ENDBRANCH  28  29
ENDBRANCH   6  28
TORSDOF 9
ENDMDL
MODEL 3
REMARK VINA RESULT:      -8.0      4.497      8.093
REMARK  Name = 
REMARK  9 active torsions:
REMARK  status: ('A' for Active; 'I' for Inactive)
REMARK    1  A    between atoms: N_1  and  C_2
REMARK    2  A    between atoms: C_2  and  C_4
REMARK    3  A    between atoms: C_6  and  C_7
REMARK    4  A    between atoms: N_9  and  C_10
REMARK    5  A    between atoms: C_10  and  C_11
REMARK    6  A    between atoms: C_11  and  C_12
REMARK    7  A    between atoms: C_11  and  C_14
REMARK    8  A    between atoms: C_18  and  C_19
REMARK    9  A    between atoms: C_19  and  O_20
REMARK                            x       y       z     vdW  Elec       q    Type
REMARK                         _______ _______ _______ _____ _____    ______ ____
ROOT
ATOM      1  C   UNL     1       4.709   4.636  16.758  0.00  0.00    +0.000 A 
ATOM      2  C   UNL     1       4.530   3.536  17.573  0.00  0.00    +0.000 A 
ATOM      3  N   UNL     1       3.798   3.921  18.669  0.00  0.00    +0.000 N 
ATOM      4  C   UNL     1       3.431   5.246  18.553  0.00  0.00    +0.000 A 
ATOM      5  C   UNL     1       2.664   6.073  19.397  0.00  0.00    +0.000 A 
ATOM      6  C   UNL     1       2.468   7.418  19.037  0.00  0.00    +0.000 A 
ATOM      7  C   UNL     1       3.025   7.905  17.854  0.00  0.00    +0.000 A 
ATOM      8  C   UNL     1       3.779   7.074  17.018  0.00  0.00    +0.000 A 
ATOM      9  C   UNL     1       3.999   5.723  17.368  0.00  0.00    +0.000 A 
ENDROOT
BRANCH   1  12
ATOM     10  C   UNL     1       5.815   3.820  13.241  0.00  0.00    +0.000 A 
ATOM     11  C   UNL     1       5.061   3.876  14.425  0.00  0.00    +0.000 A 
ATOM     12  C   UNL     1       5.508   4.606  15.537  0.00  0.00    +0.000 A 
ATOM     13  C   UNL     1       6.721   5.305  15.444  0.00  0.00    +0.000 A 
ATOM     14  C   UNL     1       7.465   5.277  14.263  0.00  0.00    +0.000 A 
ATOM     15  C   UNL     1       7.011   4.536  13.174  0.00  0.00    +0.000 A 
ATOM     16  F   UNL     1       7.761   4.533  12.060  0.00  0.00    +0.000 F 
BRANCH  10  17
ATOM     17  C   UNL     1       5.344   3.006  12.085  0.00  0.00    +0.000 C 
ATOM     18  S   UNL     1       3.966   3.313  11.184  0.00  0.00    +0.000 S 
BRANCH  17  19
ATOM     19  N   UNL     1       6.102   1.917  11.740  0.00  0.00    +0.000 N 
ATOM     20  H   UNL     1       6.250   1.185  12.427  0.00  0.00    +0.000 HD
ATOM     21  H   UNL     1       6.633   1.865  10.879  0.00  0.00    +0.000 HD
ENDBRANCH  17  19
ENDBRANCH  10  17
ENDBRANCH   1  12
BRANCH   3  22
ATOM     22  C   UNL     1       3.473   3.035  19.778  0.00  0.00    +0.000 C 
BRANCH  22  23
ATOM     23  C   UNL     1       1.965   2.910  20.048  0.00  0.00    +0.000 C 
BRANCH  23  24
ATOM     24  C   UNL     1       1.300   1.840  19.196  0.00  0.00    +0.000 C 
ATOM     25  F   UNL     1       0.225   2.382  18.564  0.00  0.00    +0.000 F 
ENDBRANCH  23  24
BRANCH  23  26
ATOM     26  C   UNL     1       1.753   2.574  21.520  0.00  0.00    +0.000 C 
ATOM     27  F   UNL     1       2.239   3.595  22.275  0.00  0.00    +0.000 F 
ENDBRANCH  23  26
ENDBRANCH  22  23
ENDBRANCH   3  22
BRANCH   6  28
ATOM     28  C   UNL     1       1.660   8.323  19.929  0.00  0.00    +0.000 C 
BRANCH  28  29
ATOM     29  O   UNL     1       1.214   9.464  19.210  0.00  0.00    +0.000 OA
ATOM     30  H   UNL     1       1.825  10.189  19.425  0.00  0.00    +0.000 HD
ENDBRANCH  28  29
ENDBRANCH   6  28
TORSDOF 9
ENDMDL
MODEL 4
REMARK VINA RESULT:      -8.0      4.554      8.074
REMARK  Name = 
REMARK  9 active torsions:
REMARK  status: ('A' for Active; 'I' for Inactive)
REMARK    1  A    between atoms: N_1  and  C_2
REMARK    2  A    between atoms: C_2  and  C_4
REMARK    3  A    between atoms: C_6  and  C_7
REMARK    4  A    between atoms: N_9  and  C_10
REMARK    5  A    between atoms: C_10  and  C_11
REMARK    6  A    between atoms: C_11  and  C_12
REMARK    7  A    between atoms: C_11  and  C_14
REMARK    8  A    between atoms: C_18  and  C_19
REMARK    9  A    between atoms: C_19  and  O_20
REMARK                            x       y       z     vdW  Elec       q    Type
REMARK                         _______ _______ _______ _____ _____    ______ ____
ROOT
ATOM      1  C   UNL     1       4.784   4.504  16.730  0.00  0.00    +0.000 A 
ATOM      2  C   UNL     1       4.651   3.388  17.532  0.00  0.00    +0.000 A 
ATOM      3  N   UNL     1       3.950   3.744  18.658  0.00  0.00    +0.000 N 
ATOM      4  C   UNL     1       3.556   5.063  18.576  0.00  0.00    +0.000 A 
ATOM      5  C   UNL     1       2.804   5.863  19.457  0.00  0.00    +0.000 A 
ATOM      6  C   UNL     1       2.572   7.210  19.126  0.00  0.00    +0.000 A 
ATOM      7  C   UNL     1       3.080   7.725  17.933  0.00  0.00    +0.000 A 
ATOM      8  C   UNL     1       3.820   6.921  17.059  0.00  0.00    +0.000 A 
ATOM      9  C   UNL     1       4.075   5.569  17.380  0.00  0.00    +0.000 A 
ENDROOT
BRANCH   1  12
ATOM     10  C   UNL     1       5.793   3.750  13.170  0.00  0.00    +0.000 A 
ATOM     11  C   UNL     1       5.078   3.775  14.378  0.00  0.00    +0.000 A 
ATOM     12  C   UNL     1       5.542   4.507  15.482  0.00  0.00    +0.000 A 
ATOM     13  C   UNL     1       6.730   5.241  15.355  0.00  0.00    +0.000 A 
ATOM     14  C   UNL     1       7.435   5.244  14.150  0.00  0.00    +0.000 A 
ATOM     15  C   UNL     1       6.965   4.501  13.070  0.00  0.00    +0.000 A 
ATOM     16  F   UNL     1       7.677   4.529  11.931  0.00  0.00    +0.000 F 
BRANCH  10  17
ATOM     17  C   UNL     1       5.306   2.934  12.021  0.00  0.00    +0.000 C 
ATOM     18  S   UNL     1       3.953   3.277  11.096  0.00  0.00    +0.000 S 
BRANCH  17  19
ATOM     19  N   UNL     1       6.025   1.810  11.708  0.00  0.00    +0.000 N 
ATOM     20  H   UNL     1       6.615   1.390  12.419  0.00  0.00    +0.000 HD
ATOM     21  H   UNL     1       6.102   1.450  10.764  0.00  0.00    +0.000 HD
ENDBRANCH  17  19
ENDBRANCH  10  17
ENDBRANCH   1  12
BRANCH   3  22
ATOM     22  C   UNL     1       3.678   2.835  19.763  0.00  0.00    +0.000 C 
BRANCH  22  23
ATOM     23  C   UNL     1       2.276   2.207  19.716  0.00  0.00    +0.000 C 
BRANCH  23  24
ATOM     24  C   UNL     1       1.329   2.799  20.750  0.00  0.00    +0.000 C 
ATOM     25  F   UNL     1       2.049   3.523  21.647  0.00  0.00    +0.000 F 
ENDBRANCH  23  24
BRANCH  23  26
ATOM     26  C   UNL     1       1.686   2.418  18.326  0.00  0.00    +0.000 C 
ATOM     27  F   UNL     1       0.734   3.387  18.400  0.00  0.00    +0.000 F 
ENDBRANCH  23  26
ENDBRANCH  22  23
ENDBRANCH   3  22
BRANCH   6  28
ATOM     28  C   UNL     1       1.779   8.087  20.059  0.00  0.00    +0.000 C 
BRANCH  28  29
ATOM     29  O   UNL     1       1.184   9.162  19.347  0.00  0.00    +0.000 OA
ATOM     30  H   UNL     1       1.353   9.969  19.864  0.00  0.00    +0.000 HD
ENDBRANCH  28  29
ENDBRANCH   6  28
TORSDOF 9
ENDMDL
MODEL 5
REMARK VINA RESULT:      -8.0      1.425      1.484
REMARK  Name = 
REMARK  9 active torsions:
REMARK  status: ('A' for Active; 'I' for Inactive)
REMARK    1  A    between atoms: N_1  and  C_2
REMARK    2  A    between atoms: C_2  and  C_4
REMARK    3  A    between atoms: C_6  and  C_7
REMARK    4  A    between atoms: N_9  and  C_10
REMARK    5  A    between atoms: C_10  and  C_11
REMARK    6  A    between atoms: C_11  and  C_12
REMARK    7  A    between atoms: C_11  and  C_14
REMARK    8  A    between atoms: C_18  and  C_19
REMARK    9  A    between atoms: C_19  and  O_20
REMARK                            x       y       z     vdW  Elec       q    Type
REMARK                         _______ _______ _______ _____ _____    ______ ____
ROOT
ATOM      1  C   UNL     1       2.540   7.244  18.737  0.00  0.00    +0.000 A 
ATOM      2  C   UNL     1       3.576   7.589  17.892  0.00  0.00    +0.000 A 
ATOM      3  N   UNL     1       4.197   6.438  17.473  0.00  0.00    +0.000 N 
ATOM      4  C   UNL     1       3.538   5.334  17.974  0.00  0.00    +0.000 A 
ATOM      5  C   UNL     1       3.777   3.956  17.805  0.00  0.00    +0.000 A 
ATOM      6  C   UNL     1       2.948   3.035  18.469  0.00  0.00    +0.000 A 
ATOM      7  C   UNL     1       1.906   3.498  19.272  0.00  0.00    +0.000 A 
ATOM      8  C   UNL     1       1.671   4.868  19.429  0.00  0.00    +0.000 A 
ATOM      9  C   UNL     1       2.501   5.811  18.781  0.00  0.00    +0.000 A 
ENDROOT
BRANCH   1  12
ATOM     10  C   UNL     1       0.483  10.341  19.397  0.00  0.00    +0.000 A 
ATOM     11  C   UNL     1       1.272   9.374  18.752  0.00  0.00    +0.000 A 
ATOM     12  C   UNL     1       1.710   8.226  19.429  0.00  0.00    +0.000 A 
ATOM     13  C   UNL     1       1.329   8.042  20.767  0.00  0.00    +0.000 A 
ATOM     14  C   UNL     1       0.524   8.985  21.409  0.00  0.00    +0.000 A 
ATOM     15  C   UNL     1       0.108  10.124  20.723  0.00  0.00    +0.000 A 
ATOM     16  F   UNL     1      -0.661  11.007  21.381  0.00  0.00    +0.000 F 
BRANCH  10  17
ATOM     17  C   UNL     1       0.060  11.574  18.673  0.00  0.00    +0.000 C 
ATOM     18  S   UNL     1       0.882  13.033  18.688  0.00  0.00    +0.000 S 
BRANCH  17  19
ATOM     19  N   UNL     1      -1.098  11.502  17.945  0.00  0.00    +0.000 N 
ATOM     20  H   UNL     1      -1.166  10.821  17.196  0.00  0.00    +0.000 HD
ATOM     21  H   UNL     1      -1.845  12.182  18.026  0.00  0.00    +0.000 HD
ENDBRANCH  17  19
ENDBRANCH  10  17
ENDBRANCH   1  12
BRANCH   3  22
ATOM     22  C   UNL     1       5.378   6.419  16.621  0.00  0.00    +0.000 C 
BRANCH  22  23
ATOM     23  C   UNL     1       6.668   6.032  17.361  0.00  0.00    +0.000 C 
BRANCH  23  24
ATOM     24  C   UNL     1       7.378   4.844  16.728  0.00  0.00    +0.000 C 
ATOM     25  F   UNL     1       8.168   4.251  17.662  0.00  0.00    +0.000 F 
ENDBRANCH  23  24
BRANCH  23  26
ATOM     26  C   UNL     1       7.612   7.228  17.367  0.00  0.00    +0.000 C 
ATOM     27  F   UNL     1       8.323   7.217  18.526  0.00  0.00    +0.000 F 
ENDBRANCH  23  26
ENDBRANCH  22  23
ENDBRANCH   3  22
BRANCH   6  28
ATOM     28  C   UNL     1       3.191   1.557  18.310  0.00  0.00    +0.000 C 
BRANCH  28  29
ATOM     29  O   UNL     1       4.424   1.186  18.910  0.00  0.00    +0.000 OA
ATOM     30  H   UNL     1       5.116   1.721  18.483  0.00  0.00    +0.000 HD
ENDBRANCH  28  29
ENDBRANCH   6  28
TORSDOF 9
ENDMDL
MODEL 6
REMARK VINA RESULT:      -7.9      1.861      2.220
REMARK  Name = 
REMARK  9 active torsions:
REMARK  status: ('A' for Active; 'I' for Inactive)
REMARK    1  A    between atoms: N_1  and  C_2
REMARK    2  A    between atoms: C_2  and  C_4
REMARK    3  A    between atoms: C_6  and  C_7
REMARK    4  A    between atoms: N_9  and  C_10
REMARK    5  A    between atoms: C_10  and  C_11
REMARK    6  A    between atoms: C_11  and  C_12
REMARK    7  A    between atoms: C_11  and  C_14
REMARK    8  A    between atoms: C_18  and  C_19
REMARK    9  A    between atoms: C_19  and  O_20
REMARK                            x       y       z     vdW  Elec       q    Type
REMARK                         _______ _______ _______ _____ _____    ______ ____
ROOT
ATOM      1  C   UNL     1       2.469   7.494  18.782  0.00  0.00    +0.000 A 
ATOM      2  C   UNL     1       3.494   7.611  17.864  0.00  0.00    +0.000 A 
ATOM      3  N   UNL     1       4.262   6.474  17.924  0.00  0.00    +0.000 N 
ATOM      4  C   UNL     1       3.714   5.577  18.818  0.00  0.00    +0.000 A 
ATOM      5  C   UNL     1       4.117   4.282  19.197  0.00  0.00    +0.000 A 
ATOM      6  C   UNL     1       3.372   3.594  20.171  0.00  0.00    +0.000 A 
ATOM      7  C   UNL     1       2.249   4.199  20.735  0.00  0.00    +0.000 A 
ATOM      8  C   UNL     1       1.851   5.483  20.347  0.00  0.00    +0.000 A 
ATOM      9  C   UNL     1       2.593   6.196  19.380  0.00  0.00    +0.000 A 
ENDROOT
BRANCH   1  12
ATOM     10  C   UNL     1       0.090   9.778  20.621  0.00  0.00    +0.000 A 
ATOM     11  C   UNL     1       1.029   8.772  20.345  0.00  0.00    +0.000 A 
ATOM     12  C   UNL     1       1.501   8.557  19.041  0.00  0.00    +0.000 A 
ATOM     13  C   UNL     1       1.034   9.382  18.007  0.00  0.00    +0.000 A 
ATOM     14  C   UNL     1       0.119  10.401  18.276  0.00  0.00    +0.000 A 
ATOM     15  C   UNL     1      -0.347  10.592  19.575  0.00  0.00    +0.000 A 
ATOM     16  F   UNL     1      -1.230  11.582  19.786  0.00  0.00    +0.000 F 
BRANCH  10  17
ATOM     17  C   UNL     1      -0.431   9.966  22.005  0.00  0.00    +0.000 C 
ATOM     18  S   UNL     1      -0.861  11.434  22.685  0.00  0.00    +0.000 S 
BRANCH  17  19
ATOM     19  N   UNL     1      -0.559   8.843  22.779  0.00  0.00    +0.000 N 
ATOM     20  H   UNL     1       0.041   8.046  22.592  0.00  0.00    +0.000 HD
ATOM     21  H   UNL     1      -1.312   8.714  23.445  0.00  0.00    +0.000 HD
ENDBRANCH  17  19
ENDBRANCH  10  17
ENDBRANCH   1  12
BRANCH   3  22
ATOM     22  C   UNL     1       5.473   6.273  17.142  0.00  0.00    +0.000 C 
BRANCH  22  23
ATOM     23  C   UNL     1       6.757   6.248  17.986  0.00  0.00    +0.000 C 
BRANCH  23  24
ATOM     24  C   UNL     1       7.558   4.967  17.806  0.00  0.00    +0.000 C 
ATOM     25  F   UNL     1       7.499   4.588  16.502  0.00  0.00    +0.000 F 
ENDBRANCH  23  24
BRANCH  23  26
ATOM     26  C   UNL     1       7.629   7.436  17.595  0.00  0.00    +0.000 C 
ATOM     27  F   UNL     1       8.546   7.646  18.577  0.00  0.00    +0.000 F 
ENDBRANCH  23  26
ENDBRANCH  22  23
ENDBRANCH   3  22
BRANCH   6  28
ATOM     28  C   UNL     1       3.791   2.212  20.599  0.00  0.00    +0.000 C 
BRANCH  28  29
ATOM     29  O   UNL     1       5.063   1.886  20.056  0.00  0.00    +0.000 OA
ATOM     30  H   UNL     1       5.002   2.026  19.095  0.00  0.00    +0.000 HD
ENDBRANCH  28  29
ENDBRANCH   6  28
TORSDOF 9
ENDMDL
MODEL 7
REMARK VINA RESULT:      -7.9      2.919      4.536
REMARK  Name = 
REMARK  9 active torsions:
REMARK  status: ('A' for Active; 'I' for Inactive)
REMARK    1  A    between atoms: N_1  and  C_2
REMARK    2  A    between atoms: C_2  and  C_4
REMARK    3  A    between atoms: C_6  and  C_7
REMARK    4  A    between atoms: N_9  and  C_10
REMARK    5  A    between atoms: C_10  and  C_11
REMARK    6  A    between atoms: C_11  and  C_12
REMARK    7  A    between atoms: C_11  and  C_14
REMARK    8  A    between atoms: C_18  and  C_19
REMARK    9  A    between atoms: C_19  and  O_20
REMARK                            x       y       z     vdW  Elec       q    Type
REMARK                         _______ _______ _______ _____ _____    ______ ____
ROOT
ATOM      1  C   UNL     1       2.662   6.712  19.199  0.00  0.00    +0.000 A 
ATOM      2  C   UNL     1       2.452   5.629  20.028  0.00  0.00    +0.000 A 
ATOM      3  N   UNL     1       3.313   4.625  19.659  0.00  0.00    +0.000 N 
ATOM      4  C   UNL     1       4.139   5.059  18.643  0.00  0.00    +0.000 A 
ATOM      5  C   UNL     1       5.187   4.411  17.960  0.00  0.00    +0.000 A 
ATOM      6  C   UNL     1       5.853   5.096  16.928  0.00  0.00    +0.000 A 
ATOM      7  C   UNL     1       5.473   6.399  16.606  0.00  0.00    +0.000 A 
ATOM      8  C   UNL     1       4.436   7.037  17.294  0.00  0.00    +0.000 A 
ATOM      9  C   UNL     1       3.745   6.362  18.326  0.00  0.00    +0.000 A 
ENDROOT
BRANCH   1  12
ATOM     10  C   UNL     1       0.456   9.466  20.544  0.00  0.00    +0.000 A 
ATOM     11  C   UNL     1       1.239   8.303  20.460  0.00  0.00    +0.000 A 
ATOM     12  C   UNL     1       1.864   7.934  19.259  0.00  0.00    +0.000 A 
ATOM     13  C   UNL     1       1.715   8.761  18.137  0.00  0.00    +0.000 A 
ATOM     14  C   UNL     1       0.960   9.933  18.216  0.00  0.00    +0.000 A 
ATOM     15  C   UNL     1       0.337  10.276  19.414  0.00  0.00    +0.000 A 
ATOM     16  F   UNL     1      -0.383  11.410  19.444  0.00  0.00    +0.000 F 
BRANCH  10  17
ATOM     17  C   UNL     1      -0.234   9.821  21.817  0.00  0.00    +0.000 C 
ATOM     18  S   UNL     1      -0.583  11.378  22.326  0.00  0.00    +0.000 S 
BRANCH  17  19
ATOM     19  N   UNL     1      -0.605   8.785  22.633  0.00  0.00    +0.000 N 
ATOM     20  H   UNL     1      -0.126   7.895  22.546  0.00  0.00    +0.000 HD
ATOM     21  H   UNL     1      -1.423   8.819  23.231  0.00  0.00    +0.000 HD
ENDBRANCH  17  19
ENDBRANCH  10  17
ENDBRANCH   1  12
BRANCH   3  22
ATOM     22  C   UNL     1       3.328   3.305  20.272  0.00  0.00    +0.000 C 
BRANCH  22  23
ATOM     23  C   UNL     1       2.455   2.273  19.542  0.00  0.00    +0.000 C 
BRANCH  23  24
ATOM     24  C   UNL     1       1.258   2.902  18.843  0.00  0.00    +0.000 C 
ATOM     25  F   UNL     1       0.213   2.948  19.711  0.00  0.00    +0.000 F 
ENDBRANCH  23  24
BRANCH  23  26
ATOM     26  C   UNL     1       3.307   1.548  18.507  0.00  0.00    +0.000 C 
ATOM     27  F   UNL     1       2.933   1.961  17.267  0.00  0.00    +0.000 F 
ENDBRANCH  23  26
ENDBRANCH  22  23
ENDBRANCH   3  22
BRANCH   6  28
ATOM     28  C   UNL     1       6.970   4.419  16.177  0.00  0.00    +0.000 C 
BRANCH  28  29
ATOM     29  O   UNL     1       8.053   4.129  17.050  0.00  0.00    +0.000 OA
ATOM     30  H   UNL     1       8.432   4.984  17.320  0.00  0.00    +0.000 HD
ENDBRANCH  28  29
ENDBRANCH   6  28
TORSDOF 9
ENDMDL
MODEL 8
REMARK VINA RESULT:      -7.8      4.606      8.049
REMARK  Name = 
REMARK  9 active torsions:
REMARK  status: ('A' for Active; 'I' for Inactive)
REMARK    1  A    between atoms: N_1  and  C_2
REMARK    2  A    between atoms: C_2  and  C_4
REMARK    3  A    between atoms: C_6  and  C_7
REMARK    4  A    between atoms: N_9  and  C_10
REMARK    5  A    between atoms: C_10  and  C_11
REMARK    6  A    between atoms: C_11  and  C_12
REMARK    7  A    between atoms: C_11  and  C_14
REMARK    8  A    between atoms: C_18  and  C_19
REMARK    9  A    between atoms: C_19  and  O_20
REMARK                            x       y       z     vdW  Elec       q    Type
REMARK                         _______ _______ _______ _____ _____    ______ ____
ROOT
ATOM      1  C   UNL     1       4.790   4.611  16.723  0.00  0.00    +0.000 A 
ATOM      2  C   UNL     1       4.658   3.510  17.545  0.00  0.00    +0.000 A 
ATOM      3  N   UNL     1       3.946   3.882  18.660  0.00  0.00    +0.000 N 
ATOM      4  C   UNL     1       3.544   5.198  18.549  0.00  0.00    +0.000 A 
ATOM      5  C   UNL     1       2.781   6.009  19.410  0.00  0.00    +0.000 A 
ATOM      6  C   UNL     1       2.544   7.348  19.052  0.00  0.00    +0.000 A 
ATOM      7  C   UNL     1       3.057   7.843  17.853  0.00  0.00    +0.000 A 
ATOM      8  C   UNL     1       3.808   7.028  17.000  0.00  0.00    +0.000 A 
ATOM      9  C   UNL     1       4.070   5.684  17.348  0.00  0.00    +0.000 A 
ENDROOT
BRANCH   1  12
ATOM     10  C   UNL     1       5.819   3.813  13.179  0.00  0.00    +0.000 A 
ATOM     11  C   UNL     1       5.095   3.856  14.382  0.00  0.00    +0.000 A 
ATOM     12  C   UNL     1       5.557   4.596  15.481  0.00  0.00    +0.000 A 
ATOM     13  C   UNL     1       6.752   5.319  15.356  0.00  0.00    +0.000 A 
ATOM     14  C   UNL     1       7.466   5.304  14.156  0.00  0.00    +0.000 A 
ATOM     15  C   UNL     1       6.998   4.554  13.080  0.00  0.00    +0.000 A 
ATOM     16  F   UNL     1       7.719   4.564  11.947  0.00  0.00    +0.000 F 
BRANCH  10  17
ATOM     17  C   UNL     1       5.334   2.989  12.035  0.00  0.00    +0.000 C 
ATOM     18  S   UNL     1       6.097   1.624  11.436  0.00  0.00    +0.000 S 
BRANCH  17  19
ATOM     19  N   UNL     1       4.174   3.390  11.427  0.00  0.00    +0.000 N 
ATOM     20  H   UNL     1       3.624   4.127  11.855  0.00  0.00    +0.000 HD
ATOM     21  H   UNL     1       3.765   2.899  10.640  0.00  0.00    +0.000 HD
ENDBRANCH  17  19
ENDBRANCH  10  17
ENDBRANCH   1  12
BRANCH   3  22
ATOM     22  C   UNL     1       3.671   2.993  19.779  0.00  0.00    +0.000 C 
BRANCH  22  23
ATOM     23  C   UNL     1       2.276   2.351  19.731  0.00  0.00    +0.000 C 
BRANCH  23  24
ATOM     24  C   UNL     1       1.342   2.885  20.806  0.00  0.00    +0.000 C 
ATOM     25  F   UNL     1       0.458   3.747  20.236  0.00  0.00    +0.000 F 
ENDBRANCH  23  24
BRANCH  23  26
ATOM     26  C   UNL     1       1.657   2.614  18.362  0.00  0.00    +0.000 C 
ATOM     27  F   UNL     1       2.088   1.656  17.498  0.00  0.00    +0.000 F 
ENDBRANCH  23  26
ENDBRANCH  22  23
ENDBRANCH   3  22
BRANCH   6  28
ATOM     28  C   UNL     1       1.738   8.237  19.962  0.00  0.00    +0.000 C 
BRANCH  28  29
ATOM     29  O   UNL     1       1.712   7.709  21.280  0.00  0.00    +0.000 OA
ATOM     30  H   UNL     1       0.878   8.006  21.685  0.00  0.00    +0.000 HD
ENDBRANCH  28  29
ENDBRANCH   6  28
TORSDOF 9
ENDMDL
MODEL 9
REMARK VINA RESULT:      -7.7      2.994      4.621
REMARK  Name = 
REMARK  9 active torsions:
REMARK  status: ('A' for Active; 'I' for Inactive)
REMARK    1  A    between atoms: N_1  and  C_2
REMARK    2  A    between atoms: C_2  and  C_4
REMARK    3  A    between atoms: C_6  and  C_7
REMARK    4  A    between atoms: N_9  and  C_10
REMARK    5  A    between atoms: C_10  and  C_11
REMARK    6  A    between atoms: C_11  and  C_12
REMARK    7  A    between atoms: C_11  and  C_14
REMARK    8  A    between atoms: C_18  and  C_19
REMARK    9  A    between atoms: C_19  and  O_20
REMARK                            x       y       z     vdW  Elec       q    Type
REMARK                         _______ _______ _______ _____ _____    ______ ____
ROOT
ATOM      1  C   UNL     1       2.697   6.808  19.020  0.00  0.00    +0.000 A 
ATOM      2  C   UNL     1       2.495   5.760  19.895  0.00  0.00    +0.000 A 
ATOM      3  N   UNL     1       3.369   4.750  19.575  0.00  0.00    +0.000 N 
ATOM      4  C   UNL     1       4.195   5.147  18.544  0.00  0.00    +0.000 A 
ATOM      5  C   UNL     1       5.253   4.482  17.895  0.00  0.00    +0.000 A 
ATOM      6  C   UNL     1       5.916   5.127  16.837  0.00  0.00    +0.000 A 
ATOM      7  C   UNL     1       5.524   6.410  16.456  0.00  0.00    +0.000 A 
ATOM      8  C   UNL     1       4.477   7.068  17.111  0.00  0.00    +0.000 A 
ATOM      9  C   UNL     1       3.789   6.431  18.168  0.00  0.00    +0.000 A 
ENDROOT
BRANCH   1  12
ATOM     10  C   UNL     1       0.690   9.751  20.272  0.00  0.00    +0.000 A 
ATOM     11  C   UNL     1       1.480   8.590  20.240  0.00  0.00    +0.000 A 
ATOM     12  C   UNL     1       1.887   8.022  19.023  0.00  0.00    +0.000 A 
ATOM     13  C   UNL     1       1.509   8.647  17.825  0.00  0.00    +0.000 A 
ATOM     14  C   UNL     1       0.745   9.815  17.847  0.00  0.00    +0.000 A 
ATOM     15  C   UNL     1       0.341  10.357  19.065  0.00  0.00    +0.000 A 
ATOM     16  F   UNL     1      -0.397  11.479  19.039  0.00  0.00    +0.000 F 
BRANCH  10  17
ATOM     17  C   UNL     1       0.233  10.317  21.574  0.00  0.00    +0.000 C 
ATOM     18  S   UNL     1      -0.295   9.420  22.886  0.00  0.00    +0.000 S 
BRANCH  17  19
ATOM     19  N   UNL     1       0.244  11.681  21.697  0.00  0.00    +0.000 N 
ATOM     20  H   UNL     1       0.269  12.091  22.625  0.00  0.00    +0.000 HD
ATOM     21  H   UNL     1       0.095  12.307  20.914  0.00  0.00    +0.000 HD
ENDBRANCH  17  19
ENDBRANCH  10  17
ENDBRANCH   1  12
BRANCH   3  22
ATOM     22  C   UNL     1       3.395   3.459  20.246  0.00  0.00    +0.000 C 
BRANCH  22  23
ATOM     23  C   UNL     1       2.193   2.562  19.910  0.00  0.00    +0.000 C 
BRANCH  23  24
ATOM     24  C   UNL     1       0.905   3.029  20.573  0.00  0.00    +0.000 C 
ATOM     25  F   UNL     1       0.918   2.651  21.879  0.00  0.00    +0.000 F 
ENDBRANCH  23  24
BRANCH  23  26
ATOM     26  C   UNL     1       1.994   2.547  18.399  0.00  0.00    +0.000 C 
ATOM     27  F   UNL     1       0.971   3.386  18.085  0.00  0.00    +0.000 F 
ENDBRANCH  23  26
ENDBRANCH  22  23
ENDBRANCH   3  22
BRANCH   6  28
ATOM     28  C   UNL     1       7.044   4.430  16.122  0.00  0.00    +0.000 C 
BRANCH  28  29
ATOM     29  O   UNL     1       8.082   4.097  17.033  0.00  0.00    +0.000 OA
ATOM     30  H   UNL     1       8.814   4.715  16.863  0.00  0.00    +0.000 HD
ENDBRANCH  28  29
ENDBRANCH   6  28
TORSDOF 9
ENDMDL
