MODEL 1
REMARK VINA RESULT:      -8.4      0.000      0.000
REMARK  Name = 
REMARK  6 active torsions:
REMARK  status: ('A' for Active; 'I' for Inactive)
REMARK    1  A    between atoms: C_1  and  O_2
REMARK    2  A    between atoms: O_2  and  C_3
REMARK    3  A    between atoms: C_6  and  N_7
REMARK    4  A    between atoms: C_8  and  C_10
REMARK    5  A    between atoms: C_10  and  N_11
REMARK    6  A    between atoms: N_16  and  C_17
REMARK                            x       y       z     vdW  Elec       q    Type
REMARK                         _______ _______ _______ _____ _____    ______ ____
ROOT
ATOM      1  N   UNL     1       4.294   4.189  18.709  0.00  0.00    +0.000 N 
ATOM      2  N   UNL     1       4.074   3.951  17.363  0.00  0.00    +0.000 NA
ATOM      3  C   UNL     1       5.144   4.429  16.798  0.00  0.00    +0.000 A 
ATOM      4  N   UNL     1       5.369   4.388  15.458  0.00  0.00    +0.000 NA
ATOM      5  C   UNL     1       6.453   4.962  15.002  0.00  0.00    +0.000 A 
ATOM      6  N   UNL     1       6.724   4.973  13.649  0.00  0.00    +0.000 N 
ATOM      7  C   UNL     1       7.427   5.658  15.918  0.00  0.00    +0.000 A 
ATOM      8  C   UNL     1       7.176   5.602  17.229  0.00  0.00    +0.000 A 
ATOM      9  N   UNL     1       6.045   4.980  17.643  0.00  0.00    +0.000 N 
ATOM     10  C   UNL     1       5.530   4.823  18.904  0.00  0.00    +0.000 A 
ATOM     11  O   UNL     1       6.024   5.176  19.962  0.00  0.00    +0.000 OA
ATOM     12  H   UNL     1       7.481   5.557  13.321  0.00  0.00    +0.000 HD
ENDROOT
BRANCH   6  13
ATOM     13  C   UNL     1       6.481   3.898  12.763  0.00  0.00    +0.000 A 
ATOM     14  C   UNL     1       7.581   3.265  12.162  0.00  0.00    +0.000 A 
ATOM     15  C   UNL     1       7.397   2.188  11.291  0.00  0.00    +0.000 A 
ATOM     16  C   UNL     1       6.112   1.732  11.028  0.00  0.00    +0.000 A 
ATOM     17  F   UNL     1       5.937   0.685  10.212  0.00  0.00    +0.000 F 
ATOM     18  C   UNL     1       5.008   2.346  11.603  0.00  0.00    +0.000 A 
ATOM     19  C   UNL     1       5.192   3.436  12.457  0.00  0.00    +0.000 A 
ENDBRANCH   6  13
BRANCH   1  20
ATOM     20  C   UNL     1       3.336   3.891  19.745  0.00  0.00    +0.000 C 
BRANCH  20  22
ATOM     21  N   UNL     1       2.806   6.279  19.764  0.00  0.00    +0.000 N 
ATOM     22  C   UNL     1       2.315   4.999  19.959  0.00  0.00    +0.000 C 
ATOM     23  O   UNL     1       1.213   4.725  20.433  0.00  0.00    +0.000 OA
ATOM     24  H   UNL     1       3.808   6.342  19.570  0.00  0.00    +0.000 HD
BRANCH  21  28
ATOM     25  C   UNL     1       0.538   9.826  20.149  0.00  0.00    +0.000 A 
ATOM     26  C   UNL     1       1.145   9.508  18.936  0.00  0.00    +0.000 A 
ATOM     27  C   UNL     1       1.895   8.340  18.805  0.00  0.00    +0.000 A 
ATOM     28  C   UNL     1       2.073   7.475  19.883  0.00  0.00    +0.000 A 
ATOM     29  C   UNL     1       1.524   7.817  21.123  0.00  0.00    +0.000 A 
ATOM     30  C   UNL     1       0.753   8.983  21.251  0.00  0.00    +0.000 A 
ATOM     31 CL   UNL     1       0.044   9.326  22.790  0.00  0.00    +0.000 Cl
BRANCH  25  33
ATOM     32  C   UNL     1       0.497  12.158  20.519  0.00  0.00    +0.000 C 
ATOM     33  O   UNL     1      -0.232  10.948  20.322  0.00  0.00    +0.000 OA
ENDBRANCH  25  33
ENDBRANCH  21  28
ENDBRANCH  20  22
ENDBRANCH   1  20
TORSDOF 5
ENDMDL
MODEL 2
REMARK VINA RESULT:      -8.0      1.010      1.323
REMARK  Name = 
REMARK  6 active torsions:
REMARK  status: ('A' for Active; 'I' for Inactive)
REMARK    1  A    between atoms: C_1  and  O_2
REMARK    2  A    between atoms: O_2  and  C_3
REMARK    3  A    between atoms: C_6  and  N_7
REMARK    4  A    between atoms: C_8  and  C_10
REMARK    5  A    between atoms: C_10  and  N_11
REMARK    6  A    between atoms: N_16  and  C_17
REMARK                            x       y       z     vdW  Elec       q    Type
REMARK                         _______ _______ _______ _____ _____    ______ ____
ROOT
ATOM      1  N   UNL     1       4.294   4.244  18.716  0.00  0.00    +0.000 N 
ATOM      2  N   UNL     1       4.067   3.972  17.378  0.00  0.00    +0.000 NA
ATOM      3  C   UNL     1       5.111   4.478  16.790  0.00  0.00    +0.000 A 
ATOM      4  N   UNL     1       5.322   4.419  15.449  0.00  0.00    +0.000 NA
ATOM      5  C   UNL     1       6.378   5.025  14.969  0.00  0.00    +0.000 A 
ATOM      6  N   UNL     1       6.633   5.019  13.612  0.00  0.00    +0.000 N 
ATOM      7  C   UNL     1       7.336   5.776  15.859  0.00  0.00    +0.000 A 
ATOM      8  C   UNL     1       7.102   5.736  17.174  0.00  0.00    +0.000 A 
ATOM      9  N   UNL     1       6.001   5.079  17.613  0.00  0.00    +0.000 N 
ATOM     10  C   UNL     1       5.507   4.928  18.883  0.00  0.00    +0.000 A 
ATOM     11  O   UNL     1       6.000   5.320  19.928  0.00  0.00    +0.000 OA
ATOM     12  H   UNL     1       7.362   5.625  13.264  0.00  0.00    +0.000 HD
ENDROOT
BRANCH   6  13
ATOM     13  C   UNL     1       6.420   3.919  12.750  0.00  0.00    +0.000 A 
ATOM     14  C   UNL     1       7.539   3.210  12.283  0.00  0.00    +0.000 A 
ATOM     15  C   UNL     1       7.383   2.105  11.442  0.00  0.00    +0.000 A 
ATOM     16  C   UNL     1       6.108   1.698  11.075  0.00  0.00    +0.000 A 
ATOM     17  F   UNL     1       5.958   0.626  10.287  0.00  0.00    +0.000 F 
ATOM     18  C   UNL     1       4.987   2.387  11.516  0.00  0.00    +0.000 A 
ATOM     19  C   UNL     1       5.144   3.504  12.341  0.00  0.00    +0.000 A 
ENDBRANCH   6  13
BRANCH   1  20
ATOM     20  C   UNL     1       3.360   3.930  19.770  0.00  0.00    +0.000 C 
BRANCH  20  22
ATOM     21  N   UNL     1       2.685   6.250  20.148  0.00  0.00    +0.000 N 
ATOM     22  C   UNL     1       2.247   4.957  19.915  0.00  0.00    +0.000 C 
ATOM     23  O   UNL     1       1.078   4.580  19.982  0.00  0.00    +0.000 OA
ATOM     24  H   UNL     1       3.695   6.359  20.268  0.00  0.00    +0.000 HD
BRANCH  21  28
ATOM     25  C   UNL     1       0.302   9.711  20.617  0.00  0.00    +0.000 A 
ATOM     26  C   UNL     1       0.289   8.712  21.588  0.00  0.00    +0.000 A 
ATOM     27  C   UNL     1       1.072   7.568  21.437  0.00  0.00    +0.000 A 
ATOM     28  C   UNL     1       1.868   7.386  20.307  0.00  0.00    +0.000 A 
ATOM     29  C   UNL     1       1.838   8.351  19.295  0.00  0.00    +0.000 A 
ATOM     30  C   UNL     1       1.065   9.512  19.456  0.00  0.00    +0.000 A 
ATOM     31 CL   UNL     1       1.114  10.703  18.203  0.00  0.00    +0.000 Cl
BRANCH  25  33
ATOM     32  C   UNL     1      -0.781  11.231  22.065  0.00  0.00    +0.000 C 
ATOM     33  O   UNL     1      -0.429  10.867  20.731  0.00  0.00    +0.000 OA
ENDBRANCH  25  33
ENDBRANCH  21  28
ENDBRANCH  20  22
ENDBRANCH   1  20
TORSDOF 5
ENDMDL
MODEL 3
REMARK VINA RESULT:      -7.9      3.264      4.420
REMARK  Name = 
REMARK  6 active torsions:
REMARK  status: ('A' for Active; 'I' for Inactive)
REMARK    1  A    between atoms: C_1  and  O_2
REMARK    2  A    between atoms: O_2  and  C_3
REMARK    3  A    between atoms: C_6  and  N_7
REMARK    4  A    between atoms: C_8  and  C_10
REMARK    5  A    between atoms: C_10  and  N_11
REMARK    6  A    between atoms: N_16  and  C_17
REMARK                            x       y       z     vdW  Elec       q    Type
REMARK                         _______ _______ _______ _____ _____    ______ ____
ROOT
ATOM      1  N   UNL     1       2.704   7.411  18.902  0.00  0.00    +0.000 N 
ATOM      2  N   UNL     1       3.747   7.313  17.997  0.00  0.00    +0.000 NA
ATOM      3  C   UNL     1       3.937   6.029  17.900  0.00  0.00    +0.000 A 
ATOM      4  N   UNL     1       4.869   5.467  17.088  0.00  0.00    +0.000 NA
ATOM      5  C   UNL     1       5.011   4.166  17.128  0.00  0.00    +0.000 A 
ATOM      6  N   UNL     1       5.957   3.539  16.343  0.00  0.00    +0.000 N 
ATOM      7  C   UNL     1       4.181   3.306  18.048  0.00  0.00    +0.000 A 
ATOM      8  C   UNL     1       3.239   3.920  18.769  0.00  0.00    +0.000 A 
ATOM      9  N   UNL     1       3.130   5.268  18.673  0.00  0.00    +0.000 N 
ATOM     10  C   UNL     1       2.297   6.137  19.327  0.00  0.00    +0.000 A 
ATOM     11  O   UNL     1       1.411   5.870  20.122  0.00  0.00    +0.000 OA
ATOM     12  H   UNL     1       6.145   2.561  16.516  0.00  0.00    +0.000 HD
ENDROOT
BRANCH   6  13
ATOM     13  C   UNL     1       6.278   3.899  15.013  0.00  0.00    +0.000 A 
ATOM     14  C   UNL     1       7.294   4.844  14.803  0.00  0.00    +0.000 A 
ATOM     15  C   UNL     1       7.660   5.222  13.508  0.00  0.00    +0.000 A 
ATOM     16  C   UNL     1       7.019   4.646  12.420  0.00  0.00    +0.000 A 
ATOM     17  F   UNL     1       7.386   4.991  11.179  0.00  0.00    +0.000 F 
ATOM     18  C   UNL     1       6.006   3.715  12.602  0.00  0.00    +0.000 A 
ATOM     19  C   UNL     1       5.627   3.353  13.896  0.00  0.00    +0.000 A 
ENDBRANCH   6  13
BRANCH   1  20
ATOM     20  C   UNL     1       2.176   8.662  19.387  0.00  0.00    +0.000 C 
BRANCH  20  22
ATOM     21  N   UNL     1      -0.048   9.650  19.152  0.00  0.00    +0.000 N 
ATOM     22  C   UNL     1       1.100   9.252  18.488  0.00  0.00    +0.000 C 
ATOM     23  O   UNL     1       1.230   9.193  17.266  0.00  0.00    +0.000 OA
ATOM     24  H   UNL     1      -0.075   9.440  20.152  0.00  0.00    +0.000 HD
BRANCH  21  28
ATOM     25  C   UNL     1      -3.416  11.429  17.315  0.00  0.00    +0.000 A 
ATOM     26  C   UNL     1      -2.991  11.859  18.571  0.00  0.00    +0.000 A 
ATOM     27  C   UNL     1      -1.882  11.274  19.181  0.00  0.00    +0.000 A 
ATOM     28  C   UNL     1      -1.185  10.236  18.563  0.00  0.00    +0.000 A 
ATOM     29  C   UNL     1      -1.643   9.752  17.333  0.00  0.00    +0.000 A 
ATOM     30  C   UNL     1      -2.747  10.353  16.710  0.00  0.00    +0.000 A 
ATOM     31 CL   UNL     1      -3.231   9.758  15.160  0.00  0.00    +0.000 Cl
BRANCH  25  33
ATOM     32  C   UNL     1      -5.736  11.868  17.332  0.00  0.00    +0.000 C 
ATOM     33  O   UNL     1      -4.484  11.989  16.661  0.00  0.00    +0.000 OA
ENDBRANCH  25  33
ENDBRANCH  21  28
ENDBRANCH  20  22
ENDBRANCH   1  20
TORSDOF 5
ENDMDL
MODEL 4
REMARK VINA RESULT:      -7.9      5.307      8.478
REMARK  Name = 
REMARK  6 active torsions:
REMARK  status: ('A' for Active; 'I' for Inactive)
REMARK    1  A    between atoms: C_1  and  O_2
REMARK    2  A    between atoms: O_2  and  C_3
REMARK    3  A    between atoms: C_6  and  N_7
REMARK    4  A    between atoms: C_8  and  C_10
REMARK    5  A    between atoms: C_10  and  N_11
REMARK    6  A    between atoms: N_16  and  C_17
REMARK                            x       y       z     vdW  Elec       q    Type
REMARK                         _______ _______ _______ _____ _____    ______ ____
ROOT
ATOM      1  N   UNL     1      -0.316  11.720  19.058  0.00  0.00    +0.000 N 
ATOM      2  N   UNL     1       0.568  10.743  18.633  0.00  0.00    +0.000 NA
ATOM      3  C   UNL     1       0.604   9.917  19.637  0.00  0.00    +0.000 A 
ATOM      4  N   UNL     1       1.342   8.777  19.647  0.00  0.00    +0.000 NA
ATOM      5  C   UNL     1       1.347   8.061  20.743  0.00  0.00    +0.000 A 
ATOM      6  N   UNL     1       2.097   6.905  20.821  0.00  0.00    +0.000 N 
ATOM      7  C   UNL     1       0.572   8.478  21.966  0.00  0.00    +0.000 A 
ATOM      8  C   UNL     1      -0.184   9.575  21.862  0.00  0.00    +0.000 A 
ATOM      9  N   UNL     1      -0.161  10.266  20.697  0.00  0.00    +0.000 N 
ATOM     10  C   UNL     1      -0.792  11.431  20.346  0.00  0.00    +0.000 A 
ATOM     11  O   UNL     1      -1.577  12.086  21.010  0.00  0.00    +0.000 OA
ATOM     12  H   UNL     1       2.202   6.467  21.726  0.00  0.00    +0.000 HD
ENDROOT
BRANCH   6  13
ATOM     13  C   UNL     1       2.258   5.968  19.773  0.00  0.00    +0.000 A 
ATOM     14  C   UNL     1       1.439   4.829  19.763  0.00  0.00    +0.000 A 
ATOM     15  C   UNL     1       1.546   3.881  18.742  0.00  0.00    +0.000 A 
ATOM     16  C   UNL     1       2.466   4.076  17.721  0.00  0.00    +0.000 A 
ATOM     17  F   UNL     1       2.554   3.179  16.730  0.00  0.00    +0.000 F 
ATOM     18  C   UNL     1       3.295   5.190  17.713  0.00  0.00    +0.000 A 
ATOM     19  C   UNL     1       3.200   6.127  18.745  0.00  0.00    +0.000 A 
ENDBRANCH   6  13
BRANCH   1  20
ATOM     20  C   UNL     1      -0.630  12.905  18.298  0.00  0.00    +0.000 C 
BRANCH  20  22
ATOM     21  N   UNL     1       1.650  13.731  18.619  0.00  0.00    +0.000 N 
ATOM     22  C   UNL     1       0.307  14.069  18.582  0.00  0.00    +0.000 C 
ATOM     23  O   UNL     1      -0.160  15.159  18.912  0.00  0.00    +0.000 OA
ATOM     24  H   UNL     1       1.855  12.733  18.525  0.00  0.00    +0.000 HD
BRANCH  21  28
ATOM     25  C   UNL     1       4.837  16.401  19.383  0.00  0.00    +0.000 A 
ATOM     26  C   UNL     1       4.044  16.559  18.248  0.00  0.00    +0.000 A 
ATOM     27  C   UNL     1       2.993  15.680  17.991  0.00  0.00    +0.000 A 
ATOM     28  C   UNL     1       2.722  14.614  18.848  0.00  0.00    +0.000 A 
ATOM     29  C   UNL     1       3.552  14.406  19.954  0.00  0.00    +0.000 A 
ATOM     30  C   UNL     1       4.598  15.302  20.223  0.00  0.00    +0.000 A 
ATOM     31 CL   UNL     1       5.555  15.036  21.639  0.00  0.00    +0.000 Cl
BRANCH  25  33
ATOM     32  C   UNL     1       5.520  18.323  20.574  0.00  0.00    +0.000 C 
ATOM     33  O   UNL     1       5.865  17.254  19.694  0.00  0.00    +0.000 OA
ENDBRANCH  25  33
ENDBRANCH  21  28
ENDBRANCH  20  22
ENDBRANCH   1  20
TORSDOF 5
ENDMDL
MODEL 5
REMARK VINA RESULT:      -7.8      7.098     12.772
REMARK  Name = 
REMARK  6 active torsions:
REMARK  status: ('A' for Active; 'I' for Inactive)
REMARK    1  A    between atoms: C_1  and  O_2
REMARK    2  A    between atoms: O_2  and  C_3
REMARK    3  A    between atoms: C_6  and  N_7
REMARK    4  A    between atoms: C_8  and  C_10
REMARK    5  A    between atoms: C_10  and  N_11
REMARK    6  A    between atoms: N_16  and  C_17
REMARK                            x       y       z     vdW  Elec       q    Type
REMARK                         _______ _______ _______ _____ _____    ______ ____
ROOT
ATOM      1  N   UNL     1      -0.871  11.354  19.323  0.00  0.00    +0.000 N 
ATOM      2  N   UNL     1      -1.682  12.162  20.100  0.00  0.00    +0.000 NA
ATOM      3  C   UNL     1      -2.847  12.048  19.533  0.00  0.00    +0.000 A 
ATOM      4  N   UNL     1      -3.968  12.668  19.987  0.00  0.00    +0.000 NA
ATOM      5  C   UNL     1      -5.068  12.528  19.291  0.00  0.00    +0.000 A 
ATOM      6  N   UNL     1      -6.233  13.152  19.689  0.00  0.00    +0.000 N 
ATOM      7  C   UNL     1      -5.106  11.718  18.020  0.00  0.00    +0.000 A 
ATOM      8  C   UNL     1      -3.983  11.084  17.670  0.00  0.00    +0.000 A 
ATOM      9  N   UNL     1      -2.880  11.253  18.440  0.00  0.00    +0.000 N 
ATOM     10  C   UNL     1      -1.608  10.766  18.283  0.00  0.00    +0.000 A 
ATOM     11  O   UNL     1      -1.199  10.007  17.421  0.00  0.00    +0.000 OA
ATOM     12  H   UNL     1      -7.014  13.153  19.049  0.00  0.00    +0.000 HD
ENDROOT
BRANCH   6  13
ATOM     13  C   UNL     1      -6.664  13.289  21.029  0.00  0.00    +0.000 A 
ATOM     14  C   UNL     1      -7.222  12.171  21.670  0.00  0.00    +0.000 A 
ATOM     15  C   UNL     1      -7.649  12.249  22.998  0.00  0.00    +0.000 A 
ATOM     16  C   UNL     1      -7.509  13.442  23.693  0.00  0.00    +0.000 A 
ATOM     17  F   UNL     1      -7.897  13.510  24.973  0.00  0.00    +0.000 F 
ATOM     18  C   UNL     1      -6.968  14.564  23.080  0.00  0.00    +0.000 A 
ATOM     19  C   UNL     1      -6.560  14.491  21.746  0.00  0.00    +0.000 A 
ENDBRANCH   6  13
BRANCH   1  20
ATOM     20  C   UNL     1       0.550  11.210  19.522  0.00  0.00    +0.000 C 
BRANCH  20  22
ATOM     21  N   UNL     1       1.555   9.042  19.003  0.00  0.00    +0.000 N 
ATOM     22  C   UNL     1       0.957   9.818  19.981  0.00  0.00    +0.000 C 
ATOM     23  O   UNL     1       0.601   9.415  21.089  0.00  0.00    +0.000 OA
ATOM     24  H   UNL     1       1.591   9.459  18.070  0.00  0.00    +0.000 HD
BRANCH  21  28
ATOM     25  C   UNL     1       2.960   5.075  19.413  0.00  0.00    +0.000 A 
ATOM     26  C   UNL     1       2.185   5.654  20.417  0.00  0.00    +0.000 A 
ATOM     27  C   UNL     1       1.721   6.962  20.286  0.00  0.00    +0.000 A 
ATOM     28  C   UNL     1       2.035   7.728  19.164  0.00  0.00    +0.000 A 
ATOM     29  C   UNL     1       2.867   7.180  18.182  0.00  0.00    +0.000 A 
ATOM     30  C   UNL     1       3.317   5.857  18.304  0.00  0.00    +0.000 A 
ATOM     31 CL   UNL     1       4.290   5.208  17.030  0.00  0.00    +0.000 Cl
BRANCH  25  33
ATOM     32  C   UNL     1       2.405   2.779  19.437  0.00  0.00    +0.000 C 
ATOM     33  O   UNL     1       3.417   3.783  19.481  0.00  0.00    +0.000 OA
ENDBRANCH  25  33
ENDBRANCH  21  28
ENDBRANCH  20  22
ENDBRANCH   1  20
TORSDOF 5
ENDMDL
MODEL 6
REMARK VINA RESULT:      -7.8      5.569     10.522
REMARK  Name = 
REMARK  6 active torsions:
REMARK  status: ('A' for Active; 'I' for Inactive)
REMARK    1  A    between atoms: C_1  and  O_2
REMARK    2  A    between atoms: O_2  and  C_3
REMARK    3  A    between atoms: C_6  and  N_7
REMARK    4  A    between atoms: C_8  and  C_10
REMARK    5  A    between atoms: C_10  and  N_11
REMARK    6  A    between atoms: N_16  and  C_17
REMARK                            x       y       z     vdW  Elec       q    Type
REMARK                         _______ _______ _______ _____ _____    ______ ____
ROOT
ATOM      1  N   UNL     1       0.163  10.790  22.268  0.00  0.00    +0.000 N 
ATOM      2  N   UNL     1       1.044  11.281  21.319  0.00  0.00    +0.000 NA
ATOM      3  C   UNL     1       0.543  12.444  21.023  0.00  0.00    +0.000 A 
ATOM      4  N   UNL     1       1.107  13.300  20.131  0.00  0.00    +0.000 NA
ATOM      5  C   UNL     1       0.473  14.415  19.868  0.00  0.00    +0.000 A 
ATOM      6  N   UNL     1       0.984  15.313  18.954  0.00  0.00    +0.000 N 
ATOM      7  C   UNL     1      -0.847  14.748  20.516  0.00  0.00    +0.000 A 
ATOM      8  C   UNL     1      -1.309  13.892  21.431  0.00  0.00    +0.000 A 
ATOM      9  N   UNL     1      -0.599  12.763  21.673  0.00  0.00    +0.000 N 
ATOM     10  C   UNL     1      -0.867  11.711  22.511  0.00  0.00    +0.000 A 
ATOM     11  O   UNL     1      -1.804  11.589  23.282  0.00  0.00    +0.000 OA
ATOM     12  H   UNL     1       0.395  16.079  18.660  0.00  0.00    +0.000 HD
ENDROOT
BRANCH   6  13
ATOM     13  C   UNL     1       2.355  15.631  18.806  0.00  0.00    +0.000 A 
ATOM     14  C   UNL     1       2.905  16.621  19.636  0.00  0.00    +0.000 A 
ATOM     15  C   UNL     1       4.257  16.961  19.542  0.00  0.00    +0.000 A 
ATOM     16  C   UNL     1       5.066  16.304  18.625  0.00  0.00    +0.000 A 
ATOM     17  F   UNL     1       6.366  16.614  18.551  0.00  0.00    +0.000 F 
ATOM     18  C   UNL     1       4.544  15.328  17.787  0.00  0.00    +0.000 A 
ATOM     19  C   UNL     1       3.188  15.003  17.868  0.00  0.00    +0.000 A 
ENDBRANCH   6  13
BRANCH   1  20
ATOM     20  C   UNL     1       0.265   9.477  22.856  0.00  0.00    +0.000 C 
BRANCH  20  22
ATOM     21  N   UNL     1       1.550   8.104  21.292  0.00  0.00    +0.000 N 
ATOM     22  C   UNL     1       0.298   8.357  21.827  0.00  0.00    +0.000 C 
ATOM     23  O   UNL     1      -0.759   7.873  21.422  0.00  0.00    +0.000 OA
ATOM     24  H   UNL     1       2.293   8.740  21.590  0.00  0.00    +0.000 HD
BRANCH  21  28
ATOM     25  C   UNL     1       2.535   5.109  18.475  0.00  0.00    +0.000 A 
ATOM     26  C   UNL     1       2.660   6.456  18.141  0.00  0.00    +0.000 A 
ATOM     27  C   UNL     1       2.334   7.447  19.066  0.00  0.00    +0.000 A 
ATOM     28  C   UNL     1       1.860   7.118  20.336  0.00  0.00    +0.000 A 
ATOM     29  C   UNL     1       1.668   5.771  20.658  0.00  0.00    +0.000 A 
ATOM     30  C   UNL     1       2.014   4.773  19.734  0.00  0.00    +0.000 A 
ATOM     31 CL   UNL     1       1.817   3.121  20.208  0.00  0.00    +0.000 Cl
BRANCH  25  33
ATOM     32  C   UNL     1       4.225   4.097  17.172  0.00  0.00    +0.000 C 
ATOM     33  O   UNL     1       2.868   4.096  17.611  0.00  0.00    +0.000 OA
ENDBRANCH  25  33
ENDBRANCH  21  28
ENDBRANCH  20  22
ENDBRANCH   1  20
TORSDOF 5
ENDMDL
MODEL 7
REMARK VINA RESULT:      -7.8      6.228     12.230
REMARK  Name = 
REMARK  6 active torsions:
REMARK  status: ('A' for Active; 'I' for Inactive)
REMARK    1  A    between atoms: C_1  and  O_2
REMARK    2  A    between atoms: O_2  and  C_3
REMARK    3  A    between atoms: C_6  and  N_7
REMARK    4  A    between atoms: C_8  and  C_10
REMARK    5  A    between atoms: C_10  and  N_11
REMARK    6  A    between atoms: N_16  and  C_17
REMARK                            x       y       z     vdW  Elec       q    Type
REMARK                         _______ _______ _______ _____ _____    ______ ____
ROOT
ATOM      1  N   UNL     1       0.150  10.655  18.453  0.00  0.00    +0.000 N 
ATOM      2  N   UNL     1      -0.038  11.645  19.403  0.00  0.00    +0.000 NA
ATOM      3  C   UNL     1      -1.327  11.822  19.397  0.00  0.00    +0.000 A 
ATOM      4  N   UNL     1      -1.969  12.704  20.207  0.00  0.00    +0.000 NA
ATOM      5  C   UNL     1      -3.262  12.840  20.060  0.00  0.00    +0.000 A 
ATOM      6  N   UNL     1      -3.965  13.737  20.839  0.00  0.00    +0.000 N 
ATOM      7  C   UNL     1      -4.030  12.058  19.024  0.00  0.00    +0.000 A 
ATOM      8  C   UNL     1      -3.345  11.162  18.308  0.00  0.00    +0.000 A 
ATOM      9  N   UNL     1      -2.010  11.055  18.516  0.00  0.00    +0.000 N 
ATOM     10  C   UNL     1      -1.077  10.265  17.895  0.00  0.00    +0.000 A 
ATOM     11  O   UNL     1      -1.265   9.424  17.032  0.00  0.00    +0.000 OA
ATOM     12  H   UNL     1      -4.926  13.929  20.591  0.00  0.00    +0.000 HD
ENDROOT
BRANCH   6  13
ATOM     13  C   UNL     1      -3.727  13.983  22.211  0.00  0.00    +0.000 A 
ATOM     14  C   UNL     1      -4.084  12.994  23.140  0.00  0.00    +0.000 A 
ATOM     15  C   UNL     1      -3.855  13.181  24.506  0.00  0.00    +0.000 A 
ATOM     16  C   UNL     1      -3.256  14.354  24.945  0.00  0.00    +0.000 A 
ATOM     17  F   UNL     1      -3.016  14.523  26.252  0.00  0.00    +0.000 F 
ATOM     18  C   UNL     1      -2.902  15.351  24.047  0.00  0.00    +0.000 A 
ATOM     19  C   UNL     1      -3.150  15.171  22.684  0.00  0.00    +0.000 A 
ENDBRANCH   6  13
BRANCH   1  20
ATOM     20  C   UNL     1       1.444  10.163  18.050  0.00  0.00    +0.000 C 
BRANCH  20  22
ATOM     21  N   UNL     1       2.342   7.902  17.795  0.00  0.00    +0.000 N 
ATOM     22  C   UNL     1       1.800   8.823  18.676  0.00  0.00    +0.000 C 
ATOM     23  O   UNL     1       1.453   8.581  19.832  0.00  0.00    +0.000 OA
ATOM     24  H   UNL     1       2.375   8.196  16.816  0.00  0.00    +0.000 HD
BRANCH  21  28
ATOM     25  C   UNL     1       3.683   3.995  18.695  0.00  0.00    +0.000 A 
ATOM     26  C   UNL     1       2.351   4.219  18.351  0.00  0.00    +0.000 A 
ATOM     27  C   UNL     1       1.904   5.506  18.055  0.00  0.00    +0.000 A 
ATOM     28  C   UNL     1       2.768   6.599  18.115  0.00  0.00    +0.000 A 
ATOM     29  C   UNL     1       4.090   6.395  18.524  0.00  0.00    +0.000 A 
ATOM     30  C   UNL     1       4.545   5.097  18.803  0.00  0.00    +0.000 A 
ATOM     31 CL   UNL     1       6.205   4.893  19.242  0.00  0.00    +0.000 Cl
BRANCH  25  33
ATOM     32  C   UNL     1       3.468   1.667  18.361  0.00  0.00    +0.000 C 
ATOM     33  O   UNL     1       4.178   2.745  18.969  0.00  0.00    +0.000 OA
ENDBRANCH  25  33
ENDBRANCH  21  28
ENDBRANCH  20  22
ENDBRANCH   1  20
TORSDOF 5
ENDMDL
MODEL 8
REMARK VINA RESULT:      -7.8      6.120     12.099
REMARK  Name = 
REMARK  6 active torsions:
REMARK  status: ('A' for Active; 'I' for Inactive)
REMARK    1  A    between atoms: C_1  and  O_2
REMARK    2  A    between atoms: O_2  and  C_3
REMARK    3  A    between atoms: C_6  and  N_7
REMARK    4  A    between atoms: C_8  and  C_10
REMARK    5  A    between atoms: C_10  and  N_11
REMARK    6  A    between atoms: N_16  and  C_17
REMARK                            x       y       z     vdW  Elec       q    Type
REMARK                         _______ _______ _______ _____ _____    ______ ____
ROOT
ATOM      1  N   UNL     1       0.392  10.548  18.538  0.00  0.00    +0.000 N 
ATOM      2  N   UNL     1       0.174  11.540  19.478  0.00  0.00    +0.000 NA
ATOM      3  C   UNL     1      -1.112  11.728  19.421  0.00  0.00    +0.000 A 
ATOM      4  N   UNL     1      -1.778  12.615  20.205  0.00  0.00    +0.000 NA
ATOM      5  C   UNL     1      -3.064  12.761  20.007  0.00  0.00    +0.000 A 
ATOM      6  N   UNL     1      -3.790  13.664  20.756  0.00  0.00    +0.000 N 
ATOM      7  C   UNL     1      -3.796  11.984  18.942  0.00  0.00    +0.000 A 
ATOM      8  C   UNL     1      -3.090  11.082  18.255  0.00  0.00    +0.000 A 
ATOM      9  N   UNL     1      -1.765  10.965  18.515  0.00  0.00    +0.000 N 
ATOM     10  C   UNL     1      -0.815  10.167  17.932  0.00  0.00    +0.000 A 
ATOM     11  O   UNL     1      -0.975   9.326  17.063  0.00  0.00    +0.000 OA
ATOM     12  H   UNL     1      -4.739  13.864  20.471  0.00  0.00    +0.000 HD
ENDROOT
BRANCH   6  13
ATOM     13  C   UNL     1      -3.604  13.911  22.137  0.00  0.00    +0.000 A 
ATOM     14  C   UNL     1      -4.076  12.960  23.055  0.00  0.00    +0.000 A 
ATOM     15  C   UNL     1      -3.902  13.148  24.429  0.00  0.00    +0.000 A 
ATOM     16  C   UNL     1      -3.246  14.282  24.888  0.00  0.00    +0.000 A 
ATOM     17  F   UNL     1      -3.060  14.451  26.203  0.00  0.00    +0.000 F 
ATOM     18  C   UNL     1      -2.778  15.241  24.000  0.00  0.00    +0.000 A 
ATOM     19  C   UNL     1      -2.969  15.062  22.628  0.00  0.00    +0.000 A 
ENDBRANCH   6  13
BRANCH   1  20
ATOM     20  C   UNL     1       1.697  10.046  18.187  0.00  0.00    +0.000 C 
BRANCH  20  22
ATOM     21  N   UNL     1       2.506   7.764  17.836  0.00  0.00    +0.000 N 
ATOM     22  C   UNL     1       1.982   8.661  18.751  0.00  0.00    +0.000 C 
ATOM     23  O   UNL     1       1.596   8.377  19.884  0.00  0.00    +0.000 OA
ATOM     24  H   UNL     1       2.575   8.105  16.874  0.00  0.00    +0.000 HD
BRANCH  21  28
ATOM     25  C   UNL     1       3.542   3.755  18.688  0.00  0.00    +0.000 A 
ATOM     26  C   UNL     1       4.528   4.738  18.626  0.00  0.00    +0.000 A 
ATOM     27  C   UNL     1       4.191   6.061  18.343  0.00  0.00    +0.000 A 
ATOM     28  C   UNL     1       2.869   6.429  18.097  0.00  0.00    +0.000 A 
ATOM     29  C   UNL     1       1.880   5.440  18.092  0.00  0.00    +0.000 A 
ATOM     30  C   UNL     1       2.216   4.111  18.395  0.00  0.00    +0.000 A 
ATOM     31 CL   UNL     1       0.945   2.939  18.437  0.00  0.00    +0.000 Cl
BRANCH  25  33
ATOM     32  C   UNL     1       4.503   2.238  20.223  0.00  0.00    +0.000 C 
ATOM     33  O   UNL     1       3.818   2.445  18.988  0.00  0.00    +0.000 OA
ENDBRANCH  25  33
ENDBRANCH  21  28
ENDBRANCH  20  22
ENDBRANCH   1  20
TORSDOF 5
ENDMDL
MODEL 9
REMARK VINA RESULT:      -7.7      5.682      8.733
REMARK  Name = 
REMARK  6 active torsions:
REMARK  status: ('A' for Active; 'I' for Inactive)
REMARK    1  A    between atoms: C_1  and  O_2
REMARK    2  A    between atoms: O_2  and  C_3
REMARK    3  A    between atoms: C_6  and  N_7
REMARK    4  A    between atoms: C_8  and  C_10
REMARK    5  A    between atoms: C_10  and  N_11
REMARK    6  A    between atoms: N_16  and  C_17
REMARK                            x       y       z     vdW  Elec       q    Type
REMARK                         _______ _______ _______ _____ _____    ______ ____
ROOT
ATOM      1  N   UNL     1      -0.183  11.905  19.238  0.00  0.00    +0.000 N 
ATOM      2  N   UNL     1       0.667  10.880  18.862  0.00  0.00    +0.000 NA
ATOM      3  C   UNL     1       0.593  10.050  19.862  0.00  0.00    +0.000 A 
ATOM      4  N   UNL     1       1.262   8.869  19.910  0.00  0.00    +0.000 NA
ATOM      5  C   UNL     1       1.158   8.151  21.000  0.00  0.00    +0.000 A 
ATOM      6  N   UNL     1       1.833   6.953  21.116  0.00  0.00    +0.000 N 
ATOM      7  C   UNL     1       0.335   8.610  22.176  0.00  0.00    +0.000 A 
ATOM      8  C   UNL     1      -0.348   9.749  22.033  0.00  0.00    +0.000 A 
ATOM      9  N   UNL     1      -0.213  10.440  20.875  0.00  0.00    +0.000 N 
ATOM     10  C   UNL     1      -0.753  11.642  20.493  0.00  0.00    +0.000 A 
ATOM     11  O   UNL     1      -1.537  12.340  21.112  0.00  0.00    +0.000 OA
ATOM     12  H   UNL     1       1.857   6.508  22.023  0.00  0.00    +0.000 HD
ENDROOT
BRANCH   6  13
ATOM     13  C   UNL     1       2.003   6.011  20.075  0.00  0.00    +0.000 A 
ATOM     14  C   UNL     1       1.370   4.763  20.193  0.00  0.00    +0.000 A 
ATOM     15  C   UNL     1       1.493   3.803  19.185  0.00  0.00    +0.000 A 
ATOM     16  C   UNL     1       2.239   4.093  18.050  0.00  0.00    +0.000 A 
ATOM     17  F   UNL     1       2.338   3.181  17.074  0.00  0.00    +0.000 F 
ATOM     18  C   UNL     1       2.882   5.316  17.915  0.00  0.00    +0.000 A 
ATOM     19  C   UNL     1       2.775   6.267  18.932  0.00  0.00    +0.000 A 
ENDBRANCH   6  13
BRANCH   1  20
ATOM     20  C   UNL     1      -0.381  13.109  18.468  0.00  0.00    +0.000 C 
BRANCH  20  22
ATOM     21  N   UNL     1       1.902  13.644  19.163  0.00  0.00    +0.000 N 
ATOM     22  C   UNL     1       0.704  14.152  18.691  0.00  0.00    +0.000 C 
ATOM     23  O   UNL     1       0.423  15.347  18.605  0.00  0.00    +0.000 OA
ATOM     24  H   UNL     1       1.903  12.644  19.377  0.00  0.00    +0.000 HD
BRANCH  21  28
ATOM     25  C   UNL     1       5.444  15.801  19.986  0.00  0.00    +0.000 A 
ATOM     26  C   UNL     1       4.383  15.820  20.889  0.00  0.00    +0.000 A 
ATOM     27  C   UNL     1       3.213  15.112  20.621  0.00  0.00    +0.000 A 
ATOM     28  C   UNL     1       3.066  14.386  19.440  0.00  0.00    +0.000 A 
ATOM     29  C   UNL     1       4.098  14.414  18.496  0.00  0.00    +0.000 A 
ATOM     30  C   UNL     1       5.284  15.111  18.774  0.00  0.00    +0.000 A 
ATOM     31 CL   UNL     1       6.553  15.060  17.600  0.00  0.00    +0.000 Cl
BRANCH  25  33
ATOM     32  C   UNL     1       6.567  17.877  20.075  0.00  0.00    +0.000 C 
ATOM     33  O   UNL     1       6.626  16.459  20.215  0.00  0.00    +0.000 OA
ENDBRANCH  25  33
ENDBRANCH  21  28
ENDBRANCH  20  22
ENDBRANCH   1  20
TORSDOF 5
ENDMDL
