MODEL 1
REMARK VINA RESULT:      -8.0      0.000      0.000
REMARK  Name = 
REMARK  10 active torsions:
REMARK  status: ('A' for Active; 'I' for Inactive)
REMARK    1  A    between atoms: C_1  and  O_2
REMARK    2  A    between atoms: O_2  and  C_3
REMARK    3  A    between atoms: C_7  and  C_8
REMARK    4  A    between atoms: C_8  and  C_9
REMARK    5  A    between atoms: C_9  and  C_10
REMARK    6  A    between atoms: C_10  and  O_11
REMARK    7  A    between atoms: N_14  and  C_15
REMARK    8  A    between atoms: C_15  and  C_16
REMARK    9  A    between atoms: C_19  and  N_20
REMARK   10  A    between atoms: C_21  and  C_22
REMARK                            x       y       z     vdW  Elec       q    Type
REMARK                         _______ _______ _______ _____ _____    ______ ____
ROOT
ATOM      1  C   UNL     1       3.096   3.539  18.844  0.00  0.00    +0.000 C 
ATOM      2  C   UNL     1       2.481   4.565  17.860  0.00  0.00    +0.000 C 
ATOM      3  C   UNL     1       2.371   5.988  18.415  0.00  0.00    +0.000 C 
ATOM      4  N   UNL     1       1.811   6.141  19.780  0.00  0.00    +0.000 NA
ATOM      5  C   UNL     1       2.302   5.130  20.719  0.00  0.00    +0.000 C 
ATOM      6  C   UNL     1       2.267   3.712  20.163  0.00  0.00    +0.000 C 
ENDROOT
BRANCH   1   7
ATOM      7  C   UNL     1       4.634   3.784  19.204  0.00  0.00    +0.000 C 
BRANCH   7  12
ATOM      8  C   UNL     1       6.712   5.392  16.369  0.00  0.00    +0.000 A 
ATOM      9  C   UNL     1       7.544   6.244  17.094  0.00  0.00    +0.000 A 
ATOM     10  C   UNL     1       7.474   6.306  18.484  0.00  0.00    +0.000 A 
ATOM     11  C   UNL     1       6.548   5.523  19.193  0.00  0.00    +0.000 A 
ATOM     12  C   UNL     1       5.672   4.675  18.513  0.00  0.00    +0.000 A 
ATOM     13  C   UNL     1       5.776   4.621  17.076  0.00  0.00    +0.000 A 
BRANCH   8  15
ATOM     14  C   UNL     1       6.542   4.444  14.130  0.00  0.00    +0.000 C 
ATOM     15  O   UNL     1       6.956   5.457  15.030  0.00  0.00    +0.000 OA
ENDBRANCH   8  15
ENDBRANCH   7  12
ENDBRANCH   1   7
BRANCH   1  16
ATOM     16  C   UNL     1       2.771   2.127  18.298  0.00  0.00    +0.000 C 
BRANCH  16  17
ATOM     17  O   UNL     1       3.943   1.375  17.987  0.00  0.00    +0.000 OA
ATOM     18  H   UNL     1       3.817   0.967  17.119  0.00  0.00    +0.000 HD
ENDBRANCH  16  17
ENDBRANCH   1  16
BRANCH   4  19
ATOM     19  C   UNL     1       2.117   7.522  20.213  0.00  0.00    +0.000 C 
BRANCH  19  20
ATOM     20  C   UNL     1       1.021   8.487  20.635  0.00  0.00    +0.000 A 
ATOM     21  C   UNL     1       0.708   8.592  21.996  0.00  0.00    +0.000 A 
ATOM     22  C   UNL     1       0.130   9.755  22.506  0.00  0.00    +0.000 A 
ATOM     23  C   UNL     1      -0.147  10.834  21.671  0.00  0.00    +0.000 A 
ATOM     24  C   UNL     1      -0.052  10.642  20.286  0.00  0.00    +0.000 A 
ATOM     25  C   UNL     1       0.528   9.469  19.767  0.00  0.00    +0.000 A 
BRANCH  23  26
ATOM     26  N   UNL     1      -0.399  12.139  22.168  0.00  0.00    +0.000 N 
ATOM     27  C   UNL     1      -1.476  12.501  22.971  0.00  0.00    +0.000 C 
ATOM     28  C   UNL     1      -1.338  13.873  23.582  0.00  0.00    +0.000 C 
ATOM     29  O   UNL     1      -2.466  11.822  23.226  0.00  0.00    +0.000 OA
ATOM     30  H   UNL     1       0.369  12.797  22.103  0.00  0.00    +0.000 HD
ENDBRANCH  23  26
ENDBRANCH  19  20
ENDBRANCH   4  19
TORSDOF 8
ENDMDL
MODEL 2
REMARK VINA RESULT:      -8.0      3.603      9.230
REMARK  Name = 
REMARK  10 active torsions:
REMARK  status: ('A' for Active; 'I' for Inactive)
REMARK    1  A    between atoms: C_1  and  O_2
REMARK    2  A    between atoms: O_2  and  C_3
REMARK    3  A    between atoms: C_7  and  C_8
REMARK    4  A    between atoms: C_8  and  C_9
REMARK    5  A    between atoms: C_9  and  C_10
REMARK    6  A    between atoms: C_10  and  O_11
REMARK    7  A    between atoms: N_14  and  C_15
REMARK    8  A    between atoms: C_15  and  C_16
REMARK    9  A    between atoms: C_19  and  N_20
REMARK   10  A    between atoms: C_21  and  C_22
REMARK                            x       y       z     vdW  Elec       q    Type
REMARK                         _______ _______ _______ _____ _____    ______ ____
ROOT
ATOM      1  C   UNL     1       0.651  10.472  19.262  0.00  0.00    +0.000 C 
ATOM      2  C   UNL     1       1.594   9.737  18.276  0.00  0.00    +0.000 C 
ATOM      3  C   UNL     1       1.772   8.244  18.564  0.00  0.00    +0.000 C 
ATOM      4  N   UNL     1       2.043   7.853  19.969  0.00  0.00    +0.000 NA
ATOM      5  C   UNL     1       1.232   8.593  20.938  0.00  0.00    +0.000 C 
ATOM      6  C   UNL     1       1.194  10.094  20.683  0.00  0.00    +0.000 C 
ENDROOT
BRANCH   1   7
ATOM      7  C   UNL     1      -0.881  10.022  19.195  0.00  0.00    +0.000 C 
BRANCH   7  12
ATOM      8  C   UNL     1      -2.852   9.987  15.870  0.00  0.00    +0.000 A 
ATOM      9  C   UNL     1      -3.865  10.903  16.147  0.00  0.00    +0.000 A 
ATOM     10  C   UNL     1      -3.928  11.557  17.376  0.00  0.00    +0.000 A 
ATOM     11  C   UNL     1      -2.978  11.296  18.378  0.00  0.00    +0.000 A 
ATOM     12  C   UNL     1      -1.959  10.366  18.162  0.00  0.00    +0.000 A 
ATOM     13  C   UNL     1      -1.912   9.715  16.877  0.00  0.00    +0.000 A 
BRANCH   8  15
ATOM     14  C   UNL     1      -3.685  10.130  13.583  0.00  0.00    +0.000 C 
ATOM     15  O   UNL     1      -2.951   9.483  14.608  0.00  0.00    +0.000 OA
ENDBRANCH   8  15
ENDBRANCH   7  12
ENDBRANCH   1   7
BRANCH   1  16
ATOM     16  C   UNL     1       0.893  11.991  19.084  0.00  0.00    +0.000 C 
BRANCH  16  17
ATOM     17  O   UNL     1       1.613  12.296  17.891  0.00  0.00    +0.000 OA
ATOM     18  H   UNL     1       1.501  11.559  17.274  0.00  0.00    +0.000 HD
ENDBRANCH  16  17
ENDBRANCH   1  16
BRANCH   4  19
ATOM     19  C   UNL     1       1.839   6.389  20.050  0.00  0.00    +0.000 C 
BRANCH  19  20
ATOM     20  C   UNL     1       2.770   5.415  19.348  0.00  0.00    +0.000 A 
ATOM     21  C   UNL     1       2.242   4.582  18.353  0.00  0.00    +0.000 A 
ATOM     22  C   UNL     1       3.060   4.067  17.347  0.00  0.00    +0.000 A 
ATOM     23  C   UNL     1       4.419   4.369  17.314  0.00  0.00    +0.000 A 
ATOM     24  C   UNL     1       4.985   5.002  18.429  0.00  0.00    +0.000 A 
ATOM     25  C   UNL     1       4.163   5.521  19.447  0.00  0.00    +0.000 A 
BRANCH  23  26
ATOM     26  N   UNL     1       5.216   4.175  16.156  0.00  0.00    +0.000 N 
ATOM     27  C   UNL     1       5.677   5.185  15.318  0.00  0.00    +0.000 C 
ATOM     28  C   UNL     1       6.729   4.723  14.341  0.00  0.00    +0.000 C 
ATOM     29  O   UNL     1       5.331   6.363  15.322  0.00  0.00    +0.000 OA
ATOM     30  H   UNL     1       5.646   3.263  16.059  0.00  0.00    +0.000 HD
ENDBRANCH  23  26
ENDBRANCH  19  20
ENDBRANCH   4  19
TORSDOF 8
ENDMDL
MODEL 3
REMARK VINA RESULT:      -7.9      2.988      7.564
REMARK  Name = 
REMARK  10 active torsions:
REMARK  status: ('A' for Active; 'I' for Inactive)
REMARK    1  A    between atoms: C_1  and  O_2
REMARK    2  A    between atoms: O_2  and  C_3
REMARK    3  A    between atoms: C_7  and  C_8
REMARK    4  A    between atoms: C_8  and  C_9
REMARK    5  A    between atoms: C_9  and  C_10
REMARK    6  A    between atoms: C_10  and  O_11
REMARK    7  A    between atoms: N_14  and  C_15
REMARK    8  A    between atoms: C_15  and  C_16
REMARK    9  A    between atoms: C_19  and  N_20
REMARK   10  A    between atoms: C_21  and  C_22
REMARK                            x       y       z     vdW  Elec       q    Type
REMARK                         _______ _______ _______ _____ _____    ______ ____
ROOT
ATOM      1  C   UNL     1       2.453   4.364  19.890  0.00  0.00    +0.000 C 
ATOM      2  C   UNL     1       3.477   3.222  20.114  0.00  0.00    +0.000 C 
ATOM      3  C   UNL     1       4.393   2.949  18.918  0.00  0.00    +0.000 C 
ATOM      4  N   UNL     1       3.754   2.853  17.583  0.00  0.00    +0.000 NA
ATOM      5  C   UNL     1       2.716   3.862  17.369  0.00  0.00    +0.000 C 
ATOM      6  C   UNL     1       1.749   4.002  18.538  0.00  0.00    +0.000 C 
ENDROOT
BRANCH   1   7
ATOM      7  C   UNL     1       3.091   5.821  19.729  0.00  0.00    +0.000 C 
BRANCH   7  12
ATOM      8  C   UNL     1       1.071   9.083  20.198  0.00  0.00    +0.000 A 
ATOM      9  C   UNL     1       1.111   9.613  18.909  0.00  0.00    +0.000 A 
ATOM     10  C   UNL     1       1.756   8.940  17.874  0.00  0.00    +0.000 A 
ATOM     11  C   UNL     1       2.401   7.713  18.107  0.00  0.00    +0.000 A 
ATOM     12  C   UNL     1       2.416   7.153  19.385  0.00  0.00    +0.000 A 
ATOM     13  C   UNL     1       1.729   7.866  20.434  0.00  0.00    +0.000 A 
BRANCH   8  15
ATOM     14  C   UNL     1       0.518  11.286  21.084  0.00  0.00    +0.000 C 
ATOM     15  O   UNL     1       0.370   9.877  21.055  0.00  0.00    +0.000 OA
ENDBRANCH   8  15
ENDBRANCH   7  12
ENDBRANCH   1   7
BRANCH   1  16
ATOM     16  C   UNL     1       1.378   4.241  20.997  0.00  0.00    +0.000 C 
BRANCH  16  17
ATOM     17  O   UNL     1       0.678   2.998  20.948  0.00  0.00    +0.000 OA
ATOM     18  H   UNL     1       0.555   2.759  20.019  0.00  0.00    +0.000 HD
ENDBRANCH  16  17
ENDBRANCH   1  16
BRANCH   4  19
ATOM     19  C   UNL     1       4.843   2.928  16.584  0.00  0.00    +0.000 C 
BRANCH  19  20
ATOM     20  C   UNL     1       5.501   4.249  16.220  0.00  0.00    +0.000 A 
ATOM     21  C   UNL     1       4.701   5.396  16.135  0.00  0.00    +0.000 A 
ATOM     22  C   UNL     1       5.253   6.664  16.321  0.00  0.00    +0.000 A 
ATOM     23  C   UNL     1       6.610   6.814  16.593  0.00  0.00    +0.000 A 
ATOM     24  C   UNL     1       7.443   5.697  16.447  0.00  0.00    +0.000 A 
ATOM     25  C   UNL     1       6.891   4.416  16.258  0.00  0.00    +0.000 A 
BRANCH  23  26
ATOM     26  N   UNL     1       7.153   8.011  17.128  0.00  0.00    +0.000 N 
ATOM     27  C   UNL     1       8.074   8.083  18.168  0.00  0.00    +0.000 C 
ATOM     28  C   UNL     1       8.688   9.450  18.335  0.00  0.00    +0.000 C 
ATOM     29  O   UNL     1       8.423   7.168  18.908  0.00  0.00    +0.000 OA
ATOM     30  H   UNL     1       7.016   8.849  16.574  0.00  0.00    +0.000 HD
ENDBRANCH  23  26
ENDBRANCH  19  20
ENDBRANCH   4  19
TORSDOF 8
ENDMDL
MODEL 4
REMARK VINA RESULT:      -7.9      1.462      1.481
REMARK  Name = 
REMARK  10 active torsions:
REMARK  status: ('A' for Active; 'I' for Inactive)
REMARK    1  A    between atoms: C_1  and  O_2
REMARK    2  A    between atoms: O_2  and  C_3
REMARK    3  A    between atoms: C_7  and  C_8
REMARK    4  A    between atoms: C_8  and  C_9
REMARK    5  A    between atoms: C_9  and  C_10
REMARK    6  A    between atoms: C_10  and  O_11
REMARK    7  A    between atoms: N_14  and  C_15
REMARK    8  A    between atoms: C_15  and  C_16
REMARK    9  A    between atoms: C_19  and  N_20
REMARK   10  A    between atoms: C_21  and  C_22
REMARK                            x       y       z     vdW  Elec       q    Type
REMARK                         _______ _______ _______ _____ _____    ______ ____
ROOT
ATOM      1  C   UNL     1       3.102   3.415  18.734  0.00  0.00    +0.000 C 
ATOM      2  C   UNL     1       2.521   4.536  17.838  0.00  0.00    +0.000 C 
ATOM      3  C   UNL     1       2.448   5.911  18.508  0.00  0.00    +0.000 C 
ATOM      4  N   UNL     1       1.888   5.966  19.880  0.00  0.00    +0.000 NA
ATOM      5  C   UNL     1       2.346   4.868  20.733  0.00  0.00    +0.000 C 
ATOM      6  C   UNL     1       2.275   3.502  20.061  0.00  0.00    +0.000 C 
ENDROOT
BRANCH   1   7
ATOM      7  C   UNL     1       4.646   3.586  19.115  0.00  0.00    +0.000 C 
BRANCH   7  12
ATOM      8  C   UNL     1       6.919   5.292  16.495  0.00  0.00    +0.000 A 
ATOM      9  C   UNL     1       7.626   6.188  17.293  0.00  0.00    +0.000 A 
ATOM     10  C   UNL     1       7.409   6.253  18.668  0.00  0.00    +0.000 A 
ATOM     11  C   UNL     1       6.457   5.424  19.285  0.00  0.00    +0.000 A 
ATOM     12  C   UNL     1       5.702   4.528  18.527  0.00  0.00    +0.000 A 
ATOM     13  C   UNL     1       5.956   4.474  17.108  0.00  0.00    +0.000 A 
BRANCH   8  15
ATOM     14  C   UNL     1       6.653   4.622  14.166  0.00  0.00    +0.000 C 
ATOM     15  O   UNL     1       7.297   5.364  15.188  0.00  0.00    +0.000 OA
ENDBRANCH   8  15
ENDBRANCH   7  12
ENDBRANCH   1   7
BRANCH   1  16
ATOM     16  C   UNL     1       2.740   2.062  18.073  0.00  0.00    +0.000 C 
BRANCH  16  17
ATOM     17  O   UNL     1       1.466   1.573  18.487  0.00  0.00    +0.000 OA
ATOM     18  H   UNL     1       1.610   0.845  19.108  0.00  0.00    +0.000 HD
ENDBRANCH  16  17
ENDBRANCH   1  16
BRANCH   4  19
ATOM     19  C   UNL     1       2.230   7.297  20.427  0.00  0.00    +0.000 C 
BRANCH  19  20
ATOM     20  C   UNL     1       1.214   8.426  20.473  0.00  0.00    +0.000 A 
ATOM     21  C   UNL     1       0.708   8.822  21.718  0.00  0.00    +0.000 A 
ATOM     22  C   UNL     1       0.211  10.112  21.907  0.00  0.00    +0.000 A 
ATOM     23  C   UNL     1       0.207  11.030  20.861  0.00  0.00    +0.000 A 
ATOM     24  C   UNL     1       0.491  10.566  19.570  0.00  0.00    +0.000 A 
ATOM     25  C   UNL     1       0.991   9.265  19.374  0.00  0.00    +0.000 A 
BRANCH  23  26
ATOM     26  N   UNL     1       0.049  12.425  21.070  0.00  0.00    +0.000 N 
ATOM     27  C   UNL     1       1.085  13.351  21.136  0.00  0.00    +0.000 C 
ATOM     28  C   UNL     1       0.616  14.784  21.079  0.00  0.00    +0.000 C 
ATOM     29  O   UNL     1       2.286  13.110  21.212  0.00  0.00    +0.000 OA
ATOM     30  H   UNL     1      -0.889  12.790  20.955  0.00  0.00    +0.000 HD
ENDBRANCH  23  26
ENDBRANCH  19  20
ENDBRANCH   4  19
TORSDOF 8
ENDMDL
MODEL 5
REMARK VINA RESULT:      -7.9      0.827      1.612
REMARK  Name = 
REMARK  10 active torsions:
REMARK  status: ('A' for Active; 'I' for Inactive)
REMARK    1  A    between atoms: C_1  and  O_2
REMARK    2  A    between atoms: O_2  and  C_3
REMARK    3  A    between atoms: C_7  and  C_8
REMARK    4  A    between atoms: C_8  and  C_9
REMARK    5  A    between atoms: C_9  and  C_10
REMARK    6  A    between atoms: C_10  and  O_11
REMARK    7  A    between atoms: N_14  and  C_15
REMARK    8  A    between atoms: C_15  and  C_16
REMARK    9  A    between atoms: C_19  and  N_20
REMARK   10  A    between atoms: C_21  and  C_22
REMARK                            x       y       z     vdW  Elec       q    Type
REMARK                         _______ _______ _______ _____ _____    ______ ____
ROOT
ATOM      1  C   UNL     1       2.809   3.389  18.947  0.00  0.00    +0.000 C 
ATOM      2  C   UNL     1       1.891   4.266  18.060  0.00  0.00    +0.000 C 
ATOM      3  C   UNL     1       1.876   5.750  18.435  0.00  0.00    +0.000 C 
ATOM      4  N   UNL     1       1.724   6.084  19.872  0.00  0.00    +0.000 NA
ATOM      5  C   UNL     1       2.509   5.215  20.750  0.00  0.00    +0.000 C 
ATOM      6  C   UNL     1       2.385   3.734  20.416  0.00  0.00    +0.000 C 
ENDROOT
BRANCH   1   7
ATOM      7  C   UNL     1       4.372   3.693  18.811  0.00  0.00    +0.000 C 
BRANCH   7  12
ATOM      8  C   UNL     1       6.859   5.808  16.741  0.00  0.00    +0.000 A 
ATOM      9  C   UNL     1       6.708   5.243  15.477  0.00  0.00    +0.000 A 
ATOM     10  C   UNL     1       5.807   4.202  15.257  0.00  0.00    +0.000 A 
ATOM     11  C   UNL     1       5.037   3.684  16.312  0.00  0.00    +0.000 A 
ATOM     12  C   UNL     1       5.171   4.195  17.604  0.00  0.00    +0.000 A 
ATOM     13  C   UNL     1       6.101   5.280  17.799  0.00  0.00    +0.000 A 
BRANCH   8  15
ATOM     14  C   UNL     1       7.637   7.960  17.583  0.00  0.00    +0.000 C 
ATOM     15  O   UNL     1       7.763   6.828  16.740  0.00  0.00    +0.000 OA
ENDBRANCH   8  15
ENDBRANCH   7  12
ENDBRANCH   1   7
BRANCH   1  16
ATOM     16  C   UNL     1       2.408   1.913  18.705  0.00  0.00    +0.000 C 
BRANCH  16  17
ATOM     17  O   UNL     1       3.495   1.121  18.227  0.00  0.00    +0.000 OA
ATOM     18  H   UNL     1       3.418   1.052  17.265  0.00  0.00    +0.000 HD
ENDBRANCH  16  17
ENDBRANCH   1  16
BRANCH   4  19
ATOM     19  C   UNL     1       2.075   7.514  20.017  0.00  0.00    +0.000 C 
BRANCH  19  20
ATOM     20  C   UNL     1       1.034   8.557  20.386  0.00  0.00    +0.000 A 
ATOM     21  C   UNL     1       0.531   8.570  21.693  0.00  0.00    +0.000 A 
ATOM     22  C   UNL     1       0.006   9.740  22.243  0.00  0.00    +0.000 A 
ATOM     23  C   UNL     1      -0.029  10.918  21.502  0.00  0.00    +0.000 A 
ATOM     24  C   UNL     1       0.254  10.848  20.131  0.00  0.00    +0.000 A 
ATOM     25  C   UNL     1       0.781   9.669  19.572  0.00  0.00    +0.000 A 
BRANCH  23  26
ATOM     26  N   UNL     1      -0.216  12.192  22.100  0.00  0.00    +0.000 N 
ATOM     27  C   UNL     1      -1.397  12.640  22.684  0.00  0.00    +0.000 C 
ATOM     28  C   UNL     1      -1.228  13.905  23.487  0.00  0.00    +0.000 C 
ATOM     29  O   UNL     1      -2.501  12.108  22.618  0.00  0.00    +0.000 OA
ATOM     30  H   UNL     1       0.626  12.720  22.297  0.00  0.00    +0.000 HD
ENDBRANCH  23  26
ENDBRANCH  19  20
ENDBRANCH   4  19
TORSDOF 8
ENDMDL
MODEL 6
REMARK VINA RESULT:      -7.8      2.168      2.646
REMARK  Name = 
REMARK  10 active torsions:
REMARK  status: ('A' for Active; 'I' for Inactive)
REMARK    1  A    between atoms: C_1  and  O_2
REMARK    2  A    between atoms: O_2  and  C_3
REMARK    3  A    between atoms: C_7  and  C_8
REMARK    4  A    between atoms: C_8  and  C_9
REMARK    5  A    between atoms: C_9  and  C_10
REMARK    6  A    between atoms: C_10  and  O_11
REMARK    7  A    between atoms: N_14  and  C_15
REMARK    8  A    between atoms: C_15  and  C_16
REMARK    9  A    between atoms: C_19  and  N_20
REMARK   10  A    between atoms: C_21  and  C_22
REMARK                            x       y       z     vdW  Elec       q    Type
REMARK                         _______ _______ _______ _____ _____    ______ ____
ROOT
ATOM      1  C   UNL     1       2.403   3.177  18.996  0.00  0.00    +0.000 C 
ATOM      2  C   UNL     1       1.835   4.091  17.882  0.00  0.00    +0.000 C 
ATOM      3  C   UNL     1       2.109   5.584  18.085  0.00  0.00    +0.000 C 
ATOM      4  N   UNL     1       1.846   6.143  19.433  0.00  0.00    +0.000 NA
ATOM      5  C   UNL     1       2.290   5.264  20.516  0.00  0.00    +0.000 C 
ATOM      6  C   UNL     1       1.877   3.809  20.330  0.00  0.00    +0.000 C 
ENDROOT
BRANCH   1   7
ATOM      7  C   UNL     1       3.999   3.127  19.081  0.00  0.00    +0.000 C 
BRANCH   7  12
ATOM      8  C   UNL     1       6.300   4.764  16.442  0.00  0.00    +0.000 A 
ATOM      9  C   UNL     1       6.952   5.725  17.211  0.00  0.00    +0.000 A 
ATOM     10  C   UNL     1       6.689   5.857  18.573  0.00  0.00    +0.000 A 
ATOM     11  C   UNL     1       5.745   5.031  19.205  0.00  0.00    +0.000 A 
ATOM     12  C   UNL     1       5.043   4.071  18.475  0.00  0.00    +0.000 A 
ATOM     13  C   UNL     1       5.345   3.949  17.070  0.00  0.00    +0.000 A 
BRANCH   8  15
ATOM     14  C   UNL     1       6.145   3.946  14.150  0.00  0.00    +0.000 C 
ATOM     15  O   UNL     1       6.718   4.778  15.145  0.00  0.00    +0.000 OA
ENDBRANCH   8  15
ENDBRANCH   7  12
ENDBRANCH   1   7
BRANCH   1  16
ATOM     16  C   UNL     1       1.714   1.798  18.856  0.00  0.00    +0.000 C 
BRANCH  16  17
ATOM     17  O   UNL     1       0.375   1.899  18.373  0.00  0.00    +0.000 OA
ATOM     18  H   UNL     1       0.330   1.454  17.515  0.00  0.00    +0.000 HD
ENDBRANCH  16  17
ENDBRANCH   1  16
BRANCH   4  19
ATOM     19  C   UNL     1       2.490   7.474  19.475  0.00  0.00    +0.000 C 
BRANCH  19  20
ATOM     20  C   UNL     1       1.674   8.753  19.560  0.00  0.00    +0.000 A 
ATOM     21  C   UNL     1       1.635   9.600  18.445  0.00  0.00    +0.000 A 
ATOM     22  C   UNL     1       0.561  10.468  18.247  0.00  0.00    +0.000 A 
ATOM     23  C   UNL     1      -0.493  10.510  19.155  0.00  0.00    +0.000 A 
ATOM     24  C   UNL     1      -0.343   9.841  20.377  0.00  0.00    +0.000 A 
ATOM     25  C   UNL     1       0.740   8.966  20.582  0.00  0.00    +0.000 A 
BRANCH  23  26
ATOM     26  N   UNL     1      -1.748  11.094  18.841  0.00  0.00    +0.000 N 
ATOM     27  C   UNL     1      -2.708  10.536  18.003  0.00  0.00    +0.000 C 
ATOM     28  C   UNL     1      -4.047  11.227  18.077  0.00  0.00    +0.000 C 
ATOM     29  O   UNL     1      -2.568   9.567  17.263  0.00  0.00    +0.000 OA
ATOM     30  H   UNL     1      -2.042  11.863  19.431  0.00  0.00    +0.000 HD
ENDBRANCH  23  26
ENDBRANCH  19  20
ENDBRANCH   4  19
TORSDOF 8
ENDMDL
MODEL 7
REMARK VINA RESULT:      -7.7      1.454      1.556
REMARK  Name = 
REMARK  10 active torsions:
REMARK  status: ('A' for Active; 'I' for Inactive)
REMARK    1  A    between atoms: C_1  and  O_2
REMARK    2  A    between atoms: O_2  and  C_3
REMARK    3  A    between atoms: C_7  and  C_8
REMARK    4  A    between atoms: C_8  and  C_9
REMARK    5  A    between atoms: C_9  and  C_10
REMARK    6  A    between atoms: C_10  and  O_11
REMARK    7  A    between atoms: N_14  and  C_15
REMARK    8  A    between atoms: C_15  and  C_16
REMARK    9  A    between atoms: C_19  and  N_20
REMARK   10  A    between atoms: C_21  and  C_22
REMARK                            x       y       z     vdW  Elec       q    Type
REMARK                         _______ _______ _______ _____ _____    ______ ____
ROOT
ATOM      1  C   UNL     1       3.165   3.175  18.806  0.00  0.00    +0.000 C 
ATOM      2  C   UNL     1       2.498   4.183  17.838  0.00  0.00    +0.000 C 
ATOM      3  C   UNL     1       2.434   5.620  18.365  0.00  0.00    +0.000 C 
ATOM      4  N   UNL     1       1.962   5.809  19.758  0.00  0.00    +0.000 NA
ATOM      5  C   UNL     1       2.503   4.817  20.688  0.00  0.00    +0.000 C 
ATOM      6  C   UNL     1       2.423   3.386  20.170  0.00  0.00    +0.000 C 
ENDROOT
BRANCH   1   7
ATOM      7  C   UNL     1       4.725   3.414  19.063  0.00  0.00    +0.000 C 
BRANCH   7  12
ATOM      8  C   UNL     1       6.590   5.458  16.364  0.00  0.00    +0.000 A 
ATOM      9  C   UNL     1       7.378   6.293  17.154  0.00  0.00    +0.000 A 
ATOM     10  C   UNL     1       7.346   6.208  18.544  0.00  0.00    +0.000 A 
ATOM     11  C   UNL     1       6.504   5.288  19.189  0.00  0.00    +0.000 A 
ATOM     12  C   UNL     1       5.673   4.448  18.445  0.00  0.00    +0.000 A 
ATOM     13  C   UNL     1       5.736   4.549  17.008  0.00  0.00    +0.000 A 
BRANCH   8  15
ATOM     14  C   UNL     1       6.854   4.623  14.089  0.00  0.00    +0.000 C 
ATOM     15  O   UNL     1       6.788   5.677  15.034  0.00  0.00    +0.000 OA
ENDBRANCH   8  15
ENDBRANCH   7  12
ENDBRANCH   1   7
BRANCH   1  16
ATOM     16  C   UNL     1       2.796   1.753  18.316  0.00  0.00    +0.000 C 
BRANCH  16  17
ATOM     17  O   UNL     1       3.906   0.857  18.343  0.00  0.00    +0.000 OA
ATOM     18  H   UNL     1       4.678   1.344  18.665  0.00  0.00    +0.000 HD
ENDBRANCH  16  17
ENDBRANCH   1  16
BRANCH   4  19
ATOM     19  C   UNL     1       2.305   7.198  20.138  0.00  0.00    +0.000 C 
BRANCH  19  20
ATOM     20  C   UNL     1       1.390   8.365  19.807  0.00  0.00    +0.000 A 
ATOM     21  C   UNL     1       0.615   8.920  20.833  0.00  0.00    +0.000 A 
ATOM     22  C   UNL     1       0.175  10.242  20.757  0.00  0.00    +0.000 A 
ATOM     23  C   UNL     1       0.498  11.035  19.659  0.00  0.00    +0.000 A 
ATOM     24  C   UNL     1       1.067  10.415  18.538  0.00  0.00    +0.000 A 
ATOM     25  C   UNL     1       1.510   9.081  18.610  0.00  0.00    +0.000 A 
BRANCH  23  26
ATOM     26  N   UNL     1       0.389  12.450  19.680  0.00  0.00    +0.000 N 
ATOM     27  C   UNL     1      -0.804  13.165  19.641  0.00  0.00    +0.000 C 
ATOM     28  C   UNL     1      -0.639  14.629  19.964  0.00  0.00    +0.000 C 
ATOM     29  O   UNL     1      -1.922  12.722  19.398  0.00  0.00    +0.000 OA
ATOM     30  H   UNL     1       1.222  12.958  19.951  0.00  0.00    +0.000 HD
ENDBRANCH  23  26
ENDBRANCH  19  20
ENDBRANCH   4  19
TORSDOF 8
ENDMDL
MODEL 8
REMARK VINA RESULT:      -7.7      3.088      9.609
REMARK  Name = 
REMARK  10 active torsions:
REMARK  status: ('A' for Active; 'I' for Inactive)
REMARK    1  A    between atoms: C_1  and  O_2
REMARK    2  A    between atoms: O_2  and  C_3
REMARK    3  A    between atoms: C_7  and  C_8
REMARK    4  A    between atoms: C_8  and  C_9
REMARK    5  A    between atoms: C_9  and  C_10
REMARK    6  A    between atoms: C_10  and  O_11
REMARK    7  A    between atoms: N_14  and  C_15
REMARK    8  A    between atoms: C_15  and  C_16
REMARK    9  A    between atoms: C_19  and  N_20
REMARK   10  A    between atoms: C_21  and  C_22
REMARK                            x       y       z     vdW  Elec       q    Type
REMARK                         _______ _______ _______ _____ _____    ______ ____
ROOT
ATOM      1  C   UNL     1       0.715  10.347  19.666  0.00  0.00    +0.000 C 
ATOM      2  C   UNL     1       1.667   9.701  18.628  0.00  0.00    +0.000 C 
ATOM      3  C   UNL     1       1.808   8.182  18.757  0.00  0.00    +0.000 C 
ATOM      4  N   UNL     1       2.035   7.636  20.117  0.00  0.00    +0.000 NA
ATOM      5  C   UNL     1       1.215   8.285  21.141  0.00  0.00    +0.000 C 
ATOM      6  C   UNL     1       1.214   9.806  21.049  0.00  0.00    +0.000 C 
ENDROOT
BRANCH   1   7
ATOM      7  C   UNL     1      -0.824   9.942  19.515  0.00  0.00    +0.000 C 
BRANCH   7  12
ATOM      8  C   UNL     1      -3.917  11.587  17.881  0.00  0.00    +0.000 A 
ATOM      9  C   UNL     1      -3.801  11.134  16.568  0.00  0.00    +0.000 A 
ATOM     10  C   UNL     1      -2.760  10.290  16.187  0.00  0.00    +0.000 A 
ATOM     11  C   UNL     1      -1.787   9.886  17.116  0.00  0.00    +0.000 A 
ATOM     12  C   UNL     1      -1.840  10.333  18.437  0.00  0.00    +0.000 A 
ATOM     13  C   UNL     1      -2.935  11.195  18.806  0.00  0.00    +0.000 A 
BRANCH   8  15
ATOM     14  C   UNL     1      -6.050  12.464  17.091  0.00  0.00    +0.000 C 
ATOM     15  O   UNL     1      -5.015  12.375  18.055  0.00  0.00    +0.000 OA
ENDBRANCH   8  15
ENDBRANCH   7  12
ENDBRANCH   1   7
BRANCH   1  16
ATOM     16  C   UNL     1       0.992  11.870  19.659  0.00  0.00    +0.000 C 
BRANCH  16  17
ATOM     17  O   UNL     1       1.274  12.383  20.960  0.00  0.00    +0.000 OA
ATOM     18  H   UNL     1       1.362  13.344  20.893  0.00  0.00    +0.000 HD
ENDBRANCH  16  17
ENDBRANCH   1  16
BRANCH   4  19
ATOM     19  C   UNL     1       1.800   6.177  20.034  0.00  0.00    +0.000 C 
BRANCH  19  20
ATOM     20  C   UNL     1       2.768   5.253  19.315  0.00  0.00    +0.000 A 
ATOM     21  C   UNL     1       2.285   4.464  18.262  0.00  0.00    +0.000 A 
ATOM     22  C   UNL     1       3.143   4.013  17.259  0.00  0.00    +0.000 A 
ATOM     23  C   UNL     1       4.497   4.336  17.286  0.00  0.00    +0.000 A 
ATOM     24  C   UNL     1       5.017   4.919  18.449  0.00  0.00    +0.000 A 
ATOM     25  C   UNL     1       4.155   5.374  19.465  0.00  0.00    +0.000 A 
BRANCH  23  26
ATOM     26  N   UNL     1       5.334   4.212  16.146  0.00  0.00    +0.000 N 
ATOM     27  C   UNL     1       5.751   5.264  15.336  0.00  0.00    +0.000 C 
ATOM     28  C   UNL     1       6.854   4.885  14.380  0.00  0.00    +0.000 C 
ATOM     29  O   UNL     1       5.331   6.417  15.350  0.00  0.00    +0.000 OA
ATOM     30  H   UNL     1       5.823   3.331  16.046  0.00  0.00    +0.000 HD
ENDBRANCH  23  26
ENDBRANCH  19  20
ENDBRANCH   4  19
TORSDOF 8
ENDMDL
MODEL 9
REMARK VINA RESULT:      -7.7      2.141      3.010
REMARK  Name = 
REMARK  10 active torsions:
REMARK  status: ('A' for Active; 'I' for Inactive)
REMARK    1  A    between atoms: C_1  and  O_2
REMARK    2  A    between atoms: O_2  and  C_3
REMARK    3  A    between atoms: C_7  and  C_8
REMARK    4  A    between atoms: C_8  and  C_9
REMARK    5  A    between atoms: C_9  and  C_10
REMARK    6  A    between atoms: C_10  and  O_11
REMARK    7  A    between atoms: N_14  and  C_15
REMARK    8  A    between atoms: C_15  and  C_16
REMARK    9  A    between atoms: C_19  and  N_20
REMARK   10  A    between atoms: C_21  and  C_22
REMARK                            x       y       z     vdW  Elec       q    Type
REMARK                         _______ _______ _______ _____ _____    ______ ____
ROOT
ATOM      1  C   UNL     1       2.549   3.721  18.673  0.00  0.00    +0.000 C 
ATOM      2  C   UNL     1       1.979   4.876  17.812  0.00  0.00    +0.000 C 
ATOM      3  C   UNL     1       2.017   6.249  18.488  0.00  0.00    +0.000 C 
ATOM      4  N   UNL     1       1.536   6.327  19.888  0.00  0.00    +0.000 NA
ATOM      5  C   UNL     1       1.982   5.203  20.713  0.00  0.00    +0.000 C 
ATOM      6  C   UNL     1       1.801   3.846  20.044  0.00  0.00    +0.000 C 
ENDROOT
BRANCH   1   7
ATOM      7  C   UNL     1       4.118   3.809  18.969  0.00  0.00    +0.000 C 
BRANCH   7  12
ATOM      8  C   UNL     1       7.114   6.039  17.974  0.00  0.00    +0.000 A 
ATOM      9  C   UNL     1       7.350   5.608  16.670  0.00  0.00    +0.000 A 
ATOM     10  C   UNL     1       6.557   4.625  16.082  0.00  0.00    +0.000 A 
ATOM     11  C   UNL     1       5.505   4.029  16.797  0.00  0.00    +0.000 A 
ATOM     12  C   UNL     1       5.244   4.403  18.116  0.00  0.00    +0.000 A 
ATOM     13  C   UNL     1       6.073   5.432  18.694  0.00  0.00    +0.000 A 
BRANCH   8  15
ATOM     14  C   UNL     1       7.928   8.331  17.809  0.00  0.00    +0.000 C 
ATOM     15  O   UNL     1       7.978   7.023  18.351  0.00  0.00    +0.000 OA
ENDBRANCH   8  15
ENDBRANCH   7  12
ENDBRANCH   1   7
BRANCH   1  16
ATOM     16  C   UNL     1       2.080   2.393  18.031  0.00  0.00    +0.000 C 
BRANCH  16  17
ATOM     17  O   UNL     1       2.904   1.286  18.393  0.00  0.00    +0.000 OA
ATOM     18  H   UNL     1       3.742   1.632  18.733  0.00  0.00    +0.000 HD
ENDBRANCH  16  17
ENDBRANCH   1  16
BRANCH   4  19
ATOM     19  C   UNL     1       1.978   7.637  20.417  0.00  0.00    +0.000 C 
BRANCH  19  20
ATOM     20  C   UNL     1       1.334   8.937  19.968  0.00  0.00    +0.000 A 
ATOM     21  C   UNL     1       1.395   9.282  18.612  0.00  0.00    +0.000 A 
ATOM     22  C   UNL     1       0.439  10.129  18.049  0.00  0.00    +0.000 A 
ATOM     23  C   UNL     1      -0.593  10.648  18.825  0.00  0.00    +0.000 A 
ATOM     24  C   UNL     1      -0.519  10.494  20.216  0.00  0.00    +0.000 A 
ATOM     25  C   UNL     1       0.445   9.643  20.788  0.00  0.00    +0.000 A 
BRANCH  23  26
ATOM     26  N   UNL     1      -1.766  11.213  18.258  0.00  0.00    +0.000 N 
ATOM     27  C   UNL     1      -2.900  10.501  17.882  0.00  0.00    +0.000 C 
ATOM     28  C   UNL     1      -4.089  11.380  17.580  0.00  0.00    +0.000 C 
ATOM     29  O   UNL     1      -3.013   9.282  17.801  0.00  0.00    +0.000 OA
ATOM     30  H   UNL     1      -1.854  12.219  18.327  0.00  0.00    +0.000 HD
ENDBRANCH  23  26
ENDBRANCH  19  20
ENDBRANCH   4  19
TORSDOF 8
ENDMDL
