MODEL 1
REMARK VINA RESULT:      -7.4      0.000      0.000
REMARK  Name = 
REMARK  16 active torsions:
REMARK  status: ('A' for Active; 'I' for Inactive)
REMARK    1  A    between atoms: C_1  and  C_2
REMARK    2  A    between atoms: C_2  and  C_3
REMARK    3  A    between atoms: C_3  and  C_4
REMARK    4  A    between atoms: C_3  and  C_5
REMARK    5  A    between atoms: C_9  and  C_10
REMARK    6  A    between atoms: N_12  and  C_13
REMARK    7  A    between atoms: C_15  and  C_16
REMARK    8  A    between atoms: C_16  and  C_17
REMARK    9  A    between atoms: C_16  and  C_18
REMARK   10  A    between atoms: C_18  and  C_19
REMARK   11  A    between atoms: C_18  and  N_27
REMARK   12  A    between atoms: C_19  and  C_20
REMARK   13  A    between atoms: C_20  and  C_21
REMARK   14  A    between atoms: C_28  and  C_30
REMARK   15  A    between atoms: C_30  and  C_31
REMARK   16  A    between atoms: C_30  and  N_32
REMARK                            x       y       z     vdW  Elec       q    Type
REMARK                         _______ _______ _______ _____ _____    ______ ____
ROOT
ATOM      1  C   UNL     1       5.512   6.595  17.138  0.00  0.00    +0.000 C 
ATOM      2  C   UNL     1       5.514   6.590  15.602  0.00  0.00    +0.000 C 
ENDROOT
BRANCH   1   5
ATOM      3  C   UNL     1       7.952   6.327  18.442  0.00  0.00    +0.000 C 
ATOM      4  C   UNL     1       6.877   5.454  19.074  0.00  0.00    +0.000 C 
ATOM      5  C   UNL     1       6.751   5.827  17.616  0.00  0.00    +0.000 C 
BRANCH   3   8
ATOM      6  C   UNL     1       8.361   8.833  18.209  0.00  0.00    +0.000 C 
ATOM      7  O   UNL     1       7.821   8.870  17.089  0.00  0.00    +0.000 OA
ATOM      8  N   UNL     1       8.252   7.656  19.005  0.00  0.00    +0.000 N 
ATOM      9  H   UNL     1       8.745   7.653  19.899  0.00  0.00    +0.000 HD
BRANCH   6  14
ATOM     10  C   UNL     1       8.698  11.510  18.990  0.00  0.00    +0.000 C 
ATOM     11  C   UNL     1       9.470  11.323  20.355  0.00  0.00    +0.000 C 
ATOM     12  O   UNL     1       9.883  12.010  21.261  0.00  0.00    +0.000 OA
ATOM     13  O   UNL     1       9.572   9.970  20.213  0.00  0.00    +0.000 OA
ATOM     14  C   UNL     1       9.263  10.032  18.778  0.00  0.00    +0.000 C 
BRANCH  10  15
ATOM     15  C   UNL     1       9.175  12.719  18.125  0.00  0.00    +0.000 C 
ATOM     16  C   UNL     1       8.124  13.201  17.106  0.00  0.00    +0.000 C 
BRANCH  15  18
ATOM     17  C   UNL     1      11.196  13.619  16.694  0.00  0.00    +0.000 C 
ATOM     18  C   UNL     1      10.516  12.447  17.402  0.00  0.00    +0.000 C 
ENDBRANCH  15  18
ENDBRANCH  10  15
ENDBRANCH   6  14
ENDBRANCH   3   8
ENDBRANCH   1   5
BRANCH   1  19
ATOM     19  C   UNL     1       4.182   6.037  17.813  0.00  0.00    +0.000 C 
BRANCH  19  20
ATOM     20  N   UNL     1       3.050   7.013  17.838  0.00  0.00    +0.000 N 
ATOM     21  C   UNL     1       2.356   7.384  18.978  0.00  0.00    +0.000 C 
ATOM     22  O   UNL     1       2.452   6.790  20.053  0.00  0.00    +0.000 OA
ATOM     23  H   UNL     1       2.934   7.589  17.013  0.00  0.00    +0.000 HD
BRANCH  21  24
ATOM     24  C   UNL     1       1.451   8.639  18.826  0.00  0.00    +0.000 C 
ATOM     25  C   UNL     1       2.086   9.678  17.904  0.00  0.00    +0.000 C 
BRANCH  24  26
ATOM     26  N   UNL     1       1.230   9.250  20.154  0.00  0.00    +0.000 NA
ATOM     27  H   UNL     1       1.143   8.481  20.827  0.00  0.00    +0.000 HD
ATOM     28  H   UNL     1       0.300   9.673  20.156  0.00  0.00    +0.000 HD
ENDBRANCH  24  26
ENDBRANCH  21  24
ENDBRANCH  19  20
BRANCH  19  29
ATOM     29  C   UNL     1       3.592   4.700  17.280  0.00  0.00    +0.000 C 
BRANCH  29  30
ATOM     30  C   UNL     1       3.874   3.448  18.090  0.00  0.00    +0.000 C 
BRANCH  30  31
ATOM     31  C   UNL     1       2.995   3.286  19.296  0.00  0.00    +0.000 A 
ATOM     32  C   UNL     1       1.625   3.564  19.171  0.00  0.00    +0.000 A 
ATOM     33  C   UNL     1       0.767   3.344  20.239  0.00  0.00    +0.000 A 
ATOM     34  C   UNL     1       1.268   2.833  21.440  0.00  0.00    +0.000 A 
ATOM     35  C   UNL     1       2.629   2.551  21.564  0.00  0.00    +0.000 A 
ATOM     36  C   UNL     1       3.494   2.771  20.493  0.00  0.00    +0.000 A 
ENDBRANCH  30  31
ENDBRANCH  29  30
ENDBRANCH  19  29
ENDBRANCH   1  19
TORSDOF 12
ENDMDL
MODEL 2
REMARK VINA RESULT:      -7.4      3.844      7.346
REMARK  Name = 
REMARK  16 active torsions:
REMARK  status: ('A' for Active; 'I' for Inactive)
REMARK    1  A    between atoms: C_1  and  C_2
REMARK    2  A    between atoms: C_2  and  C_3
REMARK    3  A    between atoms: C_3  and  C_4
REMARK    4  A    between atoms: C_3  and  C_5
REMARK    5  A    between atoms: C_9  and  C_10
REMARK    6  A    between atoms: N_12  and  C_13
REMARK    7  A    between atoms: C_15  and  C_16
REMARK    8  A    between atoms: C_16  and  C_17
REMARK    9  A    between atoms: C_16  and  C_18
REMARK   10  A    between atoms: C_18  and  C_19
REMARK   11  A    between atoms: C_18  and  N_27
REMARK   12  A    between atoms: C_19  and  C_20
REMARK   13  A    between atoms: C_20  and  C_21
REMARK   14  A    between atoms: C_28  and  C_30
REMARK   15  A    between atoms: C_30  and  C_31
REMARK   16  A    between atoms: C_30  and  N_32
REMARK                            x       y       z     vdW  Elec       q    Type
REMARK                         _______ _______ _______ _____ _____    ______ ____
ROOT
ATOM      1  C   UNL     1       2.853   6.697  17.953  0.00  0.00    +0.000 C 
ATOM      2  C   UNL     1       3.054   8.186  17.632  0.00  0.00    +0.000 C 
ENDROOT
BRANCH   1   5
ATOM      3  C   UNL     1       2.209   7.395  20.566  0.00  0.00    +0.000 C 
ATOM      4  C   UNL     1       1.648   6.030  20.193  0.00  0.00    +0.000 C 
ATOM      5  C   UNL     1       2.879   6.533  19.479  0.00  0.00    +0.000 C 
BRANCH   3   8
ATOM      6  C   UNL     1       1.007   9.401  21.582  0.00  0.00    +0.000 C 
ATOM      7  O   UNL     1       1.708   9.367  22.609  0.00  0.00    +0.000 OA
ATOM      8  N   UNL     1       1.362   8.597  20.460  0.00  0.00    +0.000 N 
ATOM      9  H   UNL     1       0.737   8.624  19.653  0.00  0.00    +0.000 HD
BRANCH   6  14
ATOM     10  C   UNL     1      -0.394  11.831  21.733  0.00  0.00    +0.000 C 
ATOM     11  C   UNL     1      -1.274  11.745  20.426  0.00  0.00    +0.000 C 
ATOM     12  O   UNL     1      -2.057  12.437  19.817  0.00  0.00    +0.000 OA
ATOM     13  O   UNL     1      -0.861  10.479  20.126  0.00  0.00    +0.000 OA
ATOM     14  C   UNL     1      -0.347  10.255  21.484  0.00  0.00    +0.000 C 
BRANCH  10  15
ATOM     15  C   UNL     1      -1.110  12.461  22.970  0.00  0.00    +0.000 C 
ATOM     16  C   UNL     1      -2.588  12.046  23.106  0.00  0.00    +0.000 C 
BRANCH  15  18
ATOM     17  C   UNL     1      -1.524  14.729  24.245  0.00  0.00    +0.000 C 
ATOM     18  C   UNL     1      -0.997  14.004  23.007  0.00  0.00    +0.000 C 
ENDBRANCH  15  18
ENDBRANCH  10  15
ENDBRANCH   6  14
ENDBRANCH   3   8
ENDBRANCH   1   5
BRANCH   1  19
ATOM     19  C   UNL     1       3.879   5.708  17.242  0.00  0.00    +0.000 C 
BRANCH  19  20
ATOM     20  N   UNL     1       5.226   5.654  17.886  0.00  0.00    +0.000 N 
ATOM     21  C   UNL     1       6.418   5.950  17.244  0.00  0.00    +0.000 C 
ATOM     22  O   UNL     1       6.515   6.075  16.023  0.00  0.00    +0.000 OA
ATOM     23  H   UNL     1       5.240   5.610  18.898  0.00  0.00    +0.000 HD
BRANCH  21  24
ATOM     24  C   UNL     1       7.645   6.145  18.178  0.00  0.00    +0.000 C 
ATOM     25  C   UNL     1       7.357   5.646  19.592  0.00  0.00    +0.000 C 
BRANCH  24  26
ATOM     26  N   UNL     1       7.992   7.581  18.239  0.00  0.00    +0.000 NA
ATOM     27  H   UNL     1       8.426   7.823  17.342  0.00  0.00    +0.000 HD
ATOM     28  H   UNL     1       8.755   7.693  18.908  0.00  0.00    +0.000 HD
ENDBRANCH  24  26
ENDBRANCH  21  24
ENDBRANCH  19  20
BRANCH  19  29
ATOM     29  C   UNL     1       3.443   4.231  17.021  0.00  0.00    +0.000 C 
BRANCH  29  30
ATOM     30  C   UNL     1       3.945   3.205  18.021  0.00  0.00    +0.000 C 
BRANCH  30  31
ATOM     31  C   UNL     1       3.044   3.012  19.206  0.00  0.00    +0.000 A 
ATOM     32  C   UNL     1       1.676   2.795  18.983  0.00  0.00    +0.000 A 
ATOM     33  C   UNL     1       0.828   2.527  20.047  0.00  0.00    +0.000 A 
ATOM     34  C   UNL     1       1.340   2.461  21.345  0.00  0.00    +0.000 A 
ATOM     35  C   UNL     1       2.701   2.671  21.569  0.00  0.00    +0.000 A 
ATOM     36  C   UNL     1       3.557   2.941  20.502  0.00  0.00    +0.000 A 
ENDBRANCH  30  31
ENDBRANCH  29  30
ENDBRANCH  19  29
ENDBRANCH   1  19
TORSDOF 12
ENDMDL
MODEL 3
REMARK VINA RESULT:      -7.3      4.743      7.504
REMARK  Name = 
REMARK  16 active torsions:
REMARK  status: ('A' for Active; 'I' for Inactive)
REMARK    1  A    between atoms: C_1  and  C_2
REMARK    2  A    between atoms: C_2  and  C_3
REMARK    3  A    between atoms: C_3  and  C_4
REMARK    4  A    between atoms: C_3  and  C_5
REMARK    5  A    between atoms: C_9  and  C_10
REMARK    6  A    between atoms: N_12  and  C_13
REMARK    7  A    between atoms: C_15  and  C_16
REMARK    8  A    between atoms: C_16  and  C_17
REMARK    9  A    between atoms: C_16  and  C_18
REMARK   10  A    between atoms: C_18  and  C_19
REMARK   11  A    between atoms: C_18  and  N_27
REMARK   12  A    between atoms: C_19  and  C_20
REMARK   13  A    between atoms: C_20  and  C_21
REMARK   14  A    between atoms: C_28  and  C_30
REMARK   15  A    between atoms: C_30  and  C_31
REMARK   16  A    between atoms: C_30  and  N_32
REMARK                            x       y       z     vdW  Elec       q    Type
REMARK                         _______ _______ _______ _____ _____    ______ ____
ROOT
ATOM      1  C   UNL     1       3.778   6.506  18.959  0.00  0.00    +0.000 C 
ATOM      2  C   UNL     1       4.051   6.938  17.511  0.00  0.00    +0.000 C 
ENDROOT
BRANCH   1   5
ATOM      3  C   UNL     1       5.539   4.456  18.305  0.00  0.00    +0.000 C 
ATOM      4  C   UNL     1       6.027   5.256  19.506  0.00  0.00    +0.000 C 
ATOM      5  C   UNL     1       4.546   5.202  19.217  0.00  0.00    +0.000 C 
BRANCH   3   8
ATOM      6  C   UNL     1       5.551   4.135  15.776  0.00  0.00    +0.000 C 
ATOM      7  O   UNL     1       4.432   3.593  15.786  0.00  0.00    +0.000 OA
ATOM      8  N   UNL     1       6.036   4.774  16.953  0.00  0.00    +0.000 N 
ATOM      9  H   UNL     1       6.976   5.170  16.914  0.00  0.00    +0.000 HD
BRANCH   6  14
ATOM     10  C   UNL     1       6.103   4.612  13.063  0.00  0.00    +0.000 C 
ATOM     11  C   UNL     1       7.545   5.247  13.164  0.00  0.00    +0.000 C 
ATOM     12  O   UNL     1       8.368   5.743  12.428  0.00  0.00    +0.000 OA
ATOM     13  O   UNL     1       7.635   5.047  14.511  0.00  0.00    +0.000 OA
ATOM     14  C   UNL     1       6.530   4.078  14.506  0.00  0.00    +0.000 C 
BRANCH  10  15
ATOM     15  C   UNL     1       5.889   3.655  11.848  0.00  0.00    +0.000 C 
ATOM     16  C   UNL     1       4.430   3.188  11.679  0.00  0.00    +0.000 C 
BRANCH  15  18
ATOM     17  C   UNL     1       6.410   1.186  11.091  0.00  0.00    +0.000 C 
ATOM     18  C   UNL     1       6.829   2.426  11.879  0.00  0.00    +0.000 C 
ENDBRANCH  15  18
ENDBRANCH  10  15
ENDBRANCH   6  14
ENDBRANCH   3   8
ENDBRANCH   1   5
BRANCH   1  19
ATOM     19  C   UNL     1       2.240   6.363  19.344  0.00  0.00    +0.000 C 
BRANCH  19  20
ATOM     20  N   UNL     1       1.829   4.979  19.731  0.00  0.00    +0.000 N 
ATOM     21  C   UNL     1       1.456   3.991  18.834  0.00  0.00    +0.000 C 
ATOM     22  O   UNL     1       1.213   4.210  17.647  0.00  0.00    +0.000 OA
ATOM     23  H   UNL     1       2.046   4.693  20.677  0.00  0.00    +0.000 HD
BRANCH  21  24
ATOM     24  C   UNL     1       1.388   2.553  19.422  0.00  0.00    +0.000 C 
ATOM     25  C   UNL     1       1.718   2.541  20.913  0.00  0.00    +0.000 C 
BRANCH  24  26
ATOM     26  N   UNL     1       2.352   1.686  18.712  0.00  0.00    +0.000 NA
ATOM     27  H   UNL     1       2.806   2.264  17.997  0.00  0.00    +0.000 HD
ATOM     28  H   UNL     1       1.822   1.006  18.165  0.00  0.00    +0.000 HD
ENDBRANCH  24  26
ENDBRANCH  21  24
ENDBRANCH  19  20
BRANCH  19  29
ATOM     29  C   UNL     1       1.665   7.308  20.439  0.00  0.00    +0.000 C 
BRANCH  29  30
ATOM     30  C   UNL     1       1.318   8.724  20.017  0.00  0.00    +0.000 C 
BRANCH  30  31
ATOM     31  C   UNL     1       0.603   9.520  21.070  0.00  0.00    +0.000 A 
ATOM     32  C   UNL     1       0.312  10.868  20.814  0.00  0.00    +0.000 A 
ATOM     33  C   UNL     1      -0.423  11.611  21.727  0.00  0.00    +0.000 A 
ATOM     34  C   UNL     1      -0.884  11.010  22.901  0.00  0.00    +0.000 A 
ATOM     35  C   UNL     1      -0.601   9.668  23.156  0.00  0.00    +0.000 A 
ATOM     36  C   UNL     1       0.137   8.918  22.241  0.00  0.00    +0.000 A 
ENDBRANCH  30  31
ENDBRANCH  29  30
ENDBRANCH  19  29
ENDBRANCH   1  19
TORSDOF 12
ENDMDL
MODEL 4
REMARK VINA RESULT:      -7.2      4.344      8.384
REMARK  Name = 
REMARK  16 active torsions:
REMARK  status: ('A' for Active; 'I' for Inactive)
REMARK    1  A    between atoms: C_1  and  C_2
REMARK    2  A    between atoms: C_2  and  C_3
REMARK    3  A    between atoms: C_3  and  C_4
REMARK    4  A    between atoms: C_3  and  C_5
REMARK    5  A    between atoms: C_9  and  C_10
REMARK    6  A    between atoms: N_12  and  C_13
REMARK    7  A    between atoms: C_15  and  C_16
REMARK    8  A    between atoms: C_16  and  C_17
REMARK    9  A    between atoms: C_16  and  C_18
REMARK   10  A    between atoms: C_18  and  C_19
REMARK   11  A    between atoms: C_18  and  N_27
REMARK   12  A    between atoms: C_19  and  C_20
REMARK   13  A    between atoms: C_20  and  C_21
REMARK   14  A    between atoms: C_28  and  C_30
REMARK   15  A    between atoms: C_30  and  C_31
REMARK   16  A    between atoms: C_30  and  N_32
REMARK                            x       y       z     vdW  Elec       q    Type
REMARK                         _______ _______ _______ _____ _____    ______ ____
ROOT
ATOM      1  C   UNL     1       1.788   7.706  19.047  0.00  0.00    +0.000 C 
ATOM      2  C   UNL     1       2.544   8.441  17.930  0.00  0.00    +0.000 C 
ENDROOT
BRANCH   1   5
ATOM      3  C   UNL     1       0.785   9.824  20.542  0.00  0.00    +0.000 C 
ATOM      4  C   UNL     1       0.589   8.492  21.252  0.00  0.00    +0.000 C 
ATOM      5  C   UNL     1       1.725   8.635  20.267  0.00  0.00    +0.000 C 
BRANCH   3   8
ATOM      6  C   UNL     1      -0.364  11.778  19.374  0.00  0.00    +0.000 C 
ATOM      7  O   UNL     1       0.677  12.457  19.371  0.00  0.00    +0.000 OA
ATOM      8  N   UNL     1      -0.307  10.401  19.735  0.00  0.00    +0.000 N 
ATOM      9  H   UNL     1      -1.190   9.890  19.765  0.00  0.00    +0.000 HD
BRANCH   6  14
ATOM     10  C   UNL     1      -3.115  11.506  18.869  0.00  0.00    +0.000 C 
ATOM     11  C   UNL     1      -3.700  12.614  19.829  0.00  0.00    +0.000 C 
ATOM     12  O   UNL     1      -4.782  13.023  20.183  0.00  0.00    +0.000 OA
ATOM     13  O   UNL     1      -2.468  13.067  20.202  0.00  0.00    +0.000 OA
ATOM     14  C   UNL     1      -1.810  12.404  19.068  0.00  0.00    +0.000 C 
BRANCH  10  15
ATOM     15  C   UNL     1      -3.839  11.379  17.491  0.00  0.00    +0.000 C 
ATOM     16  C   UNL     1      -5.369  11.246  17.607  0.00  0.00    +0.000 C 
BRANCH  15  18
ATOM     17  C   UNL     1      -2.894  10.539  15.179  0.00  0.00    +0.000 C 
ATOM     18  C   UNL     1      -3.279  10.224  16.625  0.00  0.00    +0.000 C 
ENDBRANCH  15  18
ENDBRANCH  10  15
ENDBRANCH   6  14
ENDBRANCH   3   8
ENDBRANCH   1   5
BRANCH   1  19
ATOM     19  C   UNL     1       2.374   6.276  19.431  0.00  0.00    +0.000 C 
BRANCH  19  20
ATOM     20  N   UNL     1       3.866   6.220  19.492  0.00  0.00    +0.000 N 
ATOM     21  C   UNL     1       4.673   5.677  18.505  0.00  0.00    +0.000 C 
ATOM     22  O   UNL     1       4.241   4.990  17.579  0.00  0.00    +0.000 OA
ATOM     23  H   UNL     1       4.311   6.804  20.190  0.00  0.00    +0.000 HD
BRANCH  21  24
ATOM     24  C   UNL     1       6.186   6.017  18.622  0.00  0.00    +0.000 C 
ATOM     25  C   UNL     1       6.938   5.670  17.340  0.00  0.00    +0.000 C 
BRANCH  24  26
ATOM     26  N   UNL     1       6.775   5.256  19.744  0.00  0.00    +0.000 NA
ATOM     27  H   UNL     1       6.043   4.635  20.103  0.00  0.00    +0.000 HD
ATOM     28  H   UNL     1       6.935   5.905  20.516  0.00  0.00    +0.000 HD
ENDBRANCH  24  26
ENDBRANCH  21  24
ENDBRANCH  19  20
BRANCH  19  29
ATOM     29  C   UNL     1       1.860   5.598  20.734  0.00  0.00    +0.000 C 
BRANCH  29  30
ATOM     30  C   UNL     1       1.291   4.197  20.606  0.00  0.00    +0.000 C 
BRANCH  30  31
ATOM     31  C   UNL     1       2.106   3.281  19.739  0.00  0.00    +0.000 A 
ATOM     32  C   UNL     1       3.296   2.747  20.257  0.00  0.00    +0.000 A 
ATOM     33  C   UNL     1       4.030   1.830  19.518  0.00  0.00    +0.000 A 
ATOM     34  C   UNL     1       3.577   1.429  18.258  0.00  0.00    +0.000 A 
ATOM     35  C   UNL     1       2.392   1.955  17.744  0.00  0.00    +0.000 A 
ATOM     36  C   UNL     1       1.650   2.876  18.483  0.00  0.00    +0.000 A 
ENDBRANCH  30  31
ENDBRANCH  29  30
ENDBRANCH  19  29
ENDBRANCH   1  19
TORSDOF 12
ENDMDL
MODEL 5
REMARK VINA RESULT:      -7.1      3.776      7.010
REMARK  Name = 
REMARK  16 active torsions:
REMARK  status: ('A' for Active; 'I' for Inactive)
REMARK    1  A    between atoms: C_1  and  C_2
REMARK    2  A    between atoms: C_2  and  C_3
REMARK    3  A    between atoms: C_3  and  C_4
REMARK    4  A    between atoms: C_3  and  C_5
REMARK    5  A    between atoms: C_9  and  C_10
REMARK    6  A    between atoms: N_12  and  C_13
REMARK    7  A    between atoms: C_15  and  C_16
REMARK    8  A    between atoms: C_16  and  C_17
REMARK    9  A    between atoms: C_16  and  C_18
REMARK   10  A    between atoms: C_18  and  C_19
REMARK   11  A    between atoms: C_18  and  N_27
REMARK   12  A    between atoms: C_19  and  C_20
REMARK   13  A    between atoms: C_20  and  C_21
REMARK   14  A    between atoms: C_28  and  C_30
REMARK   15  A    between atoms: C_30  and  C_31
REMARK   16  A    between atoms: C_30  and  N_32
REMARK                            x       y       z     vdW  Elec       q    Type
REMARK                         _______ _______ _______ _____ _____    ______ ____
ROOT
ATOM      1  C   UNL     1       2.937   5.899  17.865  0.00  0.00    +0.000 C 
ATOM      2  C   UNL     1       1.545   5.251  17.903  0.00  0.00    +0.000 C 
ENDROOT
BRANCH   1   5
ATOM      3  C   UNL     1       2.173   8.571  17.807  0.00  0.00    +0.000 C 
ATOM      4  C   UNL     1       3.684   8.415  17.696  0.00  0.00    +0.000 C 
ATOM      5  C   UNL     1       2.796   7.287  17.226  0.00  0.00    +0.000 C 
BRANCH   3   8
ATOM      6  C   UNL     1       0.904  10.065  19.438  0.00  0.00    +0.000 C 
ATOM      7  O   UNL     1       0.482  10.795  18.524  0.00  0.00    +0.000 OA
ATOM      8  N   UNL     1       1.551   8.837  19.118  0.00  0.00    +0.000 N 
ATOM      9  H   UNL     1       1.918   8.288  19.897  0.00  0.00    +0.000 HD
BRANCH   6  14
ATOM     10  C   UNL     1      -0.549  10.597  21.783  0.00  0.00    +0.000 C 
ATOM     11  C   UNL     1       0.305   9.800  22.845  0.00  0.00    +0.000 C 
ATOM     12  O   UNL     1       0.256   9.527  24.023  0.00  0.00    +0.000 OA
ATOM     13  O   UNL     1       1.270   9.458  21.943  0.00  0.00    +0.000 OA
ATOM     14  C   UNL     1       0.829  10.482  20.986  0.00  0.00    +0.000 C 
BRANCH  10  15
ATOM     15  C   UNL     1      -1.114  11.964  22.283  0.00  0.00    +0.000 C 
ATOM     16  C   UNL     1      -2.302  11.824  23.254  0.00  0.00    +0.000 C 
BRANCH  15  18
ATOM     17  C   UNL     1      -2.326  12.341  19.975  0.00  0.00    +0.000 C 
ATOM     18  C   UNL     1      -1.497  12.915  21.123  0.00  0.00    +0.000 C 
ENDBRANCH  15  18
ENDBRANCH  10  15
ENDBRANCH   6  14
ENDBRANCH   3   8
ENDBRANCH   1   5
BRANCH   1  19
ATOM     19  C   UNL     1       4.064   5.036  17.142  0.00  0.00    +0.000 C 
BRANCH  19  20
ATOM     20  N   UNL     1       5.439   5.239  17.692  0.00  0.00    +0.000 N 
ATOM     21  C   UNL     1       6.450   5.930  17.045  0.00  0.00    +0.000 C 
ATOM     22  O   UNL     1       6.394   6.259  15.860  0.00  0.00    +0.000 OA
ATOM     23  H   UNL     1       5.562   5.048  18.679  0.00  0.00    +0.000 HD
BRANCH  21  24
ATOM     24  C   UNL     1       7.676   6.296  17.929  0.00  0.00    +0.000 C 
ATOM     25  C   UNL     1       7.502   5.795  19.361  0.00  0.00    +0.000 C 
BRANCH  24  26
ATOM     26  N   UNL     1       7.843   7.765  17.953  0.00  0.00    +0.000 NA
ATOM     27  H   UNL     1       8.829   7.958  17.747  0.00  0.00    +0.000 HD
ATOM     28  H   UNL     1       7.738   8.078  18.919  0.00  0.00    +0.000 HD
ENDBRANCH  24  26
ENDBRANCH  21  24
ENDBRANCH  19  20
BRANCH  19  29
ATOM     29  C   UNL     1       3.860   3.497  17.041  0.00  0.00    +0.000 C 
BRANCH  29  30
ATOM     30  C   UNL     1       4.243   2.667  18.253  0.00  0.00    +0.000 C 
BRANCH  30  31
ATOM     31  C   UNL     1       3.185   2.612  19.317  0.00  0.00    +0.000 A 
ATOM     32  C   UNL     1       3.489   3.105  20.594  0.00  0.00    +0.000 A 
ATOM     33  C   UNL     1       2.511   3.149  21.578  0.00  0.00    +0.000 A 
ATOM     34  C   UNL     1       1.215   2.710  21.290  0.00  0.00    +0.000 A 
ATOM     35  C   UNL     1       0.910   2.224  20.019  0.00  0.00    +0.000 A 
ATOM     36  C   UNL     1       1.889   2.179  19.028  0.00  0.00    +0.000 A 
ENDBRANCH  30  31
ENDBRANCH  29  30
ENDBRANCH  19  29
ENDBRANCH   1  19
TORSDOF 12
ENDMDL
MODEL 6
REMARK VINA RESULT:      -7.1      3.550      7.665
REMARK  Name = 
REMARK  16 active torsions:
REMARK  status: ('A' for Active; 'I' for Inactive)
REMARK    1  A    between atoms: C_1  and  C_2
REMARK    2  A    between atoms: C_2  and  C_3
REMARK    3  A    between atoms: C_3  and  C_4
REMARK    4  A    between atoms: C_3  and  C_5
REMARK    5  A    between atoms: C_9  and  C_10
REMARK    6  A    between atoms: N_12  and  C_13
REMARK    7  A    between atoms: C_15  and  C_16
REMARK    8  A    between atoms: C_16  and  C_17
REMARK    9  A    between atoms: C_16  and  C_18
REMARK   10  A    between atoms: C_18  and  C_19
REMARK   11  A    between atoms: C_18  and  N_27
REMARK   12  A    between atoms: C_19  and  C_20
REMARK   13  A    between atoms: C_20  and  C_21
REMARK   14  A    between atoms: C_28  and  C_30
REMARK   15  A    between atoms: C_30  and  C_31
REMARK   16  A    between atoms: C_30  and  N_32
REMARK                            x       y       z     vdW  Elec       q    Type
REMARK                         _______ _______ _______ _____ _____    ______ ____
ROOT
ATOM      1  C   UNL     1       2.522   6.773  18.049  0.00  0.00    +0.000 C 
ATOM      2  C   UNL     1       2.496   8.185  17.445  0.00  0.00    +0.000 C 
ENDROOT
BRANCH   1   5
ATOM      3  C   UNL     1       2.048   7.943  20.526  0.00  0.00    +0.000 C 
ATOM      4  C   UNL     1       1.533   6.511  20.472  0.00  0.00    +0.000 C 
ATOM      5  C   UNL     1       2.676   6.911  19.570  0.00  0.00    +0.000 C 
BRANCH   3   8
ATOM      6  C   UNL     1       0.600   9.894  21.299  0.00  0.00    +0.000 C 
ATOM      7  O   UNL     1       1.185   9.962  22.395  0.00  0.00    +0.000 OA
ATOM      8  N   UNL     1       1.132   9.069  20.267  0.00  0.00    +0.000 N 
ATOM      9  H   UNL     1       0.599   9.010  19.398  0.00  0.00    +0.000 HD
BRANCH   6  14
ATOM     10  C   UNL     1      -0.917  12.220  20.878  0.00  0.00    +0.000 C 
ATOM     11  C   UNL     1      -1.790  11.781  19.638  0.00  0.00    +0.000 C 
ATOM     12  O   UNL     1      -2.604  12.269  18.888  0.00  0.00    +0.000 OA
ATOM     13  O   UNL     1      -1.315  10.502  19.645  0.00  0.00    +0.000 OA
ATOM     14  C   UNL     1      -0.794  10.634  21.013  0.00  0.00    +0.000 C 
BRANCH  10  15
ATOM     15  C   UNL     1      -1.666  13.093  21.935  0.00  0.00    +0.000 C 
ATOM     16  C   UNL     1      -0.732  13.742  22.973  0.00  0.00    +0.000 C 
BRANCH  15  18
ATOM     17  C   UNL     1      -4.236  12.769  22.419  0.00  0.00    +0.000 C 
ATOM     18  C   UNL     1      -2.795  12.319  22.659  0.00  0.00    +0.000 C 
ENDBRANCH  15  18
ENDBRANCH  10  15
ENDBRANCH   6  14
ENDBRANCH   3   8
ENDBRANCH   1   5
BRANCH   1  19
ATOM     19  C   UNL     1       3.621   5.796  17.437  0.00  0.00    +0.000 C 
BRANCH  19  20
ATOM     20  N   UNL     1       4.894   5.737  18.219  0.00  0.00    +0.000 N 
ATOM     21  C   UNL     1       6.144   6.051  17.712  0.00  0.00    +0.000 C 
ATOM     22  O   UNL     1       6.369   6.202  16.511  0.00  0.00    +0.000 OA
ATOM     23  H   UNL     1       4.801   5.672  19.226  0.00  0.00    +0.000 HD
BRANCH  21  24
ATOM     24  C   UNL     1       7.264   6.236  18.774  0.00  0.00    +0.000 C 
ATOM     25  C   UNL     1       8.192   7.393  18.413  0.00  0.00    +0.000 C 
BRANCH  24  26
ATOM     26  N   UNL     1       8.062   4.995  18.868  0.00  0.00    +0.000 NA
ATOM     27  H   UNL     1       8.970   5.189  18.433  0.00  0.00    +0.000 HD
ATOM     28  H   UNL     1       7.644   4.303  18.244  0.00  0.00    +0.000 HD
ENDBRANCH  24  26
ENDBRANCH  21  24
ENDBRANCH  19  20
BRANCH  19  29
ATOM     29  C   UNL     1       3.217   4.321  17.153  0.00  0.00    +0.000 C 
BRANCH  29  30
ATOM     30  C   UNL     1       1.899   3.841  17.734  0.00  0.00    +0.000 C 
BRANCH  30  31
ATOM     31  C   UNL     1       2.005   3.303  19.132  0.00  0.00    +0.000 A 
ATOM     32  C   UNL     1       3.273   2.964  19.628  0.00  0.00    +0.000 A 
ATOM     33  C   UNL     1       3.421   2.545  20.942  0.00  0.00    +0.000 A 
ATOM     34  C   UNL     1       2.303   2.472  21.778  0.00  0.00    +0.000 A 
ATOM     35  C   UNL     1       1.043   2.813  21.288  0.00  0.00    +0.000 A 
ATOM     36  C   UNL     1       0.890   3.235  19.968  0.00  0.00    +0.000 A 
ENDBRANCH  30  31
ENDBRANCH  29  30
ENDBRANCH  19  29
ENDBRANCH   1  19
TORSDOF 12
ENDMDL
MODEL 7
REMARK VINA RESULT:      -7.1      5.152      9.046
REMARK  Name = 
REMARK  16 active torsions:
REMARK  status: ('A' for Active; 'I' for Inactive)
REMARK    1  A    between atoms: C_1  and  C_2
REMARK    2  A    between atoms: C_2  and  C_3
REMARK    3  A    between atoms: C_3  and  C_4
REMARK    4  A    between atoms: C_3  and  C_5
REMARK    5  A    between atoms: C_9  and  C_10
REMARK    6  A    between atoms: N_12  and  C_13
REMARK    7  A    between atoms: C_15  and  C_16
REMARK    8  A    between atoms: C_16  and  C_17
REMARK    9  A    between atoms: C_16  and  C_18
REMARK   10  A    between atoms: C_18  and  C_19
REMARK   11  A    between atoms: C_18  and  N_27
REMARK   12  A    between atoms: C_19  and  C_20
REMARK   13  A    between atoms: C_20  and  C_21
REMARK   14  A    between atoms: C_28  and  C_30
REMARK   15  A    between atoms: C_30  and  C_31
REMARK   16  A    between atoms: C_30  and  N_32
REMARK                            x       y       z     vdW  Elec       q    Type
REMARK                         _______ _______ _______ _____ _____    ______ ____
ROOT
ATOM      1  C   UNL     1       2.257   7.202  19.020  0.00  0.00    +0.000 C 
ATOM      2  C   UNL     1       2.995   7.789  17.808  0.00  0.00    +0.000 C 
ENDROOT
BRANCH   1   5
ATOM      3  C   UNL     1       0.936   9.514  19.819  0.00  0.00    +0.000 C 
ATOM      4  C   UNL     1       0.631   8.343  20.744  0.00  0.00    +0.000 C 
ATOM      5  C   UNL     1       1.936   8.353  19.983  0.00  0.00    +0.000 C 
BRANCH   3   8
ATOM      6  C   UNL     1      -1.223  10.527  18.917  0.00  0.00    +0.000 C 
ATOM      7  O   UNL     1      -1.388  11.218  19.938  0.00  0.00    +0.000 OA
ATOM      8  N   UNL     1       0.013   9.846  18.718  0.00  0.00    +0.000 N 
ATOM      9  H   UNL     1       0.091   9.258  17.887  0.00  0.00    +0.000 HD
BRANCH   6  14
ATOM     10  C   UNL     1      -3.381  11.449  17.373  0.00  0.00    +0.000 C 
ATOM     11  C   UNL     1      -3.015  10.841  15.963  0.00  0.00    +0.000 C 
ATOM     12  O   UNL     1      -3.437  10.869  14.830  0.00  0.00    +0.000 OA
ATOM     13  O   UNL     1      -1.932  10.161  16.440  0.00  0.00    +0.000 OA
ATOM     14  C   UNL     1      -2.382  10.292  17.833  0.00  0.00    +0.000 C 
BRANCH  10  15
ATOM     15  C   UNL     1      -4.903  11.427  17.725  0.00  0.00    +0.000 C 
ATOM     16  C   UNL     1      -5.727  12.487  16.969  0.00  0.00    +0.000 C 
BRANCH  15  18
ATOM     17  C   UNL     1      -5.042  12.929  19.885  0.00  0.00    +0.000 C 
ATOM     18  C   UNL     1      -5.168  11.546  19.245  0.00  0.00    +0.000 C 
ENDBRANCH  15  18
ENDBRANCH  10  15
ENDBRANCH   6  14
ENDBRANCH   3   8
ENDBRANCH   1   5
BRANCH   1  19
ATOM     19  C   UNL     1       3.015   6.014  19.763  0.00  0.00    +0.000 C 
BRANCH  19  20
ATOM     20  N   UNL     1       2.317   4.695  19.682  0.00  0.00    +0.000 N 
ATOM     21  C   UNL     1       1.686   4.207  18.550  0.00  0.00    +0.000 C 
ATOM     22  O   UNL     1       1.445   4.897  17.559  0.00  0.00    +0.000 OA
ATOM     23  H   UNL     1       2.506   4.039  20.430  0.00  0.00    +0.000 HD
BRANCH  21  24
ATOM     24  C   UNL     1       1.318   2.697  18.593  0.00  0.00    +0.000 C 
ATOM     25  C   UNL     1       1.203   2.191  20.029  0.00  0.00    +0.000 C 
BRANCH  24  26
ATOM     26  N   UNL     1       2.359   1.917  17.892  0.00  0.00    +0.000 NA
ATOM     27  H   UNL     1       2.420   2.287  16.938  0.00  0.00    +0.000 HD
ATOM     28  H   UNL     1       2.005   0.969  17.756  0.00  0.00    +0.000 HD
ENDBRANCH  24  26
ENDBRANCH  21  24
ENDBRANCH  19  20
BRANCH  19  29
ATOM     29  C   UNL     1       4.501   5.743  19.388  0.00  0.00    +0.000 C 
BRANCH  29  30
ATOM     30  C   UNL     1       4.838   4.363  18.853  0.00  0.00    +0.000 C 
BRANCH  30  31
ATOM     31  C   UNL     1       5.512   4.373  17.512  0.00  0.00    +0.000 A 
ATOM     32  C   UNL     1       4.726   4.196  16.363  0.00  0.00    +0.000 A 
ATOM     33  C   UNL     1       5.300   4.285  15.103  0.00  0.00    +0.000 A 
ATOM     34  C   UNL     1       6.664   4.563  14.978  0.00  0.00    +0.000 A 
ATOM     35  C   UNL     1       7.446   4.744  16.119  0.00  0.00    +0.000 A 
ATOM     36  C   UNL     1       6.873   4.656  17.387  0.00  0.00    +0.000 A 
ENDBRANCH  30  31
ENDBRANCH  29  30
ENDBRANCH  19  29
ENDBRANCH   1  19
TORSDOF 12
ENDMDL
MODEL 8
REMARK VINA RESULT:      -7.0      3.954      8.171
REMARK  Name = 
REMARK  16 active torsions:
REMARK  status: ('A' for Active; 'I' for Inactive)
REMARK    1  A    between atoms: C_1  and  C_2
REMARK    2  A    between atoms: C_2  and  C_3
REMARK    3  A    between atoms: C_3  and  C_4
REMARK    4  A    between atoms: C_3  and  C_5
REMARK    5  A    between atoms: C_9  and  C_10
REMARK    6  A    between atoms: N_12  and  C_13
REMARK    7  A    between atoms: C_15  and  C_16
REMARK    8  A    between atoms: C_16  and  C_17
REMARK    9  A    between atoms: C_16  and  C_18
REMARK   10  A    between atoms: C_18  and  C_19
REMARK   11  A    between atoms: C_18  and  N_27
REMARK   12  A    between atoms: C_19  and  C_20
REMARK   13  A    between atoms: C_20  and  C_21
REMARK   14  A    between atoms: C_28  and  C_30
REMARK   15  A    between atoms: C_30  and  C_31
REMARK   16  A    between atoms: C_30  and  N_32
REMARK                            x       y       z     vdW  Elec       q    Type
REMARK                         _______ _______ _______ _____ _____    ______ ____
ROOT
ATOM      1  C   UNL     1       2.674   7.216  19.335  0.00  0.00    +0.000 C 
ATOM      2  C   UNL     1       1.616   7.133  20.446  0.00  0.00    +0.000 C 
ENDROOT
BRANCH   1   5
ATOM      3  C   UNL     1       1.355   9.323  18.090  0.00  0.00    +0.000 C 
ATOM      4  C   UNL     1       2.763   9.137  17.541  0.00  0.00    +0.000 C 
ATOM      5  C   UNL     1       2.049   7.948  18.140  0.00  0.00    +0.000 C 
BRANCH   3   8
ATOM      6  C   UNL     1      -0.212  10.702  19.555  0.00  0.00    +0.000 C 
ATOM      7  O   UNL     1      -1.174   9.946  19.330  0.00  0.00    +0.000 OA
ATOM      8  N   UNL     1       1.099  10.315  19.150  0.00  0.00    +0.000 N 
ATOM      9  H   UNL     1       1.853  10.983  19.317  0.00  0.00    +0.000 HD
BRANCH   6  14
ATOM     10  C   UNL     1      -0.932  12.368  21.699  0.00  0.00    +0.000 C 
ATOM     11  C   UNL     1       0.293  13.363  21.721  0.00  0.00    +0.000 C 
ATOM     12  O   UNL     1       0.696  14.286  22.393  0.00  0.00    +0.000 OA
ATOM     13  O   UNL     1       0.859  12.831  20.600  0.00  0.00    +0.000 OA
ATOM     14  C   UNL     1      -0.386  12.154  20.214  0.00  0.00    +0.000 C 
BRANCH  10  15
ATOM     15  C   UNL     1      -2.319  13.023  21.993  0.00  0.00    +0.000 C 
ATOM     16  C   UNL     1      -2.900  12.649  23.370  0.00  0.00    +0.000 C 
BRANCH  15  18
ATOM     17  C   UNL     1      -4.843  12.791  21.274  0.00  0.00    +0.000 C 
ATOM     18  C   UNL     1      -3.365  12.733  20.889  0.00  0.00    +0.000 C 
ENDBRANCH  15  18
ENDBRANCH  10  15
ENDBRANCH   6  14
ENDBRANCH   3   8
ENDBRANCH   1   5
BRANCH   1  19
ATOM     19  C   UNL     1       3.307   5.821  18.900  0.00  0.00    +0.000 C 
BRANCH  19  20
ATOM     20  N   UNL     1       2.564   4.626  19.402  0.00  0.00    +0.000 N 
ATOM     21  C   UNL     1       3.162   3.484  19.909  0.00  0.00    +0.000 C 
ATOM     22  O   UNL     1       4.365   3.243  19.799  0.00  0.00    +0.000 OA
ATOM     23  H   UNL     1       1.575   4.752  19.578  0.00  0.00    +0.000 HD
BRANCH  21  24
ATOM     24  C   UNL     1       2.210   2.516  20.667  0.00  0.00    +0.000 C 
ATOM     25  C   UNL     1       0.751   2.757  20.288  0.00  0.00    +0.000 C 
BRANCH  24  26
ATOM     26  N   UNL     1       2.365   2.714  22.123  0.00  0.00    +0.000 NA
ATOM     27  H   UNL     1       1.560   2.266  22.574  0.00  0.00    +0.000 HD
ATOM     28  H   UNL     1       2.227   3.706  22.324  0.00  0.00    +0.000 HD
ENDBRANCH  24  26
ENDBRANCH  21  24
ENDBRANCH  19  20
BRANCH  19  29
ATOM     29  C   UNL     1       3.562   5.570  17.385  0.00  0.00    +0.000 C 
BRANCH  29  30
ATOM     30  C   UNL     1       4.946   5.094  16.987  0.00  0.00    +0.000 C 
BRANCH  30  31
ATOM     31  C   UNL     1       6.066   5.911  17.563  0.00  0.00    +0.000 A 
ATOM     32  C   UNL     1       6.882   5.335  18.548  0.00  0.00    +0.000 A 
ATOM     33  C   UNL     1       7.977   6.029  19.042  0.00  0.00    +0.000 A 
ATOM     34  C   UNL     1       8.275   7.301  18.547  0.00  0.00    +0.000 A 
ATOM     35  C   UNL     1       7.468   7.874  17.564  0.00  0.00    +0.000 A 
ATOM     36  C   UNL     1       6.367   7.180  17.065  0.00  0.00    +0.000 A 
ENDBRANCH  30  31
ENDBRANCH  29  30
ENDBRANCH  19  29
ENDBRANCH   1  19
TORSDOF 12
ENDMDL
MODEL 9
REMARK VINA RESULT:      -7.0      3.898      7.500
REMARK  Name = 
REMARK  16 active torsions:
REMARK  status: ('A' for Active; 'I' for Inactive)
REMARK    1  A    between atoms: C_1  and  C_2
REMARK    2  A    between atoms: C_2  and  C_3
REMARK    3  A    between atoms: C_3  and  C_4
REMARK    4  A    between atoms: C_3  and  C_5
REMARK    5  A    between atoms: C_9  and  C_10
REMARK    6  A    between atoms: N_12  and  C_13
REMARK    7  A    between atoms: C_15  and  C_16
REMARK    8  A    between atoms: C_16  and  C_17
REMARK    9  A    between atoms: C_16  and  C_18
REMARK   10  A    between atoms: C_18  and  C_19
REMARK   11  A    between atoms: C_18  and  N_27
REMARK   12  A    between atoms: C_19  and  C_20
REMARK   13  A    between atoms: C_20  and  C_21
REMARK   14  A    between atoms: C_28  and  C_30
REMARK   15  A    between atoms: C_30  and  C_31
REMARK   16  A    between atoms: C_30  and  N_32
REMARK                            x       y       z     vdW  Elec       q    Type
REMARK                         _______ _______ _______ _____ _____    ______ ____
ROOT
ATOM      1  C   UNL     1       2.545   6.741  18.068  0.00  0.00    +0.000 C 
ATOM      2  C   UNL     1       2.533   8.211  17.624  0.00  0.00    +0.000 C 
ENDROOT
BRANCH   1   5
ATOM      3  C   UNL     1       2.189   7.654  20.669  0.00  0.00    +0.000 C 
ATOM      4  C   UNL     1       1.608   6.260  20.478  0.00  0.00    +0.000 C 
ATOM      5  C   UNL     1       2.745   6.706  19.589  0.00  0.00    +0.000 C 
BRANCH   3   8
ATOM      6  C   UNL     1       0.931   9.626  21.683  0.00  0.00    +0.000 C 
ATOM      7  O   UNL     1       1.616   9.598  22.721  0.00  0.00    +0.000 OA
ATOM      8  N   UNL     1       1.319   8.840  20.561  0.00  0.00    +0.000 N 
ATOM      9  H   UNL     1       0.707   8.861  19.744  0.00  0.00    +0.000 HD
BRANCH   6  14
ATOM     10  C   UNL     1      -0.533  12.015  21.891  0.00  0.00    +0.000 C 
ATOM     11  C   UNL     1      -1.360  11.970  20.547  0.00  0.00    +0.000 C 
ATOM     12  O   UNL     1      -2.136  12.672  19.939  0.00  0.00    +0.000 OA
ATOM     13  O   UNL     1      -0.905  10.730  20.205  0.00  0.00    +0.000 OA
ATOM     14  C   UNL     1      -0.439  10.454  21.571  0.00  0.00    +0.000 C 
BRANCH  10  15
ATOM     15  C   UNL     1      -1.312  12.569  23.126  0.00  0.00    +0.000 C 
ATOM     16  C   UNL     1      -2.748  12.023  23.247  0.00  0.00    +0.000 C 
BRANCH  15  18
ATOM     17  C   UNL     1      -2.649  14.820  22.827  0.00  0.00    +0.000 C 
ATOM     18  C   UNL     1      -1.337  14.116  23.173  0.00  0.00    +0.000 C 
ENDBRANCH  15  18
ENDBRANCH  10  15
ENDBRANCH   6  14
ENDBRANCH   3   8
ENDBRANCH   1   5
BRANCH   1  19
ATOM     19  C   UNL     1       3.604   5.817  17.319  0.00  0.00    +0.000 C 
BRANCH  19  20
ATOM     20  N   UNL     1       4.985   5.883  17.886  0.00  0.00    +0.000 N 
ATOM     21  C   UNL     1       6.147   5.824  17.134  0.00  0.00    +0.000 C 
ATOM     22  O   UNL     1       6.171   5.492  15.948  0.00  0.00    +0.000 OA
ATOM     23  H   UNL     1       5.065   6.206  18.842  0.00  0.00    +0.000 HD
BRANCH  21  24
ATOM     24  C   UNL     1       7.445   6.237  17.883  0.00  0.00    +0.000 C 
ATOM     25  C   UNL     1       7.404   5.811  19.349  0.00  0.00    +0.000 C 
BRANCH  24  26
ATOM     26  N   UNL     1       7.606   7.705  17.816  0.00  0.00    +0.000 NA
ATOM     27  H   UNL     1       7.438   8.068  18.760  0.00  0.00    +0.000 HD
ATOM     28  H   UNL     1       6.828   8.083  17.275  0.00  0.00    +0.000 HD
ENDBRANCH  24  26
ENDBRANCH  21  24
ENDBRANCH  19  20
BRANCH  19  29
ATOM     29  C   UNL     1       3.274   4.306  17.153  0.00  0.00    +0.000 C 
BRANCH  29  30
ATOM     30  C   UNL     1       1.950   3.822  17.714  0.00  0.00    +0.000 C 
BRANCH  30  31
ATOM     31  C   UNL     1       2.040   3.265  19.106  0.00  0.00    +0.000 A 
ATOM     32  C   UNL     1       3.308   2.999  19.643  0.00  0.00    +0.000 A 
ATOM     33  C   UNL     1       3.435   2.566  20.955  0.00  0.00    +0.000 A 
ATOM     34  C   UNL     1       2.295   2.406  21.747  0.00  0.00    +0.000 A 
ATOM     35  C   UNL     1       1.034   2.675  21.217  0.00  0.00    +0.000 A 
ATOM     36  C   UNL     1       0.902   3.110  19.899  0.00  0.00    +0.000 A 
ENDBRANCH  30  31
ENDBRANCH  29  30
ENDBRANCH  19  29
ENDBRANCH   1  19
TORSDOF 12
ENDMDL
