MODEL 1
REMARK VINA RESULT:      -7.5      0.000      0.000
REMARK  Name = 
REMARK  9 active torsions:
REMARK  status: ('A' for Active; 'I' for Inactive)
REMARK    1  A    between atoms: N_1  and  CA_2
REMARK    2  A    between atoms: CA_2  and  C_3
REMARK    3  A    between atoms: CA_2  and  C_21
REMARK    4  A    between atoms: C_3  and  C_4
REMARK    5  A    between atoms: C_4  and  C_5
REMARK    6  A    between atoms: N_7  and  C_8
REMARK    7  A    between atoms: C_11  and  O_12
REMARK    8  A    between atoms: O_12  and  C_13
REMARK    9  A    between atoms: C_21  and  OXT_23
REMARK                            x       y       z     vdW  Elec       q    Type
REMARK                         _______ _______ _______ _____ _____    ______ ____
ROOT
ATOM      1  C   UNL     1       7.958   8.198  17.930  0.00  0.00    +0.000 C 
ATOM      2  O   UNL     1       8.433   7.467  18.798  0.00  0.00    +0.000 OA
ATOM      3  N   UNL     1       6.894   7.907  17.099  0.00  0.00    +0.000 N 
ATOM      4  H   UNL     1       6.717   8.539  16.328  0.00  0.00    +0.000 HD
ENDROOT
BRANCH   3   5
ATOM      5  C   UNL     1       6.090   6.750  17.154  0.00  0.00    +0.000 A 
ATOM      6  C   UNL     1       6.579   5.463  16.909  0.00  0.00    +0.000 A 
ATOM      7  C   UNL     1       5.736   4.354  17.000  0.00  0.00    +0.000 A 
ATOM      8  C   UNL     1       4.399   4.515  17.340  0.00  0.00    +0.000 A 
ATOM      9  C   UNL     1       3.885   5.800  17.534  0.00  0.00    +0.000 A 
ATOM     10  C   UNL     1       4.738   6.909  17.479  0.00  0.00    +0.000 A 
BRANCH   8  11
ATOM     11  O   UNL     1       3.652   3.362  17.400  0.00  0.00    +0.000 OA
BRANCH  11  12
ATOM     12  C   UNL     1       2.809   3.142  18.465  0.00  0.00    +0.000 A 
ATOM     13  C   UNL     1       3.430   3.027  19.710  0.00  0.00    +0.000 A 
ATOM     14  C   UNL     1       2.670   2.783  20.853  0.00  0.00    +0.000 A 
ATOM     15  C   UNL     1       1.285   2.655  20.754  0.00  0.00    +0.000 A 
ATOM     16  C   UNL     1       0.656   2.813  19.520  0.00  0.00    +0.000 A 
ATOM     17  C   UNL     1       1.415   3.086  18.381  0.00  0.00    +0.000 A 
ENDBRANCH  11  12
ENDBRANCH   8  11
ENDBRANCH   3   5
BRANCH   1  18
ATOM     18  C   UNL     1       8.578   9.553  17.679  0.00  0.00    +0.000 C 
BRANCH  18  19
ATOM     19  C   UNL     1       9.183  10.077  18.982  0.00  0.00    +0.000 C 
BRANCH  19  20
ATOM     20  CA  UNL     1       9.684  11.520  18.926  0.00  0.00    +0.000 C 
BRANCH  20  21
ATOM     21  N   UNL     1       9.070  12.314  17.825  0.00  0.00    +0.000 NA
ATOM     22  H1  UNL     1       9.728  13.060  17.575  0.00  0.00    +0.000 HD
ATOM     23  H2  UNL     1       8.256  12.819  18.189  0.00  0.00    +0.000 HD
ENDBRANCH  20  21
BRANCH  20  24
ATOM     24  C   UNL     1      11.215  11.607  18.798  0.00  0.00    +0.000 C 
ATOM     25  O   UNL     1      12.000  11.702  19.725  0.00  0.00    +0.000 OA
BRANCH  24  26
ATOM     26  OXT UNL     1      11.592  11.566  17.493  0.00  0.00    +0.000 OA
ATOM     27  HXT UNL     1      12.582  11.540  17.491  0.00  0.00    +0.000 HD
ENDBRANCH  24  26
ENDBRANCH  20  24
ENDBRANCH  19  20
ENDBRANCH  18  19
ENDBRANCH   1  18
TORSDOF 9
ENDMDL
MODEL 2
REMARK VINA RESULT:      -7.4      5.669      9.086
REMARK  Name = 
REMARK  9 active torsions:
REMARK  status: ('A' for Active; 'I' for Inactive)
REMARK    1  A    between atoms: N_1  and  CA_2
REMARK    2  A    between atoms: CA_2  and  C_3
REMARK    3  A    between atoms: CA_2  and  C_21
REMARK    4  A    between atoms: C_3  and  C_4
REMARK    5  A    between atoms: C_4  and  C_5
REMARK    6  A    between atoms: N_7  and  C_8
REMARK    7  A    between atoms: C_11  and  O_12
REMARK    8  A    between atoms: O_12  and  C_13
REMARK    9  A    between atoms: C_21  and  OXT_23
REMARK                            x       y       z     vdW  Elec       q    Type
REMARK                         _______ _______ _______ _____ _____    ______ ____
ROOT
ATOM      1  C   UNL     1       2.685   4.936  18.142  0.00  0.00    +0.000 C 
ATOM      2  O   UNL     1       1.557   4.772  17.680  0.00  0.00    +0.000 OA
ATOM      3  N   UNL     1       3.226   6.122  18.595  0.00  0.00    +0.000 N 
ATOM      4  H   UNL     1       4.218   6.136  18.799  0.00  0.00    +0.000 HD
ENDROOT
BRANCH   3   5
ATOM      5  C   UNL     1       2.550   7.356  18.702  0.00  0.00    +0.000 A 
ATOM      6  C   UNL     1       2.506   8.298  17.670  0.00  0.00    +0.000 A 
ATOM      7  C   UNL     1       1.801   9.492  17.829  0.00  0.00    +0.000 A 
ATOM      8  C   UNL     1       1.132   9.759  19.017  0.00  0.00    +0.000 A 
ATOM      9  C   UNL     1       1.214   8.851  20.075  0.00  0.00    +0.000 A 
ATOM     10  C   UNL     1       1.889   7.636  19.902  0.00  0.00    +0.000 A 
BRANCH   8  11
ATOM     11  O   UNL     1       0.471  10.963  19.075  0.00  0.00    +0.000 OA
BRANCH  11  12
ATOM     12  C   UNL     1      -0.872  11.028  18.779  0.00  0.00    +0.000 A 
ATOM     13  C   UNL     1      -1.315  10.134  17.803  0.00  0.00    +0.000 A 
ATOM     14  C   UNL     1      -2.654  10.128  17.412  0.00  0.00    +0.000 A 
ATOM     15  C   UNL     1      -3.553  11.018  17.999  0.00  0.00    +0.000 A 
ATOM     16  C   UNL     1      -3.124  11.882  19.005  0.00  0.00    +0.000 A 
ATOM     17  C   UNL     1      -1.790  11.866  19.415  0.00  0.00    +0.000 A 
ENDBRANCH  11  12
ENDBRANCH   8  11
ENDBRANCH   3   5
BRANCH   1  18
ATOM     18  C   UNL     1       3.633   3.761  18.218  0.00  0.00    +0.000 C 
BRANCH  18  19
ATOM     19  C   UNL     1       3.607   3.186  19.634  0.00  0.00    +0.000 C 
BRANCH  19  20
ATOM     20  CA  UNL     1       2.487   2.182  19.901  0.00  0.00    +0.000 C 
BRANCH  20  21
ATOM     21  N   UNL     1       1.774   1.752  18.665  0.00  0.00    +0.000 NA
ATOM     22  H1  UNL     1       0.822   1.480  18.934  0.00  0.00    +0.000 HD
ATOM     23  H2  UNL     1       2.190   0.880  18.324  0.00  0.00    +0.000 HD
ENDBRANCH  20  21
BRANCH  20  24
ATOM     24  C   UNL     1       1.449   2.711  20.906  0.00  0.00    +0.000 C 
ATOM     25  O   UNL     1       1.515   2.602  22.118  0.00  0.00    +0.000 OA
BRANCH  24  26
ATOM     26  OXT UNL     1       0.424   3.328  20.261  0.00  0.00    +0.000 OA
ATOM     27  HXT UNL     1       0.596   4.300  20.331  0.00  0.00    +0.000 HD
ENDBRANCH  24  26
ENDBRANCH  20  24
ENDBRANCH  19  20
ENDBRANCH  18  19
ENDBRANCH   1  18
TORSDOF 9
ENDMDL
MODEL 3
REMARK VINA RESULT:      -7.3      5.318      7.647
REMARK  Name = 
REMARK  9 active torsions:
REMARK  status: ('A' for Active; 'I' for Inactive)
REMARK    1  A    between atoms: N_1  and  CA_2
REMARK    2  A    between atoms: CA_2  and  C_3
REMARK    3  A    between atoms: CA_2  and  C_21
REMARK    4  A    between atoms: C_3  and  C_4
REMARK    5  A    between atoms: C_4  and  C_5
REMARK    6  A    between atoms: N_7  and  C_8
REMARK    7  A    between atoms: C_11  and  O_12
REMARK    8  A    between atoms: O_12  and  C_13
REMARK    9  A    between atoms: C_21  and  OXT_23
REMARK                            x       y       z     vdW  Elec       q    Type
REMARK                         _______ _______ _______ _____ _____    ______ ____
ROOT
ATOM      1  C   UNL     1       3.004   5.032  18.988  0.00  0.00    +0.000 C 
ATOM      2  O   UNL     1       2.065   4.724  18.255  0.00  0.00    +0.000 OA
ATOM      3  N   UNL     1       3.286   6.291  19.480  0.00  0.00    +0.000 N 
ATOM      4  H   UNL     1       4.179   6.424  19.939  0.00  0.00    +0.000 HD
ENDROOT
BRANCH   3   5
ATOM      5  C   UNL     1       2.495   7.446  19.309  0.00  0.00    +0.000 A 
ATOM      6  C   UNL     1       1.664   7.961  20.309  0.00  0.00    +0.000 A 
ATOM      7  C   UNL     1       0.920   9.121  20.086  0.00  0.00    +0.000 A 
ATOM      8  C   UNL     1       0.999   9.781  18.866  0.00  0.00    +0.000 A 
ATOM      9  C   UNL     1       1.783   9.246  17.840  0.00  0.00    +0.000 A 
ATOM     10  C   UNL     1       2.557   8.104  18.076  0.00  0.00    +0.000 A 
BRANCH   8  11
ATOM     11  O   UNL     1       0.226  10.912  18.745  0.00  0.00    +0.000 OA
BRANCH  11  12
ATOM     12  C   UNL     1      -1.091  10.809  18.361  0.00  0.00    +0.000 A 
ATOM     13  C   UNL     1      -1.966  11.712  18.967  0.00  0.00    +0.000 A 
ATOM     14  C   UNL     1      -3.327  11.682  18.665  0.00  0.00    +0.000 A 
ATOM     15  C   UNL     1      -3.817  10.746  17.753  0.00  0.00    +0.000 A 
ATOM     16  C   UNL     1      -2.940   9.872  17.113  0.00  0.00    +0.000 A 
ATOM     17  C   UNL     1      -1.574   9.923  17.394  0.00  0.00    +0.000 A 
ENDBRANCH  11  12
ENDBRANCH   8  11
ENDBRANCH   3   5
BRANCH   1  18
ATOM     18  C   UNL     1       4.002   3.975  19.402  0.00  0.00    +0.000 C 
BRANCH  18  19
ATOM     19  C   UNL     1       5.407   4.428  19.003  0.00  0.00    +0.000 C 
BRANCH  19  20
ATOM     20  CA  UNL     1       5.643   4.547  17.498  0.00  0.00    +0.000 C 
BRANCH  20  21
ATOM     21  N   UNL     1       5.286   3.311  16.746  0.00  0.00    +0.000 NA
ATOM     22  H1  UNL     1       4.494   2.872  17.227  0.00  0.00    +0.000 HD
ATOM     23  H2  UNL     1       6.042   2.627  16.846  0.00  0.00    +0.000 HD
ENDBRANCH  20  21
BRANCH  20  24
ATOM     24  C   UNL     1       7.094   4.926  17.158  0.00  0.00    +0.000 C 
ATOM     25  O   UNL     1       7.436   5.822  16.406  0.00  0.00    +0.000 OA
BRANCH  24  26
ATOM     26  OXT UNL     1       7.969   4.118  17.813  0.00  0.00    +0.000 OA
ATOM     27  HXT UNL     1       7.865   3.217  17.416  0.00  0.00    +0.000 HD
ENDBRANCH  24  26
ENDBRANCH  20  24
ENDBRANCH  19  20
ENDBRANCH  18  19
ENDBRANCH   1  18
TORSDOF 9
ENDMDL
MODEL 4
REMARK VINA RESULT:      -7.2      5.573      8.681
REMARK  Name = 
REMARK  9 active torsions:
REMARK  status: ('A' for Active; 'I' for Inactive)
REMARK    1  A    between atoms: N_1  and  CA_2
REMARK    2  A    between atoms: CA_2  and  C_3
REMARK    3  A    between atoms: CA_2  and  C_21
REMARK    4  A    between atoms: C_3  and  C_4
REMARK    5  A    between atoms: C_4  and  C_5
REMARK    6  A    between atoms: N_7  and  C_8
REMARK    7  A    between atoms: C_11  and  O_12
REMARK    8  A    between atoms: O_12  and  C_13
REMARK    9  A    between atoms: C_21  and  OXT_23
REMARK                            x       y       z     vdW  Elec       q    Type
REMARK                         _______ _______ _______ _____ _____    ______ ____
ROOT
ATOM      1  C   UNL     1       2.005   4.823  20.480  0.00  0.00    +0.000 C 
ATOM      2  O   UNL     1       0.898   4.549  20.018  0.00  0.00    +0.000 OA
ATOM      3  N   UNL     1       2.614   6.062  20.482  0.00  0.00    +0.000 N 
ATOM      4  H   UNL     1       3.589   6.103  20.752  0.00  0.00    +0.000 HD
ENDROOT
BRANCH   3   5
ATOM      5  C   UNL     1       2.039   7.271  20.038  0.00  0.00    +0.000 A 
ATOM      6  C   UNL     1       2.198   7.765  18.740  0.00  0.00    +0.000 A 
ATOM      7  C   UNL     1       1.584   8.958  18.355  0.00  0.00    +0.000 A 
ATOM      8  C   UNL     1       0.804   9.669  19.258  0.00  0.00    +0.000 A 
ATOM      9  C   UNL     1       0.682   9.215  20.573  0.00  0.00    +0.000 A 
ATOM     10  C   UNL     1       1.267   7.999  20.949  0.00  0.00    +0.000 A 
BRANCH   8  11
ATOM     11  O   UNL     1       0.246  10.832  18.782  0.00  0.00    +0.000 OA
BRANCH  11  12
ATOM     12  C   UNL     1      -1.072  10.854  18.387  0.00  0.00    +0.000 A 
ATOM     13  C   UNL     1      -1.876  11.795  19.030  0.00  0.00    +0.000 A 
ATOM     14  C   UNL     1      -3.233  11.888  18.720  0.00  0.00    +0.000 A 
ATOM     15  C   UNL     1      -3.788  11.038  17.763  0.00  0.00    +0.000 A 
ATOM     16  C   UNL     1      -2.979  10.127  17.087  0.00  0.00    +0.000 A 
ATOM     17  C   UNL     1      -1.616  10.055  17.377  0.00  0.00    +0.000 A 
ENDBRANCH  11  12
ENDBRANCH   8  11
ENDBRANCH   3   5
BRANCH   1  18
ATOM     18  C   UNL     1       2.846   3.726  21.092  0.00  0.00    +0.000 C 
BRANCH  18  19
ATOM     19  C   UNL     1       2.753   2.475  20.218  0.00  0.00    +0.000 C 
BRANCH  19  20
ATOM     20  CA  UNL     1       4.028   2.130  19.450  0.00  0.00    +0.000 C 
BRANCH  20  21
ATOM     21  N   UNL     1       5.156   1.721  20.333  0.00  0.00    +0.000 NA
ATOM     22  H1  UNL     1       4.894   1.950  21.298  0.00  0.00    +0.000 HD
ATOM     23  H2  UNL     1       5.962   2.325  20.149  0.00  0.00    +0.000 HD
ENDBRANCH  20  21
BRANCH  20  24
ATOM     24  C   UNL     1       4.503   3.283  18.549  0.00  0.00    +0.000 C 
ATOM     25  O   UNL     1       3.871   3.772  17.629  0.00  0.00    +0.000 OA
BRANCH  24  26
ATOM     26  OXT UNL     1       5.745   3.699  18.914  0.00  0.00    +0.000 OA
ATOM     27  HXT UNL     1       5.905   4.549  18.433  0.00  0.00    +0.000 HD
ENDBRANCH  24  26
ENDBRANCH  20  24
ENDBRANCH  19  20
ENDBRANCH  18  19
ENDBRANCH   1  18
TORSDOF 9
ENDMDL
MODEL 5
REMARK VINA RESULT:      -7.1      5.677      8.785
REMARK  Name = 
REMARK  9 active torsions:
REMARK  status: ('A' for Active; 'I' for Inactive)
REMARK    1  A    between atoms: N_1  and  CA_2
REMARK    2  A    between atoms: CA_2  and  C_3
REMARK    3  A    between atoms: CA_2  and  C_21
REMARK    4  A    between atoms: C_3  and  C_4
REMARK    5  A    between atoms: C_4  and  C_5
REMARK    6  A    between atoms: N_7  and  C_8
REMARK    7  A    between atoms: C_11  and  O_12
REMARK    8  A    between atoms: O_12  and  C_13
REMARK    9  A    between atoms: C_21  and  OXT_23
REMARK                            x       y       z     vdW  Elec       q    Type
REMARK                         _______ _______ _______ _____ _____    ______ ____
ROOT
ATOM      1  C   UNL     1       2.722   4.323  17.666  0.00  0.00    +0.000 C 
ATOM      2  O   UNL     1       1.510   4.178  17.512  0.00  0.00    +0.000 OA
ATOM      3  N   UNL     1       3.365   5.451  18.136  0.00  0.00    +0.000 N 
ATOM      4  H   UNL     1       4.374   5.480  18.058  0.00  0.00    +0.000 HD
ENDROOT
BRANCH   3   5
ATOM      5  C   UNL     1       2.742   6.620  18.620  0.00  0.00    +0.000 A 
ATOM      6  C   UNL     1       2.241   6.742  19.919  0.00  0.00    +0.000 A 
ATOM      7  C   UNL     1       1.654   7.934  20.345  0.00  0.00    +0.000 A 
ATOM      8  C   UNL     1       1.563   9.019  19.481  0.00  0.00    +0.000 A 
ATOM      9  C   UNL     1       2.010   8.892  18.163  0.00  0.00    +0.000 A 
ATOM     10  C   UNL     1       2.633   7.709  17.748  0.00  0.00    +0.000 A 
BRANCH   8  11
ATOM     11  O   UNL     1       0.966  10.146  19.995  0.00  0.00    +0.000 OA
BRANCH  11  12
ATOM     12  C   UNL     1       0.000  10.806  19.270  0.00  0.00    +0.000 A 
ATOM     13  C   UNL     1      -1.148  10.065  18.985  0.00  0.00    +0.000 A 
ATOM     14  C   UNL     1      -2.181  10.631  18.238  0.00  0.00    +0.000 A 
ATOM     15  C   UNL     1      -2.068  11.942  17.776  0.00  0.00    +0.000 A 
ATOM     16  C   UNL     1      -0.943  12.700  18.095  0.00  0.00    +0.000 A 
ATOM     17  C   UNL     1       0.078  12.142  18.867  0.00  0.00    +0.000 A 
ENDBRANCH  11  12
ENDBRANCH   8  11
ENDBRANCH   3   5
BRANCH   1  18
ATOM     18  C   UNL     1       3.658   3.197  17.289  0.00  0.00    +0.000 C 
BRANCH  18  19
ATOM     19  C   UNL     1       3.563   2.092  18.343  0.00  0.00    +0.000 C 
BRANCH  19  20
ATOM     20  CA  UNL     1       3.945   2.519  19.760  0.00  0.00    +0.000 C 
BRANCH  20  21
ATOM     21  N   UNL     1       5.070   1.727  20.330  0.00  0.00    +0.000 NA
ATOM     22  H1  UNL     1       5.856   1.784  19.674  0.00  0.00    +0.000 HD
ATOM     23  H2  UNL     1       4.819   0.734  20.324  0.00  0.00    +0.000 HD
ENDBRANCH  20  21
BRANCH  20  24
ATOM     24  C   UNL     1       2.757   2.455  20.734  0.00  0.00    +0.000 C 
ATOM     25  O   UNL     1       2.827   2.550  21.947  0.00  0.00    +0.000 OA
BRANCH  24  26
ATOM     26  OXT UNL     1       1.590   2.271  20.061  0.00  0.00    +0.000 OA
ATOM     27  HXT UNL     1       1.746   1.520  19.435  0.00  0.00    +0.000 HD
ENDBRANCH  24  26
ENDBRANCH  20  24
ENDBRANCH  19  20
ENDBRANCH  18  19
ENDBRANCH   1  18
TORSDOF 9
ENDMDL
MODEL 6
REMARK VINA RESULT:      -7.1      1.738      2.124
REMARK  Name = 
REMARK  9 active torsions:
REMARK  status: ('A' for Active; 'I' for Inactive)
REMARK    1  A    between atoms: N_1  and  CA_2
REMARK    2  A    between atoms: CA_2  and  C_3
REMARK    3  A    between atoms: CA_2  and  C_21
REMARK    4  A    between atoms: C_3  and  C_4
REMARK    5  A    between atoms: C_4  and  C_5
REMARK    6  A    between atoms: N_7  and  C_8
REMARK    7  A    between atoms: C_11  and  O_12
REMARK    8  A    between atoms: O_12  and  C_13
REMARK    9  A    between atoms: C_21  and  OXT_23
REMARK                            x       y       z     vdW  Elec       q    Type
REMARK                         _______ _______ _______ _____ _____    ______ ____
ROOT
ATOM      1  C   UNL     1       8.275   8.859  18.311  0.00  0.00    +0.000 C 
ATOM      2  O   UNL     1       7.431   9.389  17.589  0.00  0.00    +0.000 OA
ATOM      3  N   UNL     1       8.323   7.531  18.685  0.00  0.00    +0.000 N 
ATOM      4  H   UNL     1       8.982   7.274  19.410  0.00  0.00    +0.000 HD
ENDROOT
BRANCH   3   5
ATOM      5  C   UNL     1       7.464   6.509  18.231  0.00  0.00    +0.000 A 
ATOM      6  C   UNL     1       7.202   6.271  16.879  0.00  0.00    +0.000 A 
ATOM      7  C   UNL     1       6.358   5.229  16.492  0.00  0.00    +0.000 A 
ATOM      8  C   UNL     1       5.768   4.412  17.449  0.00  0.00    +0.000 A 
ATOM      9  C   UNL     1       5.978   4.673  18.805  0.00  0.00    +0.000 A 
ATOM     10  C   UNL     1       6.854   5.695  19.192  0.00  0.00    +0.000 A 
BRANCH   8  11
ATOM     11  O   UNL     1       4.952   3.416  16.966  0.00  0.00    +0.000 OA
BRANCH  11  12
ATOM     12  C   UNL     1       3.725   3.188  17.547  0.00  0.00    +0.000 A 
ATOM     13  C   UNL     1       2.773   4.189  17.353  0.00  0.00    +0.000 A 
ATOM     14  C   UNL     1       1.503   4.069  17.915  0.00  0.00    +0.000 A 
ATOM     15  C   UNL     1       1.182   2.943  18.674  0.00  0.00    +0.000 A 
ATOM     16  C   UNL     1       2.115   1.920  18.833  0.00  0.00    +0.000 A 
ATOM     17  C   UNL     1       3.376   2.029  18.245  0.00  0.00    +0.000 A 
ENDBRANCH  11  12
ENDBRANCH   8  11
ENDBRANCH   3   5
BRANCH   1  18
ATOM     18  C   UNL     1       9.379   9.704  18.905  0.00  0.00    +0.000 C 
BRANCH  18  19
ATOM     19  C   UNL     1       9.374  11.079  18.236  0.00  0.00    +0.000 C 
BRANCH  19  20
ATOM     20  CA  UNL     1      10.754  11.702  18.035  0.00  0.00    +0.000 C 
BRANCH  20  21
ATOM     21  N   UNL     1      11.692  11.434  19.161  0.00  0.00    +0.000 NA
ATOM     22  H1  UNL     1      11.548  10.464  19.462  0.00  0.00    +0.000 HD
ATOM     23  H2  UNL     1      11.407  11.987  19.974  0.00  0.00    +0.000 HD
ENDBRANCH  20  21
BRANCH  20  24
ATOM     24  C   UNL     1      10.686  13.222  17.805  0.00  0.00    +0.000 C 
ATOM     25  O   UNL     1      10.612  14.070  18.678  0.00  0.00    +0.000 OA
BRANCH  24  26
ATOM     26  OXT UNL     1      10.715  13.510  16.477  0.00  0.00    +0.000 OA
ATOM     27  HXT UNL     1      10.809  12.644  16.007  0.00  0.00    +0.000 HD
ENDBRANCH  24  26
ENDBRANCH  20  24
ENDBRANCH  19  20
ENDBRANCH  18  19
ENDBRANCH   1  18
TORSDOF 9
ENDMDL
MODEL 7
REMARK VINA RESULT:      -7.1      5.294      8.849
REMARK  Name = 
REMARK  9 active torsions:
REMARK  status: ('A' for Active; 'I' for Inactive)
REMARK    1  A    between atoms: N_1  and  CA_2
REMARK    2  A    between atoms: CA_2  and  C_3
REMARK    3  A    between atoms: CA_2  and  C_21
REMARK    4  A    between atoms: C_3  and  C_4
REMARK    5  A    between atoms: C_4  and  C_5
REMARK    6  A    between atoms: N_7  and  C_8
REMARK    7  A    between atoms: C_11  and  O_12
REMARK    8  A    between atoms: O_12  and  C_13
REMARK    9  A    between atoms: C_21  and  OXT_23
REMARK                            x       y       z     vdW  Elec       q    Type
REMARK                         _______ _______ _______ _____ _____    ______ ____
ROOT
ATOM      1  C   UNL     1       4.149   4.784  19.082  0.00  0.00    +0.000 C 
ATOM      2  O   UNL     1       5.124   5.453  19.421  0.00  0.00    +0.000 OA
ATOM      3  N   UNL     1       2.862   5.244  18.885  0.00  0.00    +0.000 N 
ATOM      4  H   UNL     1       2.133   4.552  18.764  0.00  0.00    +0.000 HD
ENDROOT
BRANCH   3   5
ATOM      5  C   UNL     1       2.443   6.589  18.945  0.00  0.00    +0.000 A 
ATOM      6  C   UNL     1       2.572   7.482  17.876  0.00  0.00    +0.000 A 
ATOM      7  C   UNL     1       2.118   8.796  17.991  0.00  0.00    +0.000 A 
ATOM      8  C   UNL     1       1.528   9.235  19.169  0.00  0.00    +0.000 A 
ATOM      9  C   UNL     1       1.443   8.369  20.263  0.00  0.00    +0.000 A 
ATOM     10  C   UNL     1       1.865   7.040  20.136  0.00  0.00    +0.000 A 
BRANCH   8  11
ATOM     11  O   UNL     1       1.117  10.547  19.182  0.00  0.00    +0.000 OA
BRANCH  11  12
ATOM     12  C   UNL     1      -0.210  10.855  18.988  0.00  0.00    +0.000 A 
ATOM     13  C   UNL     1      -0.849  10.146  17.970  0.00  0.00    +0.000 A 
ATOM     14  C   UNL     1      -2.189  10.394  17.675  0.00  0.00    +0.000 A 
ATOM     15  C   UNL     1      -2.895  11.354  18.401  0.00  0.00    +0.000 A 
ATOM     16  C   UNL     1      -2.273  12.034  19.448  0.00  0.00    +0.000 A 
ATOM     17  C   UNL     1      -0.940  11.763  19.760  0.00  0.00    +0.000 A 
ENDBRANCH  11  12
ENDBRANCH   8  11
ENDBRANCH   3   5
BRANCH   1  18
ATOM     18  C   UNL     1       4.307   3.295  18.875  0.00  0.00    +0.000 C 
BRANCH  18  19
ATOM     19  C   UNL     1       3.814   2.560  20.122  0.00  0.00    +0.000 C 
BRANCH  19  20
ATOM     20  CA  UNL     1       2.388   2.018  20.029  0.00  0.00    +0.000 C 
BRANCH  20  21
ATOM     21  N   UNL     1       1.821   2.085  18.653  0.00  0.00    +0.000 NA
ATOM     22  H1  UNL     1       2.598   2.246  18.003  0.00  0.00    +0.000 HD
ATOM     23  H2  UNL     1       1.250   2.931  18.566  0.00  0.00    +0.000 HD
ENDBRANCH  20  21
BRANCH  20  24
ATOM     24  C   UNL     1       1.423   2.730  20.992  0.00  0.00    +0.000 C 
ATOM     25  O   UNL     1       1.375   2.566  22.199  0.00  0.00    +0.000 OA
BRANCH  24  26
ATOM     26  OXT UNL     1       0.609   3.583  20.316  0.00  0.00    +0.000 OA
ATOM     27  HXT UNL     1      -0.221   3.656  20.850  0.00  0.00    +0.000 HD
ENDBRANCH  24  26
ENDBRANCH  20  24
ENDBRANCH  19  20
ENDBRANCH  18  19
ENDBRANCH   1  18
TORSDOF 9
ENDMDL
MODEL 8
REMARK VINA RESULT:      -7.0      1.189      1.346
REMARK  Name = 
REMARK  9 active torsions:
REMARK  status: ('A' for Active; 'I' for Inactive)
REMARK    1  A    between atoms: N_1  and  CA_2
REMARK    2  A    between atoms: CA_2  and  C_3
REMARK    3  A    between atoms: CA_2  and  C_21
REMARK    4  A    between atoms: C_3  and  C_4
REMARK    5  A    between atoms: C_4  and  C_5
REMARK    6  A    between atoms: N_7  and  C_8
REMARK    7  A    between atoms: C_11  and  O_12
REMARK    8  A    between atoms: O_12  and  C_13
REMARK    9  A    between atoms: C_21  and  OXT_23
REMARK                            x       y       z     vdW  Elec       q    Type
REMARK                         _______ _______ _______ _____ _____    ______ ____
ROOT
ATOM      1  C   UNL     1       8.178   8.508  18.119  0.00  0.00    +0.000 C 
ATOM      2  O   UNL     1       8.678   7.779  18.975  0.00  0.00    +0.000 OA
ATOM      3  N   UNL     1       7.176   8.168  17.232  0.00  0.00    +0.000 N 
ATOM      4  H   UNL     1       6.978   8.819  16.481  0.00  0.00    +0.000 HD
ENDROOT
BRANCH   3   5
ATOM      5  C   UNL     1       6.470   6.948  17.203  0.00  0.00    +0.000 A 
ATOM      6  C   UNL     1       7.098   5.699  17.160  0.00  0.00    +0.000 A 
ATOM      7  C   UNL     1       6.343   4.525  17.155  0.00  0.00    +0.000 A 
ATOM      8  C   UNL     1       4.956   4.583  17.195  0.00  0.00    +0.000 A 
ATOM      9  C   UNL     1       4.315   5.825  17.183  0.00  0.00    +0.000 A 
ATOM     10  C   UNL     1       5.073   7.002  17.226  0.00  0.00    +0.000 A 
BRANCH   8  11
ATOM     11  O   UNL     1       4.305   3.372  17.184  0.00  0.00    +0.000 OA
BRANCH  11  12
ATOM     12  C   UNL     1       3.339   3.099  18.125  0.00  0.00    +0.000 A 
ATOM     13  C   UNL     1       3.792   3.013  19.442  0.00  0.00    +0.000 A 
ATOM     14  C   UNL     1       2.900   2.720  20.474  0.00  0.00    +0.000 A 
ATOM     15  C   UNL     1       1.550   2.515  20.189  0.00  0.00    +0.000 A 
ATOM     16  C   UNL     1       1.086   2.644  18.882  0.00  0.00    +0.000 A 
ATOM     17  C   UNL     1       1.975   2.966  17.854  0.00  0.00    +0.000 A 
ENDBRANCH  11  12
ENDBRANCH   8  11
ENDBRANCH   3   5
BRANCH   1  18
ATOM     18  C   UNL     1       8.693   9.919  17.953  0.00  0.00    +0.000 C 
BRANCH  18  19
ATOM     19  C   UNL     1       9.308  10.387  19.272  0.00  0.00    +0.000 C 
BRANCH  19  20
ATOM     20  CA  UNL     1      10.517  11.310  19.127  0.00  0.00    +0.000 C 
BRANCH  20  21
ATOM     21  N   UNL     1      11.190  11.609  20.422  0.00  0.00    +0.000 NA
ATOM     22  H1  UNL     1      12.199  11.484  20.286  0.00  0.00    +0.000 HD
ATOM     23  H2  UNL     1      10.944  10.885  21.104  0.00  0.00    +0.000 HD
ENDBRANCH  20  21
BRANCH  20  24
ATOM     24  C   UNL     1      10.163  12.640  18.440  0.00  0.00    +0.000 C 
ATOM     25  O   UNL     1      10.422  12.934  17.286  0.00  0.00    +0.000 OA
BRANCH  24  26
ATOM     26  OXT UNL     1       9.513  13.468  19.300  0.00  0.00    +0.000 OA
ATOM     27  HXT UNL     1      10.191  14.108  19.635  0.00  0.00    +0.000 HD
ENDBRANCH  24  26
ENDBRANCH  20  24
ENDBRANCH  19  20
ENDBRANCH  18  19
ENDBRANCH   1  18
TORSDOF 9
ENDMDL
MODEL 9
REMARK VINA RESULT:      -7.0      0.596      1.283
REMARK  Name = 
REMARK  9 active torsions:
REMARK  status: ('A' for Active; 'I' for Inactive)
REMARK    1  A    between atoms: N_1  and  CA_2
REMARK    2  A    between atoms: CA_2  and  C_3
REMARK    3  A    between atoms: CA_2  and  C_21
REMARK    4  A    between atoms: C_3  and  C_4
REMARK    5  A    between atoms: C_4  and  C_5
REMARK    6  A    between atoms: N_7  and  C_8
REMARK    7  A    between atoms: C_11  and  O_12
REMARK    8  A    between atoms: O_12  and  C_13
REMARK    9  A    between atoms: C_21  and  OXT_23
REMARK                            x       y       z     vdW  Elec       q    Type
REMARK                         _______ _______ _______ _____ _____    ______ ____
ROOT
ATOM      1  C   UNL     1       8.144   8.446  18.043  0.00  0.00    +0.000 C 
ATOM      2  O   UNL     1       8.641   7.756  18.932  0.00  0.00    +0.000 OA
ATOM      3  N   UNL     1       7.142   8.070  17.170  0.00  0.00    +0.000 N 
ATOM      4  H   UNL     1       6.946   8.686  16.391  0.00  0.00    +0.000 HD
ENDROOT
BRANCH   3   5
ATOM      5  C   UNL     1       6.433   6.851  17.197  0.00  0.00    +0.000 A 
ATOM      6  C   UNL     1       7.055   5.600  17.154  0.00  0.00    +0.000 A 
ATOM      7  C   UNL     1       6.297   4.429  17.204  0.00  0.00    +0.000 A 
ATOM      8  C   UNL     1       4.913   4.492  17.302  0.00  0.00    +0.000 A 
ATOM      9  C   UNL     1       4.276   5.735  17.290  0.00  0.00    +0.000 A 
ATOM     10  C   UNL     1       5.037   6.910  17.277  0.00  0.00    +0.000 A 
BRANCH   8  11
ATOM     11  O   UNL     1       4.259   3.283  17.343  0.00  0.00    +0.000 OA
BRANCH  11  12
ATOM     12  C   UNL     1       3.355   3.022  18.347  0.00  0.00    +0.000 A 
ATOM     13  C   UNL     1       2.054   2.744  17.926  0.00  0.00    +0.000 A 
ATOM     14  C   UNL     1       1.053   2.485  18.862  0.00  0.00    +0.000 A 
ATOM     15  C   UNL     1       1.353   2.503  20.224  0.00  0.00    +0.000 A 
ATOM     16  C   UNL     1       2.661   2.736  20.647  0.00  0.00    +0.000 A 
ATOM     17  C   UNL     1       3.667   2.967  19.708  0.00  0.00    +0.000 A 
ENDBRANCH  11  12
ENDBRANCH   8  11
ENDBRANCH   3   5
BRANCH   1  18
ATOM     18  C   UNL     1       8.663   9.847  17.813  0.00  0.00    +0.000 C 
BRANCH  18  19
ATOM     19  C   UNL     1       9.254  10.384  19.117  0.00  0.00    +0.000 C 
BRANCH  19  20
ATOM     20  CA  UNL     1       9.587  11.875  19.108  0.00  0.00    +0.000 C 
BRANCH  20  21
ATOM     21  N   UNL     1       8.889  12.628  18.029  0.00  0.00    +0.000 NA
ATOM     22  H1  UNL     1       9.603  12.987  17.387  0.00  0.00    +0.000 HD
ATOM     23  H2  UNL     1       8.471  13.475  18.427  0.00  0.00    +0.000 HD
ENDBRANCH  20  21
BRANCH  20  24
ATOM     24  C   UNL     1      11.098  12.139  18.991  0.00  0.00    +0.000 C 
ATOM     25  O   UNL     1      11.866  11.555  18.246  0.00  0.00    +0.000 OA
BRANCH  24  26
ATOM     26  OXT UNL     1      11.482  13.127  19.843  0.00  0.00    +0.000 OA
ATOM     27  HXT UNL     1      10.833  13.865  19.723  0.00  0.00    +0.000 HD
ENDBRANCH  24  26
ENDBRANCH  20  24
ENDBRANCH  19  20
ENDBRANCH  18  19
ENDBRANCH   1  18
TORSDOF 9
ENDMDL
