MODEL 1
REMARK VINA RESULT:      -8.0      0.000      0.000
REMARK  Name = 
REMARK  5 active torsions:
REMARK  status: ('A' for Active; 'I' for Inactive)
REMARK    1  A    between atoms: O_1  and  C_2
REMARK    2  A    between atoms: C_5  and  N_6
REMARK    3  A    between atoms: C_9  and  C_10
REMARK    4  A    between atoms: C_10  and  C_11
REMARK    5  A    between atoms: C_18  and  N_19
REMARK                            x       y       z     vdW  Elec       q    Type
REMARK                         _______ _______ _______ _____ _____    ______ ____
ROOT
ATOM      1  N   UNL     1       1.764  13.122  19.767  0.00  0.00    +0.000 N 
ATOM      2  C   UNL     1       1.371  11.941  19.199  0.00  0.00    +0.000 A 
ATOM      3  N   UNL     1       0.085  11.628  19.392  0.00  0.00    +0.000 NA
ATOM      4  C   UNL     1      -0.375  10.523  18.772  0.00  0.00    +0.000 A 
ATOM      5  C   UNL     1       0.456   9.695  18.063  0.00  0.00    +0.000 A 
ATOM      6  C   UNL     1       1.798  10.006  18.046  0.00  0.00    +0.000 A 
ATOM      7  N   UNL     1       2.249  11.171  18.534  0.00  0.00    +0.000 NA
ATOM      8  H   UNL     1       1.365  13.265  20.684  0.00  0.00    +0.000 HD
ENDROOT
BRANCH   6   9
ATOM      9  N   UNL     1       2.752   9.099  17.542  0.00  0.00    +0.000 N 
ATOM     10  C   UNL     1       2.930   7.848  18.046  0.00  0.00    +0.000 A 
ATOM     11  N   UNL     1       2.151   7.290  18.951  0.00  0.00    +0.000 NA
ATOM     12  C   UNL     1       2.608   6.044  19.303  0.00  0.00    +0.000 A 
ATOM     13  C   UNL     1       2.052   5.181  20.255  0.00  0.00    +0.000 A 
ATOM     14  C   UNL     1       2.680   3.957  20.457  0.00  0.00    +0.000 A 
ATOM     15  C   UNL     1       3.810   3.655  19.706  0.00  0.00    +0.000 A 
ATOM     16  N   UNL     1       4.384   4.454  18.773  0.00  0.00    +0.000 NA
ATOM     17  C   UNL     1       3.743   5.632  18.622  0.00  0.00    +0.000 A 
ATOM     18  S   UNL     1       4.257   6.855  17.547  0.00  0.00    +0.000 S 
ATOM     19  H   UNL     1       3.568   9.598  17.205  0.00  0.00    +0.000 HD
ENDBRANCH   6   9
BRANCH   1  23
ATOM     20  C   UNL     1       4.353  16.411  18.984  0.00  0.00    +0.000 C 
ATOM     21  C   UNL     1       3.684  15.709  17.806  0.00  0.00    +0.000 C 
ATOM     22  C   UNL     1       2.514  14.853  18.275  0.00  0.00    +0.000 C 
ATOM     23  C   UNL     1       2.945  13.836  19.347  0.00  0.00    +0.000 C 
ATOM     24  C   UNL     1       3.632  14.535  20.522  0.00  0.00    +0.000 C 
ATOM     25  C   UNL     1       4.795  15.405  20.046  0.00  0.00    +0.000 C 
BRANCH  20  26
ATOM     26  O   UNL     1       5.494  17.124  18.526  0.00  0.00    +0.000 OA
ATOM     27  H   UNL     1       5.487  17.997  18.955  0.00  0.00    +0.000 HD
ENDBRANCH  20  26
ENDBRANCH   1  23
BRANCH   4  28
ATOM     28  C   UNL     1      -1.835  10.158  18.927  0.00  0.00    +0.000 C 
BRANCH  28  29
ATOM     29  C   UNL     1      -2.666  10.378  17.681  0.00  0.00    +0.000 A 
ATOM     30  C   UNL     1      -3.764  11.250  17.709  0.00  0.00    +0.000 A 
ATOM     31  C   UNL     1      -4.498  11.511  16.553  0.00  0.00    +0.000 A 
ATOM     32  C   UNL     1      -4.140  10.908  15.350  0.00  0.00    +0.000 A 
ATOM     33  C   UNL     1      -3.058  10.029  15.307  0.00  0.00    +0.000 A 
ATOM     34  C   UNL     1      -2.326   9.761  16.467  0.00  0.00    +0.000 A 
ENDBRANCH  28  29
ENDBRANCH   4  28
TORSDOF 5
ENDMDL
MODEL 2
REMARK VINA RESULT:      -8.0      2.994      7.127
REMARK  Name = 
REMARK  5 active torsions:
REMARK  status: ('A' for Active; 'I' for Inactive)
REMARK    1  A    between atoms: O_1  and  C_2
REMARK    2  A    between atoms: C_5  and  N_6
REMARK    3  A    between atoms: C_9  and  C_10
REMARK    4  A    between atoms: C_10  and  C_11
REMARK    5  A    between atoms: C_18  and  N_19
REMARK                            x       y       z     vdW  Elec       q    Type
REMARK                         _______ _______ _______ _____ _____    ______ ____
ROOT
ATOM      1  N   UNL     1       2.123  13.024  19.104  0.00  0.00    +0.000 N 
ATOM      2  C   UNL     1       1.200  12.015  19.095  0.00  0.00    +0.000 A 
ATOM      3  N   UNL     1       1.536  10.942  19.820  0.00  0.00    +0.000 NA
ATOM      4  C   UNL     1       0.619   9.959  19.921  0.00  0.00    +0.000 A 
ATOM      5  C   UNL     1      -0.563  10.002  19.231  0.00  0.00    +0.000 A 
ATOM      6  C   UNL     1      -0.765  11.070  18.382  0.00  0.00    +0.000 A 
ATOM      7  N   UNL     1       0.069  12.121  18.377  0.00  0.00    +0.000 NA
ATOM      8  H   UNL     1       3.072  12.684  19.049  0.00  0.00    +0.000 HD
ENDROOT
BRANCH   6   9
ATOM      9  N   UNL     1      -1.837  11.084  17.467  0.00  0.00    +0.000 N 
ATOM     10  C   UNL     1      -3.106  11.433  17.812  0.00  0.00    +0.000 A 
ATOM     11  N   UNL     1      -3.451  11.931  18.982  0.00  0.00    +0.000 NA
ATOM     12  C   UNL     1      -4.807  12.137  19.056  0.00  0.00    +0.000 A 
ATOM     13  C   UNL     1      -5.526  12.620  20.156  0.00  0.00    +0.000 A 
ATOM     14  C   UNL     1      -6.903  12.753  20.014  0.00  0.00    +0.000 A 
ATOM     15  C   UNL     1      -7.485  12.410  18.800  0.00  0.00    +0.000 A 
ATOM     16  N   UNL     1      -6.833  11.941  17.708  0.00  0.00    +0.000 NA
ATOM     17  C   UNL     1      -5.503  11.821  17.900  0.00  0.00    +0.000 A 
ATOM     18  S   UNL     1      -4.428  11.221  16.716  0.00  0.00    +0.000 S 
ATOM     19  H   UNL     1      -1.715  10.357  16.771  0.00  0.00    +0.000 HD
ENDBRANCH   6   9
BRANCH   1  23
ATOM     20  C   UNL     1       2.180  17.281  19.213  0.00  0.00    +0.000 C 
ATOM     21  C   UNL     1       0.968  16.550  19.782  0.00  0.00    +0.000 C 
ATOM     22  C   UNL     1       1.284  15.080  20.029  0.00  0.00    +0.000 C 
ATOM     23  C   UNL     1       1.795  14.385  18.754  0.00  0.00    +0.000 C 
ATOM     24  C   UNL     1       3.001  15.126  18.171  0.00  0.00    +0.000 C 
ATOM     25  C   UNL     1       2.684  16.603  17.940  0.00  0.00    +0.000 C 
BRANCH  20  26
ATOM     26  O   UNL     1       1.826  18.623  18.907  0.00  0.00    +0.000 OA
ATOM     27  H   UNL     1       2.645  19.147  18.893  0.00  0.00    +0.000 HD
ENDBRANCH  20  26
ENDBRANCH   1  23
BRANCH   4  28
ATOM     28  C   UNL     1       0.943   8.749  20.769  0.00  0.00    +0.000 C 
BRANCH  28  29
ATOM     29  C   UNL     1       1.686   7.654  20.033  0.00  0.00    +0.000 A 
ATOM     30  C   UNL     1       2.274   7.915  18.787  0.00  0.00    +0.000 A 
ATOM     31  C   UNL     1       3.017   6.934  18.130  0.00  0.00    +0.000 A 
ATOM     32  C   UNL     1       3.186   5.682  18.713  0.00  0.00    +0.000 A 
ATOM     33  C   UNL     1       2.598   5.402  19.946  0.00  0.00    +0.000 A 
ATOM     34  C   UNL     1       1.847   6.381  20.602  0.00  0.00    +0.000 A 
ENDBRANCH  28  29
ENDBRANCH   4  28
TORSDOF 5
ENDMDL
MODEL 3
REMARK VINA RESULT:      -8.0      3.823      7.743
REMARK  Name = 
REMARK  5 active torsions:
REMARK  status: ('A' for Active; 'I' for Inactive)
REMARK    1  A    between atoms: O_1  and  C_2
REMARK    2  A    between atoms: C_5  and  N_6
REMARK    3  A    between atoms: C_9  and  C_10
REMARK    4  A    between atoms: C_10  and  C_11
REMARK    5  A    between atoms: C_18  and  N_19
REMARK                            x       y       z     vdW  Elec       q    Type
REMARK                         _______ _______ _______ _____ _____    ______ ____
ROOT
ATOM      1  N   UNL     1       0.806  12.255  20.706  0.00  0.00    +0.000 N 
ATOM      2  C   UNL     1       0.584  11.387  19.672  0.00  0.00    +0.000 A 
ATOM      3  N   UNL     1       1.587  10.534  19.432  0.00  0.00    +0.000 NA
ATOM      4  C   UNL     1       1.379   9.597  18.486  0.00  0.00    +0.000 A 
ATOM      5  C   UNL     1       0.238   9.578  17.728  0.00  0.00    +0.000 A 
ATOM      6  C   UNL     1      -0.677  10.588  17.931  0.00  0.00    +0.000 A 
ATOM      7  N   UNL     1      -0.554  11.441  18.960  0.00  0.00    +0.000 NA
ATOM      8  H   UNL     1       1.752  12.606  20.723  0.00  0.00    +0.000 HD
ENDROOT
BRANCH   6   9
ATOM      9  N   UNL     1      -1.760  10.781  17.051  0.00  0.00    +0.000 N 
ATOM     10  C   UNL     1      -2.989  11.198  17.462  0.00  0.00    +0.000 A 
ATOM     11  N   UNL     1      -3.269  11.605  18.683  0.00  0.00    +0.000 NA
ATOM     12  C   UNL     1      -4.601  11.914  18.813  0.00  0.00    +0.000 A 
ATOM     13  C   UNL     1      -5.256  12.345  19.973  0.00  0.00    +0.000 A 
ATOM     14  C   UNL     1      -6.619  12.604  19.881  0.00  0.00    +0.000 A 
ATOM     15  C   UNL     1      -7.250  12.432  18.655  0.00  0.00    +0.000 A 
ATOM     16  N   UNL     1      -6.661  12.020  17.506  0.00  0.00    +0.000 NA
ATOM     17  C   UNL     1      -5.342  11.773  17.650  0.00  0.00    +0.000 A 
ATOM     18  S   UNL     1      -4.344  11.206  16.386  0.00  0.00    +0.000 S 
ATOM     19  H   UNL     1      -1.714  10.118  16.284  0.00  0.00    +0.000 HD
ENDBRANCH   6   9
BRANCH   1  23
ATOM     20  C   UNL     1      -1.401  13.988  23.909  0.00  0.00    +0.000 C 
ATOM     21  C   UNL     1      -1.891  12.673  23.309  0.00  0.00    +0.000 C 
ATOM     22  C   UNL     1      -0.797  12.009  22.484  0.00  0.00    +0.000 C 
ATOM     23  C   UNL     1      -0.261  12.947  21.387  0.00  0.00    +0.000 C 
ATOM     24  C   UNL     1       0.215  14.274  21.984  0.00  0.00    +0.000 C 
ATOM     25  C   UNL     1      -0.880  14.929  22.823  0.00  0.00    +0.000 C 
BRANCH  20  26
ATOM     26  O   UNL     1      -2.471  14.626  24.593  0.00  0.00    +0.000 OA
ATOM     27  H   UNL     1      -2.150  14.871  25.478  0.00  0.00    +0.000 HD
ENDBRANCH  20  26
ENDBRANCH   1  23
BRANCH   4  28
ATOM     28  C   UNL     1       2.470   8.584  18.215  0.00  0.00    +0.000 C 
BRANCH  28  29
ATOM     29  C   UNL     1       2.207   7.214  18.801  0.00  0.00    +0.000 A 
ATOM     30  C   UNL     1       2.282   6.073  17.989  0.00  0.00    +0.000 A 
ATOM     31  C   UNL     1       2.106   4.799  18.530  0.00  0.00    +0.000 A 
ATOM     32  C   UNL     1       1.858   4.650  19.892  0.00  0.00    +0.000 A 
ATOM     33  C   UNL     1       1.769   5.774  20.711  0.00  0.00    +0.000 A 
ATOM     34  C   UNL     1       1.938   7.052  20.169  0.00  0.00    +0.000 A 
ENDBRANCH  28  29
ENDBRANCH   4  28
TORSDOF 5
ENDMDL
MODEL 4
REMARK VINA RESULT:      -7.9      3.758      7.711
REMARK  Name = 
REMARK  5 active torsions:
REMARK  status: ('A' for Active; 'I' for Inactive)
REMARK    1  A    between atoms: O_1  and  C_2
REMARK    2  A    between atoms: C_5  and  N_6
REMARK    3  A    between atoms: C_9  and  C_10
REMARK    4  A    between atoms: C_10  and  C_11
REMARK    5  A    between atoms: C_18  and  N_19
REMARK                            x       y       z     vdW  Elec       q    Type
REMARK                         _______ _______ _______ _____ _____    ______ ____
ROOT
ATOM      1  N   UNL     1       0.772  11.683  20.808  0.00  0.00    +0.000 N 
ATOM      2  C   UNL     1       0.625  10.864  19.722  0.00  0.00    +0.000 A 
ATOM      3  N   UNL     1       1.629  10.001  19.532  0.00  0.00    +0.000 NA
ATOM      4  C   UNL     1       1.488   9.108  18.532  0.00  0.00    +0.000 A 
ATOM      5  C   UNL     1       0.417   9.145  17.678  0.00  0.00    +0.000 A 
ATOM      6  C   UNL     1      -0.494  10.166  17.846  0.00  0.00    +0.000 A 
ATOM      7  N   UNL     1      -0.445  10.972  18.917  0.00  0.00    +0.000 NA
ATOM      8  H   UNL     1       1.720  12.013  20.921  0.00  0.00    +0.000 HD
ENDROOT
BRANCH   6   9
ATOM      9  N   UNL     1      -1.494  10.419  16.885  0.00  0.00    +0.000 N 
ATOM     10  C   UNL     1      -2.716  10.930  17.197  0.00  0.00    +0.000 A 
ATOM     11  N   UNL     1      -3.054  11.380  18.389  0.00  0.00    +0.000 NA
ATOM     12  C   UNL     1      -4.365  11.786  18.415  0.00  0.00    +0.000 A 
ATOM     13  C   UNL     1      -5.070  12.284  19.517  0.00  0.00    +0.000 A 
ATOM     14  C   UNL     1      -6.401  12.638  19.321  0.00  0.00    +0.000 A 
ATOM     15  C   UNL     1      -6.952  12.488  18.055  0.00  0.00    +0.000 A 
ATOM     16  N   UNL     1      -6.311  12.014  16.958  0.00  0.00    +0.000 NA
ATOM     17  C   UNL     1      -5.028  11.675  17.203  0.00  0.00    +0.000 A 
ATOM     18  S   UNL     1      -3.984  11.014  16.024  0.00  0.00    +0.000 S 
ATOM     19  H   UNL     1      -1.439   9.741  16.133  0.00  0.00    +0.000 HD
ENDBRANCH   6   9
BRANCH   1  23
ATOM     20  C   UNL     1      -1.545  13.571  23.840  0.00  0.00    +0.000 C 
ATOM     21  C   UNL     1      -1.952  12.178  23.368  0.00  0.00    +0.000 C 
ATOM     22  C   UNL     1      -0.817  11.508  22.605  0.00  0.00    +0.000 C 
ATOM     23  C   UNL     1      -0.337  12.370  21.424  0.00  0.00    +0.000 C 
ATOM     24  C   UNL     1       0.055  13.773  21.891  0.00  0.00    +0.000 C 
ATOM     25  C   UNL     1      -1.081  14.436  22.669  0.00  0.00    +0.000 C 
BRANCH  20  26
ATOM     26  O   UNL     1      -2.655  14.204  24.465  0.00  0.00    +0.000 OA
ATOM     27  H   UNL     1      -3.104  14.742  23.790  0.00  0.00    +0.000 HD
ENDBRANCH  20  26
ENDBRANCH   1  23
BRANCH   4  28
ATOM     28  C   UNL     1       2.580   8.084  18.312  0.00  0.00    +0.000 C 
BRANCH  28  29
ATOM     29  C   UNL     1       2.253   6.703  18.837  0.00  0.00    +0.000 A 
ATOM     30  C   UNL     1       2.091   6.491  20.214  0.00  0.00    +0.000 A 
ATOM     31  C   UNL     1       1.725   5.238  20.705  0.00  0.00    +0.000 A 
ATOM     32  C   UNL     1       1.510   4.181  19.825  0.00  0.00    +0.000 A 
ATOM     33  C   UNL     1       1.678   4.372  18.454  0.00  0.00    +0.000 A 
ATOM     34  C   UNL     1       2.051   5.625  17.961  0.00  0.00    +0.000 A 
ENDBRANCH  28  29
ENDBRANCH   4  28
TORSDOF 5
ENDMDL
MODEL 5
REMARK VINA RESULT:      -7.9      4.338      8.203
REMARK  Name = 
REMARK  5 active torsions:
REMARK  status: ('A' for Active; 'I' for Inactive)
REMARK    1  A    between atoms: O_1  and  C_2
REMARK    2  A    between atoms: C_5  and  N_6
REMARK    3  A    between atoms: C_9  and  C_10
REMARK    4  A    between atoms: C_10  and  C_11
REMARK    5  A    between atoms: C_18  and  N_19
REMARK                            x       y       z     vdW  Elec       q    Type
REMARK                         _______ _______ _______ _____ _____    ______ ____
ROOT
ATOM      1  N   UNL     1       1.236  10.423  20.096  0.00  0.00    +0.000 N 
ATOM      2  C   UNL     1       0.536  11.397  19.440  0.00  0.00    +0.000 A 
ATOM      3  N   UNL     1       0.996  12.640  19.626  0.00  0.00    +0.000 NA
ATOM      4  C   UNL     1       0.400  13.625  18.926  0.00  0.00    +0.000 A 
ATOM      5  C   UNL     1      -0.697  13.388  18.138  0.00  0.00    +0.000 A 
ATOM      6  C   UNL     1      -1.204  12.107  18.125  0.00  0.00    +0.000 A 
ATOM      7  N   UNL     1      -0.543  11.091  18.699  0.00  0.00    +0.000 NA
ATOM      8  H   UNL     1       1.510  10.701  21.027  0.00  0.00    +0.000 HD
ENDROOT
BRANCH   6   9
ATOM      9  N   UNL     1      -2.451  11.821  17.533  0.00  0.00    +0.000 N 
ATOM     10  C   UNL     1      -3.626  11.854  18.217  0.00  0.00    +0.000 A 
ATOM     11  N   UNL     1      -3.758  12.293  19.453  0.00  0.00    +0.000 NA
ATOM     12  C   UNL     1      -5.051  12.157  19.895  0.00  0.00    +0.000 A 
ATOM     13  C   UNL     1      -5.545  12.485  21.163  0.00  0.00    +0.000 A 
ATOM     14  C   UNL     1      -6.898  12.265  21.401  0.00  0.00    +0.000 A 
ATOM     15  C   UNL     1      -7.679  11.745  20.378  0.00  0.00    +0.000 A 
ATOM     16  N   UNL     1      -7.249  11.413  19.136  0.00  0.00    +0.000 NA
ATOM     17  C   UNL     1      -5.930  11.636  18.959  0.00  0.00    +0.000 A 
ATOM     18  S   UNL     1      -5.097  11.280  17.511  0.00  0.00    +0.000 S 
ATOM     19  H   UNL     1      -2.343  11.122  16.805  0.00  0.00    +0.000 HD
ENDBRANCH   6   9
BRANCH   1  23
ATOM     20  C   UNL     1       2.592   6.471  19.271  0.00  0.00    +0.000 C 
ATOM     21  C   UNL     1       2.221   7.378  18.101  0.00  0.00    +0.000 C 
ATOM     22  C   UNL     1       2.154   8.835  18.540  0.00  0.00    +0.000 C 
ATOM     23  C   UNL     1       1.182   9.032  19.716  0.00  0.00    +0.000 C 
ATOM     24  C   UNL     1       1.541   8.112  20.886  0.00  0.00    +0.000 C 
ATOM     25  C   UNL     1       1.622   6.653  20.438  0.00  0.00    +0.000 C 
BRANCH  20  26
ATOM     26  O   UNL     1       2.554   5.114  18.851  0.00  0.00    +0.000 OA
ATOM     27  H   UNL     1       3.432   4.891  18.498  0.00  0.00    +0.000 HD
ENDBRANCH  20  26
ENDBRANCH   1  23
BRANCH   4  28
ATOM     28  C   UNL     1       0.919  15.038  19.073  0.00  0.00    +0.000 C 
BRANCH  28  29
ATOM     29  C   UNL     1      -0.151  16.105  19.000  0.00  0.00    +0.000 A 
ATOM     30  C   UNL     1      -1.127  16.197  20.003  0.00  0.00    +0.000 A 
ATOM     31  C   UNL     1      -2.079  17.216  19.982  0.00  0.00    +0.000 A 
ATOM     32  C   UNL     1      -2.064  18.161  18.960  0.00  0.00    +0.000 A 
ATOM     33  C   UNL     1      -1.108  18.077  17.948  0.00  0.00    +0.000 A 
ATOM     34  C   UNL     1      -0.158  17.053  17.964  0.00  0.00    +0.000 A 
ENDBRANCH  28  29
ENDBRANCH   4  28
TORSDOF 5
ENDMDL
MODEL 6
REMARK VINA RESULT:      -7.9      3.121      6.936
REMARK  Name = 
REMARK  5 active torsions:
REMARK  status: ('A' for Active; 'I' for Inactive)
REMARK    1  A    between atoms: O_1  and  C_2
REMARK    2  A    between atoms: C_5  and  N_6
REMARK    3  A    between atoms: C_9  and  C_10
REMARK    4  A    between atoms: C_10  and  C_11
REMARK    5  A    between atoms: C_18  and  N_19
REMARK                            x       y       z     vdW  Elec       q    Type
REMARK                         _______ _______ _______ _____ _____    ______ ____
ROOT
ATOM      1  N   UNL     1       2.842  13.060  17.957  0.00  0.00    +0.000 N 
ATOM      2  C   UNL     1       2.179  12.041  18.585  0.00  0.00    +0.000 A 
ATOM      3  N   UNL     1       2.099  10.907  17.880  0.00  0.00    +0.000 NA
ATOM      4  C   UNL     1       1.540   9.844  18.493  0.00  0.00    +0.000 A 
ATOM      5  C   UNL     1       0.982   9.942  19.740  0.00  0.00    +0.000 A 
ATOM      6  C   UNL     1       0.966  11.186  20.333  0.00  0.00    +0.000 A 
ATOM      7  N   UNL     1       1.640  12.217  19.803  0.00  0.00    +0.000 NA
ATOM      8  H   UNL     1       2.622  13.118  16.973  0.00  0.00    +0.000 HD
ENDROOT
BRANCH   6   9
ATOM      9  N   UNL     1       0.218  11.429  21.503  0.00  0.00    +0.000 N 
ATOM     10  C   UNL     1      -1.079  11.840  21.486  0.00  0.00    +0.000 A 
ATOM     11  N   UNL     1      -1.823  11.917  20.401  0.00  0.00    +0.000 NA
ATOM     12  C   UNL     1      -3.072  12.412  20.687  0.00  0.00    +0.000 A 
ATOM     13  C   UNL     1      -4.107  12.659  19.777  0.00  0.00    +0.000 A 
ATOM     14  C   UNL     1      -5.299  13.166  20.285  0.00  0.00    +0.000 A 
ATOM     15  C   UNL     1      -5.401  13.389  21.652  0.00  0.00    +0.000 A 
ATOM     16  N   UNL     1      -4.430  13.164  22.571  0.00  0.00    +0.000 NA
ATOM     17  C   UNL     1      -3.292  12.683  22.028  0.00  0.00    +0.000 A 
ATOM     18  S   UNL     1      -1.885  12.339  22.933  0.00  0.00    +0.000 S 
ATOM     19  H   UNL     1       0.820  11.782  22.239  0.00  0.00    +0.000 HD
ENDBRANCH   6   9
BRANCH   1  23
ATOM     20  C   UNL     1       4.756  16.811  18.588  0.00  0.00    +0.000 C 
ATOM     21  C   UNL     1       5.532  15.532  18.891  0.00  0.00    +0.000 C 
ATOM     22  C   UNL     1       4.868  14.325  18.242  0.00  0.00    +0.000 C 
ATOM     23  C   UNL     1       3.395  14.187  18.668  0.00  0.00    +0.000 C 
ATOM     24  C   UNL     1       2.618  15.474  18.381  0.00  0.00    +0.000 C 
ATOM     25  C   UNL     1       3.296  16.684  19.021  0.00  0.00    +0.000 C 
BRANCH  20  26
ATOM     26  O   UNL     1       5.347  17.901  19.284  0.00  0.00    +0.000 OA
ATOM     27  H   UNL     1       6.208  18.082  18.869  0.00  0.00    +0.000 HD
ENDBRANCH  20  26
ENDBRANCH   1  23
BRANCH   4  28
ATOM     28  C   UNL     1       1.471   8.530  17.747  0.00  0.00    +0.000 C 
BRANCH  28  29
ATOM     29  C   UNL     1       2.546   7.538  18.133  0.00  0.00    +0.000 A 
ATOM     30  C   UNL     1       2.374   6.708  19.250  0.00  0.00    +0.000 A 
ATOM     31  C   UNL     1       3.328   5.744  19.578  0.00  0.00    +0.000 A 
ATOM     32  C   UNL     1       4.465   5.595  18.789  0.00  0.00    +0.000 A 
ATOM     33  C   UNL     1       4.658   6.420  17.682  0.00  0.00    +0.000 A 
ATOM     34  C   UNL     1       3.706   7.390  17.356  0.00  0.00    +0.000 A 
ENDBRANCH  28  29
ENDBRANCH   4  28
TORSDOF 5
ENDMDL
MODEL 7
REMARK VINA RESULT:      -7.9      3.818      8.522
REMARK  Name = 
REMARK  5 active torsions:
REMARK  status: ('A' for Active; 'I' for Inactive)
REMARK    1  A    between atoms: O_1  and  C_2
REMARK    2  A    between atoms: C_5  and  N_6
REMARK    3  A    between atoms: C_9  and  C_10
REMARK    4  A    between atoms: C_10  and  C_11
REMARK    5  A    between atoms: C_18  and  N_19
REMARK                            x       y       z     vdW  Elec       q    Type
REMARK                         _______ _______ _______ _____ _____    ______ ____
ROOT
ATOM      1  N   UNL     1       1.238  10.344  20.196  0.00  0.00    +0.000 N 
ATOM      2  C   UNL     1       0.591  11.348  19.529  0.00  0.00    +0.000 A 
ATOM      3  N   UNL     1       1.066  12.576  19.769  0.00  0.00    +0.000 NA
ATOM      4  C   UNL     1       0.526  13.589  19.063  0.00  0.00    +0.000 A 
ATOM      5  C   UNL     1      -0.533  13.395  18.216  0.00  0.00    +0.000 A 
ATOM      6  C   UNL     1      -1.065  12.125  18.145  0.00  0.00    +0.000 A 
ATOM      7  N   UNL     1      -0.454  11.082  18.727  0.00  0.00    +0.000 NA
ATOM      8  H   UNL     1       1.469  10.594  21.146  0.00  0.00    +0.000 HD
ENDROOT
BRANCH   6   9
ATOM      9  N   UNL     1      -2.284  11.879  17.484  0.00  0.00    +0.000 N 
ATOM     10  C   UNL     1      -3.489  11.885  18.116  0.00  0.00    +0.000 A 
ATOM     11  N   UNL     1      -3.674  12.259  19.367  0.00  0.00    +0.000 NA
ATOM     12  C   UNL     1      -4.986  12.109  19.743  0.00  0.00    +0.000 A 
ATOM     13  C   UNL     1      -5.535  12.374  21.003  0.00  0.00    +0.000 A 
ATOM     14  C   UNL     1      -6.898  12.151  21.169  0.00  0.00    +0.000 A 
ATOM     15  C   UNL     1      -7.636  11.691  20.085  0.00  0.00    +0.000 A 
ATOM     16  N   UNL     1      -7.151  11.422  18.848  0.00  0.00    +0.000 NA
ATOM     17  C   UNL     1      -5.825  11.644  18.742  0.00  0.00    +0.000 A 
ATOM     18  S   UNL     1      -4.930  11.360  17.315  0.00  0.00    +0.000 S 
ATOM     19  H   UNL     1      -2.147  11.219  16.726  0.00  0.00    +0.000 HD
ENDBRANCH   6   9
BRANCH   1  23
ATOM     20  C   UNL     1       2.567   6.402  19.285  0.00  0.00    +0.000 C 
ATOM     21  C   UNL     1       2.218   7.342  18.135  0.00  0.00    +0.000 C 
ATOM     22  C   UNL     1       2.159   8.788  18.610  0.00  0.00    +0.000 C 
ATOM     23  C   UNL     1       1.175   8.963  19.780  0.00  0.00    +0.000 C 
ATOM     24  C   UNL     1       1.512   8.011  20.929  0.00  0.00    +0.000 C 
ATOM     25  C   UNL     1       1.585   6.563  20.445  0.00  0.00    +0.000 C 
BRANCH  20  26
ATOM     26  O   UNL     1       2.521   5.056  18.830  0.00  0.00    +0.000 OA
ATOM     27  H   UNL     1       2.069   5.052  17.969  0.00  0.00    +0.000 HD
ENDBRANCH  20  26
ENDBRANCH   1  23
BRANCH   4  28
ATOM     28  C   UNL     1       1.066  14.987  19.272  0.00  0.00    +0.000 C 
BRANCH  28  29
ATOM     29  C   UNL     1       2.570  15.099  19.144  0.00  0.00    +0.000 A 
ATOM     30  C   UNL     1       3.368  15.230  20.289  0.00  0.00    +0.000 A 
ATOM     31  C   UNL     1       4.759  15.268  20.190  0.00  0.00    +0.000 A 
ATOM     32  C   UNL     1       5.370  15.170  18.943  0.00  0.00    +0.000 A 
ATOM     33  C   UNL     1       4.590  15.052  17.793  0.00  0.00    +0.000 A 
ATOM     34  C   UNL     1       3.197  15.021  17.890  0.00  0.00    +0.000 A 
ENDBRANCH  28  29
ENDBRANCH   4  28
TORSDOF 5
ENDMDL
MODEL 8
REMARK VINA RESULT:      -7.8      3.959      8.173
REMARK  Name = 
REMARK  5 active torsions:
REMARK  status: ('A' for Active; 'I' for Inactive)
REMARK    1  A    between atoms: O_1  and  C_2
REMARK    2  A    between atoms: C_5  and  N_6
REMARK    3  A    between atoms: C_9  and  C_10
REMARK    4  A    between atoms: C_10  and  C_11
REMARK    5  A    between atoms: C_18  and  N_19
REMARK                            x       y       z     vdW  Elec       q    Type
REMARK                         _______ _______ _______ _____ _____    ______ ____
ROOT
ATOM      1  N   UNL     1       1.228  10.207  20.437  0.00  0.00    +0.000 N 
ATOM      2  C   UNL     1       0.676  11.270  19.777  0.00  0.00    +0.000 A 
ATOM      3  N   UNL     1       1.127  12.468  20.168  0.00  0.00    +0.000 NA
ATOM      4  C   UNL     1       0.686  13.541  19.484  0.00  0.00    +0.000 A 
ATOM      5  C   UNL     1      -0.263  13.430  18.501  0.00  0.00    +0.000 A 
ATOM      6  C   UNL     1      -0.791  12.179  18.267  0.00  0.00    +0.000 A 
ATOM      7  N   UNL     1      -0.264  11.084  18.836  0.00  0.00    +0.000 NA
ATOM      8  H   UNL     1       1.343  10.380  21.425  0.00  0.00    +0.000 HD
ENDROOT
BRANCH   6   9
ATOM      9  N   UNL     1      -1.922  12.006  17.444  0.00  0.00    +0.000 N 
ATOM     10  C   UNL     1      -3.194  11.959  17.926  0.00  0.00    +0.000 A 
ATOM     11  N   UNL     1      -3.528  12.212  19.176  0.00  0.00    +0.000 NA
ATOM     12  C   UNL     1      -4.875  12.036  19.377  0.00  0.00    +0.000 A 
ATOM     13  C   UNL     1      -5.572  12.183  20.583  0.00  0.00    +0.000 A 
ATOM     14  C   UNL     1      -6.944  11.954  20.563  0.00  0.00    +0.000 A 
ATOM     15  C   UNL     1      -7.545  11.604  19.360  0.00  0.00    +0.000 A 
ATOM     16  N   UNL     1      -6.915  11.452  18.169  0.00  0.00    +0.000 NA
ATOM     17  C   UNL     1      -5.586  11.675  18.244  0.00  0.00    +0.000 A 
ATOM     18  S   UNL     1      -4.527  11.522  16.913  0.00  0.00    +0.000 S 
ATOM     19  H   UNL     1      -1.693  11.421  16.649  0.00  0.00    +0.000 HD
ENDBRANCH   6   9
BRANCH   1  23
ATOM     20  C   UNL     1       2.672   6.389  19.223  0.00  0.00    +0.000 C 
ATOM     21  C   UNL     1       2.307   7.410  18.149  0.00  0.00    +0.000 C 
ATOM     22  C   UNL     1       2.205   8.810  18.739  0.00  0.00    +0.000 C 
ATOM     23  C   UNL     1       1.207   8.864  19.910  0.00  0.00    +0.000 C 
ATOM     24  C   UNL     1       1.560   7.830  20.981  0.00  0.00    +0.000 C 
ATOM     25  C   UNL     1       1.677   6.429  20.382  0.00  0.00    +0.000 C 
BRANCH  20  26
ATOM     26  O   UNL     1       2.667   5.084  18.660  0.00  0.00    +0.000 OA
ATOM     27  H   UNL     1       3.490   4.980  18.152  0.00  0.00    +0.000 HD
ENDBRANCH  20  26
ENDBRANCH   1  23
BRANCH   4  28
ATOM     28  C   UNL     1       1.206  14.910  19.865  0.00  0.00    +0.000 C 
BRANCH  28  29
ATOM     29  C   UNL     1       0.845  16.007  18.888  0.00  0.00    +0.000 A 
ATOM     30  C   UNL     1      -0.477  16.469  18.801  0.00  0.00    +0.000 A 
ATOM     31  C   UNL     1      -0.810  17.524  17.952  0.00  0.00    +0.000 A 
ATOM     32  C   UNL     1       0.176  18.136  17.182  0.00  0.00    +0.000 A 
ATOM     33  C   UNL     1       1.492  17.682  17.248  0.00  0.00    +0.000 A 
ATOM     34  C   UNL     1       1.826  16.620  18.093  0.00  0.00    +0.000 A 
ENDBRANCH  28  29
ENDBRANCH   4  28
TORSDOF 5
ENDMDL
MODEL 9
REMARK VINA RESULT:      -7.8      3.646      8.414
REMARK  Name = 
REMARK  5 active torsions:
REMARK  status: ('A' for Active; 'I' for Inactive)
REMARK    1  A    between atoms: O_1  and  C_2
REMARK    2  A    between atoms: C_5  and  N_6
REMARK    3  A    between atoms: C_9  and  C_10
REMARK    4  A    between atoms: C_10  and  C_11
REMARK    5  A    between atoms: C_18  and  N_19
REMARK                            x       y       z     vdW  Elec       q    Type
REMARK                         _______ _______ _______ _____ _____    ______ ____
ROOT
ATOM      1  N   UNL     1       1.440   8.955  20.518  0.00  0.00    +0.000 N 
ATOM      2  C   UNL     1       0.942  10.091  19.940  0.00  0.00    +0.000 A 
ATOM      3  N   UNL     1       1.363  11.233  20.497  0.00  0.00    +0.000 NA
ATOM      4  C   UNL     1       0.977  12.380  19.904  0.00  0.00    +0.000 A 
ATOM      5  C   UNL     1       0.109  12.389  18.844  0.00  0.00    +0.000 A 
ATOM      6  C   UNL     1      -0.400  11.177  18.431  0.00  0.00    +0.000 A 
ATOM      7  N   UNL     1       0.079  10.020  18.913  0.00  0.00    +0.000 NA
ATOM      8  H   UNL     1       1.476   9.015  21.525  0.00  0.00    +0.000 HD
ENDROOT
BRANCH   6   9
ATOM      9  N   UNL     1      -1.464  11.107  17.508  0.00  0.00    +0.000 N 
ATOM     10  C   UNL     1      -2.755  11.382  17.837  0.00  0.00    +0.000 A 
ATOM     11  N   UNL     1      -3.140  11.879  18.996  0.00  0.00    +0.000 NA
ATOM     12  C   UNL     1      -4.506  12.002  19.056  0.00  0.00    +0.000 A 
ATOM     13  C   UNL     1      -5.263  12.459  20.141  0.00  0.00    +0.000 A 
ATOM     14  C   UNL     1      -6.645  12.503  19.987  0.00  0.00    +0.000 A 
ATOM     15  C   UNL     1      -7.195  12.102  18.776  0.00  0.00    +0.000 A 
ATOM     16  N   UNL     1      -6.506  11.654  17.698  0.00  0.00    +0.000 NA
ATOM     17  C   UNL     1      -5.172  11.621  17.901  0.00  0.00    +0.000 A 
ATOM     18  S   UNL     1      -4.052  11.068  16.737  0.00  0.00    +0.000 S 
ATOM     19  H   UNL     1      -1.291  10.376  16.827  0.00  0.00    +0.000 HD
ENDBRANCH   6   9
BRANCH   1  23
ATOM     20  C   UNL     1       2.955   5.255  19.052  0.00  0.00    +0.000 C 
ATOM     21  C   UNL     1       2.731   6.398  18.065  0.00  0.00    +0.000 C 
ATOM     22  C   UNL     1       2.583   7.727  18.794  0.00  0.00    +0.000 C 
ATOM     23  C   UNL     1       1.458   7.679  19.843  0.00  0.00    +0.000 C 
ATOM     24  C   UNL     1       1.670   6.524  20.825  0.00  0.00    +0.000 C 
ATOM     25  C   UNL     1       1.833   5.195  20.088  0.00  0.00    +0.000 C 
BRANCH  20  26
ATOM     26  O   UNL     1       2.994   4.021  18.348  0.00  0.00    +0.000 OA
ATOM     27  H   UNL     1       3.162   3.317  18.998  0.00  0.00    +0.000 HD
ENDBRANCH  20  26
ENDBRANCH   1  23
BRANCH   4  28
ATOM     28  C   UNL     1       1.467  13.693  20.475  0.00  0.00    +0.000 C 
BRANCH  28  29
ATOM     29  C   UNL     1       2.142  14.597  19.467  0.00  0.00    +0.000 A 
ATOM     30  C   UNL     1       3.303  14.173  18.803  0.00  0.00    +0.000 A 
ATOM     31  C   UNL     1       3.897  14.970  17.825  0.00  0.00    +0.000 A 
ATOM     32  C   UNL     1       3.334  16.199  17.492  0.00  0.00    +0.000 A 
ATOM     33  C   UNL     1       2.187  16.640  18.150  0.00  0.00    +0.000 A 
ATOM     34  C   UNL     1       1.595  15.846  19.136  0.00  0.00    +0.000 A 
ENDBRANCH  28  29
ENDBRANCH   4  28
TORSDOF 5
ENDMDL
