MODEL 1
REMARK VINA RESULT:      -7.3      0.000      0.000
REMARK  Name = 
REMARK  11 active torsions:
REMARK  status: ('A' for Active; 'I' for Inactive)
REMARK    1  A    between atoms: C_1  and  C_2
REMARK    2  A    between atoms: C_2  and  C_3
REMARK    3  A    between atoms: C_3  and  N_4
REMARK    4  A    between atoms: C_8  and  S_9
REMARK    5  A    between atoms: S_9  and  C_10
REMARK    6  A    between atoms: C_10  and  C_11
REMARK    7  A    between atoms: C_10  and  C_12
REMARK    8  A    between atoms: N_14  and  C_15
REMARK    9  A    between atoms: C_16  and  C_17
REMARK   10  A    between atoms: N_18  and  C_19
REMARK   11  A    between atoms: N_20  and  C_21
REMARK                            x       y       z     vdW  Elec       q    Type
REMARK                         _______ _______ _______ _____ _____    ______ ____
ROOT
ATOM      1  C   UNL     1       1.375   8.852  19.134  0.00  0.00    +0.000 C 
ATOM      2  O   UNL     1       1.152   8.781  17.925  0.00  0.00    +0.000 OA
ATOM      3  N   UNL     1       2.035   7.871  19.841  0.00  0.00    +0.000 N 
ATOM      4  H   UNL     1       1.862   7.835  20.847  0.00  0.00    +0.000 HD
ENDROOT
BRANCH   3   5
ATOM      5  C   UNL     1       2.546   6.738  19.280  0.00  0.00    +0.000 A 
ATOM      6  C   UNL     1       2.350   5.432  19.534  0.00  0.00    +0.000 A 
ATOM      7  C   UNL     1       1.401   4.820  20.513  0.00  0.00    +0.000 C 
ATOM      8  N   UNL     1       3.082   4.647  18.652  0.00  0.00    +0.000 N 
ATOM      9  C   UNL     1       3.267   3.212  18.641  0.00  0.00    +0.000 C 
ATOM     10  N   UNL     1       3.721   5.490  17.715  0.00  0.00    +0.000 N 
ATOM     11  C   UNL     1       3.557   6.801  18.177  0.00  0.00    +0.000 A 
ATOM     12  O   UNL     1       4.111   7.833  17.828  0.00  0.00    +0.000 OA
BRANCH  10  13
ATOM     13  C   UNL     1       4.878   5.042  17.053  0.00  0.00    +0.000 A 
ATOM     14  C   UNL     1       6.136   5.044  17.663  0.00  0.00    +0.000 A 
ATOM     15  C   UNL     1       7.245   4.566  16.951  0.00  0.00    +0.000 A 
ATOM     16  C   UNL     1       7.096   4.119  15.638  0.00  0.00    +0.000 A 
ATOM     17  C   UNL     1       5.841   4.134  15.030  0.00  0.00    +0.000 A 
ATOM     18  C   UNL     1       4.732   4.588  15.743  0.00  0.00    +0.000 A 
ENDBRANCH  10  13
ENDBRANCH   3   5
BRANCH   1  19
ATOM     19  C   UNL     1       0.893  10.026  19.991  0.00  0.00    +0.000 C 
ATOM     20  C   UNL     1      -0.432   9.648  20.659  0.00  0.00    +0.000 C 
BRANCH  19  21
ATOM     21  S   UNL     1       0.612  11.482  18.918  0.00  0.00    +0.000 S 
BRANCH  21  26
ATOM     22  N   UNL     1      -2.010  11.148  18.195  0.00  0.00    +0.000 N 
ATOM     23  C   UNL     1      -3.261  11.549  18.610  0.00  0.00    +0.000 A 
ATOM     24  C   UNL     1      -3.035  12.409  19.658  0.00  0.00    +0.000 A 
ATOM     25  N   UNL     1      -1.694  12.532  19.913  0.00  0.00    +0.000 NA
ATOM     26  C   UNL     1      -1.106  11.741  19.030  0.00  0.00    +0.000 A 
BRANCH  22  27
ATOM     27  C   UNL     1      -1.778  10.273  17.063  0.00  0.00    +0.000 C 
BRANCH  27  29
ATOM     28  C   UNL     1      -3.094  10.242  14.882  0.00  0.00    +0.000 C 
ATOM     29  C   UNL     1      -3.065   9.849  16.352  0.00  0.00    +0.000 C 
ENDBRANCH  27  29
ENDBRANCH  22  27
ENDBRANCH  21  26
ENDBRANCH  19  21
ENDBRANCH   1  19
TORSDOF 7
ENDMDL
MODEL 2
REMARK VINA RESULT:      -7.2      2.595      8.438
REMARK  Name = 
REMARK  11 active torsions:
REMARK  status: ('A' for Active; 'I' for Inactive)
REMARK    1  A    between atoms: C_1  and  C_2
REMARK    2  A    between atoms: C_2  and  C_3
REMARK    3  A    between atoms: C_3  and  N_4
REMARK    4  A    between atoms: C_8  and  S_9
REMARK    5  A    between atoms: S_9  and  C_10
REMARK    6  A    between atoms: C_10  and  C_11
REMARK    7  A    between atoms: C_10  and  C_12
REMARK    8  A    between atoms: N_14  and  C_15
REMARK    9  A    between atoms: C_16  and  C_17
REMARK   10  A    between atoms: N_18  and  C_19
REMARK   11  A    between atoms: N_20  and  C_21
REMARK                            x       y       z     vdW  Elec       q    Type
REMARK                         _______ _______ _______ _____ _____    ______ ____
ROOT
ATOM      1  C   UNL     1       2.376   4.850  18.116  0.00  0.00    +0.000 C 
ATOM      2  O   UNL     1       1.222   4.573  18.444  0.00  0.00    +0.000 OA
ATOM      3  N   UNL     1       2.948   6.085  18.327  0.00  0.00    +0.000 N 
ATOM      4  H   UNL     1       3.734   6.336  17.726  0.00  0.00    +0.000 HD
ENDROOT
BRANCH   3   5
ATOM      5  C   UNL     1       2.319   7.121  18.955  0.00  0.00    +0.000 A 
ATOM      6  C   UNL     1       1.761   7.238  20.173  0.00  0.00    +0.000 A 
ATOM      7  C   UNL     1       1.741   6.229  21.274  0.00  0.00    +0.000 C 
ATOM      8  N   UNL     1       1.274   8.525  20.364  0.00  0.00    +0.000 N 
ATOM      9  C   UNL     1       0.495   9.055  21.462  0.00  0.00    +0.000 C 
ATOM     10  N   UNL     1       1.613   9.313  19.242  0.00  0.00    +0.000 N 
ATOM     11  C   UNL     1       2.106   8.434  18.269  0.00  0.00    +0.000 A 
ATOM     12  O   UNL     1       2.316   8.616  17.078  0.00  0.00    +0.000 OA
BRANCH  10  13
ATOM     13  C   UNL     1       0.850  10.454  18.937  0.00  0.00    +0.000 A 
ATOM     14  C   UNL     1       1.352  11.751  19.086  0.00  0.00    +0.000 A 
ATOM     15  C   UNL     1       0.542  12.843  18.745  0.00  0.00    +0.000 A 
ATOM     16  C   UNL     1      -0.760  12.636  18.287  0.00  0.00    +0.000 A 
ATOM     17  C   UNL     1      -1.259  11.340  18.155  0.00  0.00    +0.000 A 
ATOM     18  C   UNL     1      -0.449  10.251  18.473  0.00  0.00    +0.000 A 
ENDBRANCH  10  13
ENDBRANCH   3   5
BRANCH   1  19
ATOM     19  C   UNL     1       3.284   3.856  17.386  0.00  0.00    +0.000 C 
ATOM     20  C   UNL     1       2.790   2.432  17.660  0.00  0.00    +0.000 C 
BRANCH  19  21
ATOM     21  S   UNL     1       4.991   4.015  18.026  0.00  0.00    +0.000 S 
BRANCH  21  26
ATOM     22  N   UNL     1       6.948   5.261  16.564  0.00  0.00    +0.000 N 
ATOM     23  C   UNL     1       7.477   5.223  15.293  0.00  0.00    +0.000 A 
ATOM     24  C   UNL     1       6.707   4.314  14.608  0.00  0.00    +0.000 A 
ATOM     25  N   UNL     1       5.740   3.779  15.419  0.00  0.00    +0.000 NA
ATOM     26  C   UNL     1       5.928   4.353  16.597  0.00  0.00    +0.000 A 
BRANCH  22  27
ATOM     27  C   UNL     1       7.427   6.140  17.612  0.00  0.00    +0.000 C 
BRANCH  27  29
ATOM     28  C   UNL     1       8.219   8.509  18.117  0.00  0.00    +0.000 C 
ATOM     29  C   UNL     1       7.341   7.623  17.244  0.00  0.00    +0.000 C 
ENDBRANCH  27  29
ENDBRANCH  22  27
ENDBRANCH  21  26
ENDBRANCH  19  21
ENDBRANCH   1  19
TORSDOF 7
ENDMDL
MODEL 3
REMARK VINA RESULT:      -7.2      2.604      8.215
REMARK  Name = 
REMARK  11 active torsions:
REMARK  status: ('A' for Active; 'I' for Inactive)
REMARK    1  A    between atoms: C_1  and  C_2
REMARK    2  A    between atoms: C_2  and  C_3
REMARK    3  A    between atoms: C_3  and  N_4
REMARK    4  A    between atoms: C_8  and  S_9
REMARK    5  A    between atoms: S_9  and  C_10
REMARK    6  A    between atoms: C_10  and  C_11
REMARK    7  A    between atoms: C_10  and  C_12
REMARK    8  A    between atoms: N_14  and  C_15
REMARK    9  A    between atoms: C_16  and  C_17
REMARK   10  A    between atoms: N_18  and  C_19
REMARK   11  A    between atoms: N_20  and  C_21
REMARK                            x       y       z     vdW  Elec       q    Type
REMARK                         _______ _______ _______ _____ _____    ______ ____
ROOT
ATOM      1  C   UNL     1       2.455   4.967  17.992  0.00  0.00    +0.000 C 
ATOM      2  O   UNL     1       1.257   4.715  18.127  0.00  0.00    +0.000 OA
ATOM      3  N   UNL     1       3.025   6.162  18.373  0.00  0.00    +0.000 N 
ATOM      4  H   UNL     1       3.899   6.420  17.913  0.00  0.00    +0.000 HD
ENDROOT
BRANCH   3   5
ATOM      5  C   UNL     1       2.340   7.178  18.972  0.00  0.00    +0.000 A 
ATOM      6  C   UNL     1       1.730   7.280  20.167  0.00  0.00    +0.000 A 
ATOM      7  C   UNL     1       1.696   6.271  21.268  0.00  0.00    +0.000 C 
ATOM      8  N   UNL     1       1.197   8.551  20.336  0.00  0.00    +0.000 N 
ATOM      9  C   UNL     1       0.359   9.058  21.401  0.00  0.00    +0.000 C 
ATOM     10  N   UNL     1       1.557   9.348  19.226  0.00  0.00    +0.000 N 
ATOM     11  C   UNL     1       2.115   8.484  18.276  0.00  0.00    +0.000 A 
ATOM     12  O   UNL     1       2.367   8.672  17.094  0.00  0.00    +0.000 OA
BRANCH  10  13
ATOM     13  C   UNL     1       0.773  10.466  18.889  0.00  0.00    +0.000 A 
ATOM     14  C   UNL     1      -0.536  10.345  18.414  0.00  0.00    +0.000 A 
ATOM     15  C   UNL     1      -1.267  11.503  18.115  0.00  0.00    +0.000 A 
ATOM     16  C   UNL     1      -0.683  12.761  18.264  0.00  0.00    +0.000 A 
ATOM     17  C   UNL     1       0.630  12.873  18.723  0.00  0.00    +0.000 A 
ATOM     18  C   UNL     1       1.352  11.725  19.043  0.00  0.00    +0.000 A 
ENDBRANCH  10  13
ENDBRANCH   3   5
BRANCH   1  19
ATOM     19  C   UNL     1       3.432   3.987  17.336  0.00  0.00    +0.000 C 
ATOM     20  C   UNL     1       2.726   2.646  17.119  0.00  0.00    +0.000 C 
BRANCH  19  21
ATOM     21  S   UNL     1       4.861   3.723  18.450  0.00  0.00    +0.000 S 
BRANCH  21  26
ATOM     22  N   UNL     1       6.612   4.941  16.728  0.00  0.00    +0.000 N 
ATOM     23  C   UNL     1       7.395   6.073  16.673  0.00  0.00    +0.000 A 
ATOM     24  C   UNL     1       7.240   6.680  17.896  0.00  0.00    +0.000 A 
ATOM     25  N   UNL     1       6.374   5.973  18.689  0.00  0.00    +0.000 NA
ATOM     26  C   UNL     1       5.996   4.943  17.947  0.00  0.00    +0.000 A 
BRANCH  22  27
ATOM     27  C   UNL     1       6.525   3.967  15.658  0.00  0.00    +0.000 C 
BRANCH  27  29
ATOM     28  C   UNL     1       6.061   3.690  13.168  0.00  0.00    +0.000 C 
ATOM     29  C   UNL     1       5.761   4.478  14.435  0.00  0.00    +0.000 C 
ENDBRANCH  27  29
ENDBRANCH  22  27
ENDBRANCH  21  26
ENDBRANCH  19  21
ENDBRANCH   1  19
TORSDOF 7
ENDMDL
MODEL 4
REMARK VINA RESULT:      -7.2      2.590      8.267
REMARK  Name = 
REMARK  11 active torsions:
REMARK  status: ('A' for Active; 'I' for Inactive)
REMARK    1  A    between atoms: C_1  and  C_2
REMARK    2  A    between atoms: C_2  and  C_3
REMARK    3  A    between atoms: C_3  and  N_4
REMARK    4  A    between atoms: C_8  and  S_9
REMARK    5  A    between atoms: S_9  and  C_10
REMARK    6  A    between atoms: C_10  and  C_11
REMARK    7  A    between atoms: C_10  and  C_12
REMARK    8  A    between atoms: N_14  and  C_15
REMARK    9  A    between atoms: C_16  and  C_17
REMARK   10  A    between atoms: N_18  and  C_19
REMARK   11  A    between atoms: N_20  and  C_21
REMARK                            x       y       z     vdW  Elec       q    Type
REMARK                         _______ _______ _______ _____ _____    ______ ____
ROOT
ATOM      1  C   UNL     1       2.486   5.143  18.127  0.00  0.00    +0.000 C 
ATOM      2  O   UNL     1       1.309   4.837  18.317  0.00  0.00    +0.000 OA
ATOM      3  N   UNL     1       3.005   6.382  18.433  0.00  0.00    +0.000 N 
ATOM      4  H   UNL     1       3.848   6.663  17.930  0.00  0.00    +0.000 HD
ENDROOT
BRANCH   3   5
ATOM      5  C   UNL     1       2.290   7.388  19.013  0.00  0.00    +0.000 A 
ATOM      6  C   UNL     1       1.652   7.483  20.193  0.00  0.00    +0.000 A 
ATOM      7  C   UNL     1       1.610   6.478  21.297  0.00  0.00    +0.000 C 
ATOM      8  N   UNL     1       1.093   8.746  20.345  0.00  0.00    +0.000 N 
ATOM      9  C   UNL     1       0.222   9.242  21.389  0.00  0.00    +0.000 C 
ATOM     10  N   UNL     1       1.464   9.545  19.241  0.00  0.00    +0.000 N 
ATOM     11  C   UNL     1       2.058   8.687  18.307  0.00  0.00    +0.000 A 
ATOM     12  O   UNL     1       2.334   8.875  17.130  0.00  0.00    +0.000 OA
BRANCH  10  13
ATOM     13  C   UNL     1       0.669  10.648  18.881  0.00  0.00    +0.000 A 
ATOM     14  C   UNL     1       1.113  11.966  19.016  0.00  0.00    +0.000 A 
ATOM     15  C   UNL     1       0.274  13.017  18.619  0.00  0.00    +0.000 A 
ATOM     16  C   UNL     1      -1.001  12.748  18.122  0.00  0.00    +0.000 A 
ATOM     17  C   UNL     1      -1.444  11.430  18.005  0.00  0.00    +0.000 A 
ATOM     18  C   UNL     1      -0.604  10.382  18.377  0.00  0.00    +0.000 A 
ENDBRANCH  10  13
ENDBRANCH   3   5
BRANCH   1  19
ATOM     19  C   UNL     1       3.489   4.186  17.477  0.00  0.00    +0.000 C 
ATOM     20  C   UNL     1       2.729   3.022  16.835  0.00  0.00    +0.000 C 
BRANCH  19  21
ATOM     21  S   UNL     1       4.604   3.515  18.765  0.00  0.00    +0.000 S 
BRANCH  21  26
ATOM     22  N   UNL     1       6.752   4.717  17.558  0.00  0.00    +0.000 N 
ATOM     23  C   UNL     1       7.723   5.647  17.854  0.00  0.00    +0.000 A 
ATOM     24  C   UNL     1       7.521   5.972  19.174  0.00  0.00    +0.000 A 
ATOM     25  N   UNL     1       6.448   5.292  19.689  0.00  0.00    +0.000 NA
ATOM     26  C   UNL     1       5.993   4.562  18.683  0.00  0.00    +0.000 A 
BRANCH  22  27
ATOM     27  C   UNL     1       6.633   4.056  16.273  0.00  0.00    +0.000 C 
BRANCH  27  29
ATOM     28  C   UNL     1       5.553   4.271  13.975  0.00  0.00    +0.000 C 
ATOM     29  C   UNL     1       6.200   4.997  15.147  0.00  0.00    +0.000 C 
ENDBRANCH  27  29
ENDBRANCH  22  27
ENDBRANCH  21  26
ENDBRANCH  19  21
ENDBRANCH   1  19
TORSDOF 7
ENDMDL
MODEL 5
REMARK VINA RESULT:      -7.0      2.818      9.339
REMARK  Name = 
REMARK  11 active torsions:
REMARK  status: ('A' for Active; 'I' for Inactive)
REMARK    1  A    between atoms: C_1  and  C_2
REMARK    2  A    between atoms: C_2  and  C_3
REMARK    3  A    between atoms: C_3  and  N_4
REMARK    4  A    between atoms: C_8  and  S_9
REMARK    5  A    between atoms: S_9  and  C_10
REMARK    6  A    between atoms: C_10  and  C_11
REMARK    7  A    between atoms: C_10  and  C_12
REMARK    8  A    between atoms: N_14  and  C_15
REMARK    9  A    between atoms: C_16  and  C_17
REMARK   10  A    between atoms: N_18  and  C_19
REMARK   11  A    between atoms: N_20  and  C_21
REMARK                            x       y       z     vdW  Elec       q    Type
REMARK                         _______ _______ _______ _____ _____    ______ ____
ROOT
ATOM      1  C   UNL     1       1.401   8.519  19.983  0.00  0.00    +0.000 C 
ATOM      2  O   UNL     1       0.858   8.141  21.021  0.00  0.00    +0.000 OA
ATOM      3  N   UNL     1       1.064   9.686  19.333  0.00  0.00    +0.000 N 
ATOM      4  H   UNL     1       1.287   9.738  18.338  0.00  0.00    +0.000 HD
ENDROOT
BRANCH   3   5
ATOM      5  C   UNL     1       0.127  10.569  19.785  0.00  0.00    +0.000 A 
ATOM      6  C   UNL     1      -1.113  10.871  19.360  0.00  0.00    +0.000 A 
ATOM      7  C   UNL     1      -1.884  10.232  18.252  0.00  0.00    +0.000 C 
ATOM      8  N   UNL     1      -1.693  11.825  20.187  0.00  0.00    +0.000 N 
ATOM      9  C   UNL     1      -2.950  12.525  20.035  0.00  0.00    +0.000 C 
ATOM     10  N   UNL     1      -0.815  12.092  21.261  0.00  0.00    +0.000 N 
ATOM     11  C   UNL     1       0.398  11.465  20.953  0.00  0.00    +0.000 A 
ATOM     12  O   UNL     1       1.502  11.593  21.463  0.00  0.00    +0.000 OA
BRANCH  10  13
ATOM     13  C   UNL     1      -0.900  13.320  21.940  0.00  0.00    +0.000 A 
ATOM     14  C   UNL     1      -0.496  14.526  21.358  0.00  0.00    +0.000 A 
ATOM     15  C   UNL     1      -0.627  15.716  22.085  0.00  0.00    +0.000 A 
ATOM     16  C   UNL     1      -1.129  15.693  23.387  0.00  0.00    +0.000 A 
ATOM     17  C   UNL     1      -1.515  14.484  23.967  0.00  0.00    +0.000 A 
ATOM     18  C   UNL     1      -1.408  13.301  23.239  0.00  0.00    +0.000 A 
ENDBRANCH  10  13
ENDBRANCH   3   5
BRANCH   1  19
ATOM     19  C   UNL     1       2.480   7.696  19.273  0.00  0.00    +0.000 C 
ATOM     20  C   UNL     1       2.274   7.798  17.759  0.00  0.00    +0.000 C 
BRANCH  19  21
ATOM     21  S   UNL     1       2.324   5.940  19.768  0.00  0.00    +0.000 S 
BRANCH  21  26
ATOM     22  N   UNL     1       3.615   4.263  18.026  0.00  0.00    +0.000 N 
ATOM     23  C   UNL     1       4.903   3.931  17.667  0.00  0.00    +0.000 A 
ATOM     24  C   UNL     1       5.712   4.650  18.515  0.00  0.00    +0.000 A 
ATOM     25  N   UNL     1       4.966   5.425  19.365  0.00  0.00    +0.000 NA
ATOM     26  C   UNL     1       3.708   5.187  19.028  0.00  0.00    +0.000 A 
BRANCH  22  27
ATOM     27  C   UNL     1       2.434   3.684  17.420  0.00  0.00    +0.000 C 
BRANCH  27  29
ATOM     28  C   UNL     1       0.825   2.370  18.896  0.00  0.00    +0.000 C 
ATOM     29  C   UNL     1       2.059   2.321  18.006  0.00  0.00    +0.000 C 
ENDBRANCH  27  29
ENDBRANCH  22  27
ENDBRANCH  21  26
ENDBRANCH  19  21
ENDBRANCH   1  19
TORSDOF 7
ENDMDL
MODEL 6
REMARK VINA RESULT:      -7.0      1.144      1.439
REMARK  Name = 
REMARK  11 active torsions:
REMARK  status: ('A' for Active; 'I' for Inactive)
REMARK    1  A    between atoms: C_1  and  C_2
REMARK    2  A    between atoms: C_2  and  C_3
REMARK    3  A    between atoms: C_3  and  N_4
REMARK    4  A    between atoms: C_8  and  S_9
REMARK    5  A    between atoms: S_9  and  C_10
REMARK    6  A    between atoms: C_10  and  C_11
REMARK    7  A    between atoms: C_10  and  C_12
REMARK    8  A    between atoms: N_14  and  C_15
REMARK    9  A    between atoms: C_16  and  C_17
REMARK   10  A    between atoms: N_18  and  C_19
REMARK   11  A    between atoms: N_20  and  C_21
REMARK                            x       y       z     vdW  Elec       q    Type
REMARK                         _______ _______ _______ _____ _____    ______ ____
ROOT
ATOM      1  C   UNL     1       1.554   8.473  19.552  0.00  0.00    +0.000 C 
ATOM      2  O   UNL     1       1.296   8.622  18.358  0.00  0.00    +0.000 OA
ATOM      3  N   UNL     1       2.199   7.365  20.055  0.00  0.00    +0.000 N 
ATOM      4  H   UNL     1       2.052   7.157  21.044  0.00  0.00    +0.000 HD
ENDROOT
BRANCH   3   5
ATOM      5  C   UNL     1       2.657   6.334  19.288  0.00  0.00    +0.000 A 
ATOM      6  C   UNL     1       2.404   5.013  19.300  0.00  0.00    +0.000 A 
ATOM      7  C   UNL     1       1.434   4.272  20.160  0.00  0.00    +0.000 C 
ATOM      8  N   UNL     1       3.097   4.374  18.279  0.00  0.00    +0.000 N 
ATOM      9  C   UNL     1       3.219   2.960  18.000  0.00  0.00    +0.000 C 
ATOM     10  N   UNL     1       3.769   5.348  17.505  0.00  0.00    +0.000 N 
ATOM     11  C   UNL     1       3.665   6.557  18.204  0.00  0.00    +0.000 A 
ATOM     12  O   UNL     1       4.262   7.611  18.043  0.00  0.00    +0.000 OA
BRANCH  10  13
ATOM     13  C   UNL     1       4.902   4.981  16.758  0.00  0.00    +0.000 A 
ATOM     14  C   UNL     1       6.170   4.858  17.334  0.00  0.00    +0.000 A 
ATOM     15  C   UNL     1       7.253   4.470  16.533  0.00  0.00    +0.000 A 
ATOM     16  C   UNL     1       7.070   4.237  15.170  0.00  0.00    +0.000 A 
ATOM     17  C   UNL     1       5.805   4.377  14.598  0.00  0.00    +0.000 A 
ATOM     18  C   UNL     1       4.722   4.741  15.396  0.00  0.00    +0.000 A 
ENDBRANCH  10  13
ENDBRANCH   3   5
BRANCH   1  19
ATOM     19  C   UNL     1       1.134   9.490  20.617  0.00  0.00    +0.000 C 
ATOM     20  C   UNL     1       1.084   8.797  21.981  0.00  0.00    +0.000 C 
BRANCH  19  21
ATOM     21  S   UNL     1      -0.538  10.123  20.221  0.00  0.00    +0.000 S 
BRANCH  21  26
ATOM     22  N   UNL     1      -1.090  12.204  18.524  0.00  0.00    +0.000 N 
ATOM     23  C   UNL     1      -0.521  13.391  18.117  0.00  0.00    +0.000 A 
ATOM     24  C   UNL     1       0.700  13.441  18.746  0.00  0.00    +0.000 A 
ATOM     25  N   UNL     1       0.890  12.339  19.540  0.00  0.00    +0.000 NA
ATOM     26  C   UNL     1      -0.217  11.626  19.402  0.00  0.00    +0.000 A 
BRANCH  22  27
ATOM     27  C   UNL     1      -2.371  11.720  18.051  0.00  0.00    +0.000 C 
BRANCH  27  29
ATOM     28  C   UNL     1      -3.556  10.603  16.091  0.00  0.00    +0.000 C 
ATOM     29  C   UNL     1      -2.254  10.761  16.864  0.00  0.00    +0.000 C 
ENDBRANCH  27  29
ENDBRANCH  22  27
ENDBRANCH  21  26
ENDBRANCH  19  21
ENDBRANCH   1  19
TORSDOF 7
ENDMDL
MODEL 7
REMARK VINA RESULT:      -7.0      2.737      9.335
REMARK  Name = 
REMARK  11 active torsions:
REMARK  status: ('A' for Active; 'I' for Inactive)
REMARK    1  A    between atoms: C_1  and  C_2
REMARK    2  A    between atoms: C_2  and  C_3
REMARK    3  A    between atoms: C_3  and  N_4
REMARK    4  A    between atoms: C_8  and  S_9
REMARK    5  A    between atoms: S_9  and  C_10
REMARK    6  A    between atoms: C_10  and  C_11
REMARK    7  A    between atoms: C_10  and  C_12
REMARK    8  A    between atoms: N_14  and  C_15
REMARK    9  A    between atoms: C_16  and  C_17
REMARK   10  A    between atoms: N_18  and  C_19
REMARK   11  A    between atoms: N_20  and  C_21
REMARK                            x       y       z     vdW  Elec       q    Type
REMARK                         _______ _______ _______ _____ _____    ______ ____
ROOT
ATOM      1  C   UNL     1       1.402   8.271  20.032  0.00  0.00    +0.000 C 
ATOM      2  O   UNL     1       0.744   7.809  20.965  0.00  0.00    +0.000 OA
ATOM      3  N   UNL     1       1.117   9.477  19.429  0.00  0.00    +0.000 N 
ATOM      4  H   UNL     1       1.460   9.606  18.477  0.00  0.00    +0.000 HD
ENDROOT
BRANCH   3   5
ATOM      5  C   UNL     1       0.107  10.306  19.820  0.00  0.00    +0.000 A 
ATOM      6  C   UNL     1      -0.999  10.745  19.194  0.00  0.00    +0.000 A 
ATOM      7  C   UNL     1      -1.500  10.363  17.839  0.00  0.00    +0.000 C 
ATOM      8  N   UNL     1      -1.748  11.557  20.037  0.00  0.00    +0.000 N 
ATOM      9  C   UNL     1      -2.931  12.337  19.745  0.00  0.00    +0.000 C 
ATOM     10  N   UNL     1      -1.139  11.575  21.312  0.00  0.00    +0.000 N 
ATOM     11  C   UNL     1       0.108  10.955  21.169  0.00  0.00    +0.000 A 
ATOM     12  O   UNL     1       1.066  10.930  21.929  0.00  0.00    +0.000 OA
BRANCH  10  13
ATOM     13  C   UNL     1      -1.369  12.659  22.178  0.00  0.00    +0.000 A 
ATOM     14  C   UNL     1      -2.389  12.649  23.134  0.00  0.00    +0.000 A 
ATOM     15  C   UNL     1      -2.549  13.757  23.978  0.00  0.00    +0.000 A 
ATOM     16  C   UNL     1      -1.716  14.868  23.843  0.00  0.00    +0.000 A 
ATOM     17  C   UNL     1      -0.711  14.878  22.876  0.00  0.00    +0.000 A 
ATOM     18  C   UNL     1      -0.534  13.769  22.051  0.00  0.00    +0.000 A 
ENDBRANCH  10  13
ENDBRANCH   3   5
BRANCH   1  19
ATOM     19  C   UNL     1       2.583   7.522  19.409  0.00  0.00    +0.000 C 
ATOM     20  C   UNL     1       2.527   7.677  17.886  0.00  0.00    +0.000 C 
BRANCH  19  21
ATOM     21  S   UNL     1       2.456   5.743  19.821  0.00  0.00    +0.000 S 
BRANCH  21  26
ATOM     22  N   UNL     1       3.720   4.170  17.966  0.00  0.00    +0.000 N 
ATOM     23  C   UNL     1       5.002   3.869  17.561  0.00  0.00    +0.000 A 
ATOM     24  C   UNL     1       5.824   4.550  18.427  0.00  0.00    +0.000 A 
ATOM     25  N   UNL     1       5.092   5.274  19.332  0.00  0.00    +0.000 NA
ATOM     26  C   UNL     1       3.828   5.042  19.012  0.00  0.00    +0.000 A 
BRANCH  22  27
ATOM     27  C   UNL     1       2.529   3.612  17.357  0.00  0.00    +0.000 C 
BRANCH  27  29
ATOM     28  C   UNL     1       0.897   2.358  18.858  0.00  0.00    +0.000 C 
ATOM     29  C   UNL     1       2.119   2.265  17.954  0.00  0.00    +0.000 C 
ENDBRANCH  27  29
ENDBRANCH  22  27
ENDBRANCH  21  26
ENDBRANCH  19  21
ENDBRANCH   1  19
TORSDOF 7
ENDMDL
MODEL 8
REMARK VINA RESULT:      -6.9      3.040      9.627
REMARK  Name = 
REMARK  11 active torsions:
REMARK  status: ('A' for Active; 'I' for Inactive)
REMARK    1  A    between atoms: C_1  and  C_2
REMARK    2  A    between atoms: C_2  and  C_3
REMARK    3  A    between atoms: C_3  and  N_4
REMARK    4  A    between atoms: C_8  and  S_9
REMARK    5  A    between atoms: S_9  and  C_10
REMARK    6  A    between atoms: C_10  and  C_11
REMARK    7  A    between atoms: C_10  and  C_12
REMARK    8  A    between atoms: N_14  and  C_15
REMARK    9  A    between atoms: C_16  and  C_17
REMARK   10  A    between atoms: N_18  and  C_19
REMARK   11  A    between atoms: N_20  and  C_21
REMARK                            x       y       z     vdW  Elec       q    Type
REMARK                         _______ _______ _______ _____ _____    ______ ____
ROOT
ATOM      1  C   UNL     1       0.798   8.563  20.592  0.00  0.00    +0.000 C 
ATOM      2  O   UNL     1      -0.086   7.989  21.228  0.00  0.00    +0.000 OA
ATOM      3  N   UNL     1       0.731   9.890  20.228  0.00  0.00    +0.000 N 
ATOM      4  H   UNL     1       1.297  10.176  19.428  0.00  0.00    +0.000 HD
ENDROOT
BRANCH   3   5
ATOM      5  C   UNL     1      -0.297  10.722  20.565  0.00  0.00    +0.000 A 
ATOM      6  C   UNL     1      -1.220  11.366  19.829  0.00  0.00    +0.000 A 
ATOM      7  C   UNL     1      -1.437  11.284  18.353  0.00  0.00    +0.000 C 
ATOM      8  N   UNL     1      -2.090  12.075  20.648  0.00  0.00    +0.000 N 
ATOM      9  C   UNL     1      -3.142  12.999  20.284  0.00  0.00    +0.000 C 
ATOM     10  N   UNL     1      -1.767  11.805  21.997  0.00  0.00    +0.000 N 
ATOM     11  C   UNL     1      -0.551  11.111  21.988  0.00  0.00    +0.000 A 
ATOM     12  O   UNL     1       0.220  10.862  22.904  0.00  0.00    +0.000 OA
BRANCH  10  13
ATOM     13  C   UNL     1      -2.122  12.729  22.995  0.00  0.00    +0.000 A 
ATOM     14  C   UNL     1      -1.316  13.824  23.322  0.00  0.00    +0.000 A 
ATOM     15  C   UNL     1      -1.741  14.717  24.315  0.00  0.00    +0.000 A 
ATOM     16  C   UNL     1      -2.944  14.498  24.988  0.00  0.00    +0.000 A 
ATOM     17  C   UNL     1      -3.736  13.396  24.668  0.00  0.00    +0.000 A 
ATOM     18  C   UNL     1      -3.327  12.518  23.665  0.00  0.00    +0.000 A 
ENDBRANCH  10  13
ENDBRANCH   3   5
BRANCH   1  19
ATOM     19  C   UNL     1       2.051   7.839  20.090  0.00  0.00    +0.000 C 
ATOM     20  C   UNL     1       2.181   8.050  18.579  0.00  0.00    +0.000 C 
BRANCH  19  21
ATOM     21  S   UNL     1       1.884   6.045  20.417  0.00  0.00    +0.000 S 
BRANCH  21  26
ATOM     22  N   UNL     1       2.844   4.534  18.341  0.00  0.00    +0.000 N 
ATOM     23  C   UNL     1       4.054   4.202  17.771  0.00  0.00    +0.000 A 
ATOM     24  C   UNL     1       5.004   4.792  18.570  0.00  0.00    +0.000 A 
ATOM     25  N   UNL     1       4.420   5.491  19.594  0.00  0.00    +0.000 NA
ATOM     26  C   UNL     1       3.117   5.335  19.414  0.00  0.00    +0.000 A 
BRANCH  22  27
ATOM     27  C   UNL     1       1.564   4.068  17.847  0.00  0.00    +0.000 C 
BRANCH  27  29
ATOM     28  C   UNL     1       1.813   1.905  19.171  0.00  0.00    +0.000 C 
ATOM     29  C   UNL     1       0.893   3.051  18.773  0.00  0.00    +0.000 C 
ENDBRANCH  27  29
ENDBRANCH  22  27
ENDBRANCH  21  26
ENDBRANCH  19  21
ENDBRANCH   1  19
TORSDOF 7
ENDMDL
MODEL 9
REMARK VINA RESULT:      -6.9      2.757      9.297
REMARK  Name = 
REMARK  11 active torsions:
REMARK  status: ('A' for Active; 'I' for Inactive)
REMARK    1  A    between atoms: C_1  and  C_2
REMARK    2  A    between atoms: C_2  and  C_3
REMARK    3  A    between atoms: C_3  and  N_4
REMARK    4  A    between atoms: C_8  and  S_9
REMARK    5  A    between atoms: S_9  and  C_10
REMARK    6  A    between atoms: C_10  and  C_11
REMARK    7  A    between atoms: C_10  and  C_12
REMARK    8  A    between atoms: N_14  and  C_15
REMARK    9  A    between atoms: C_16  and  C_17
REMARK   10  A    between atoms: N_18  and  C_19
REMARK   11  A    between atoms: N_20  and  C_21
REMARK                            x       y       z     vdW  Elec       q    Type
REMARK                         _______ _______ _______ _____ _____    ______ ____
ROOT
ATOM      1  C   UNL     1       1.504   7.903  20.180  0.00  0.00    +0.000 C 
ATOM      2  O   UNL     1       0.858   7.629  21.191  0.00  0.00    +0.000 OA
ATOM      3  N   UNL     1       1.319   9.059  19.453  0.00  0.00    +0.000 N 
ATOM      4  H   UNL     1       1.616   9.039  18.476  0.00  0.00    +0.000 HD
ENDROOT
BRANCH   3   5
ATOM      5  C   UNL     1       0.434  10.041  19.791  0.00  0.00    +0.000 A 
ATOM      6  C   UNL     1      -0.645  10.543  19.166  0.00  0.00    +0.000 A 
ATOM      7  C   UNL     1      -1.257  10.086  17.882  0.00  0.00    +0.000 C 
ATOM      8  N   UNL     1      -1.249  11.522  19.945  0.00  0.00    +0.000 N 
ATOM      9  C   UNL     1      -2.348  12.404  19.617  0.00  0.00    +0.000 C 
ATOM     10  N   UNL     1      -0.576  11.597  21.185  0.00  0.00    +0.000 N 
ATOM     11  C   UNL     1       0.582  10.820  21.060  0.00  0.00    +0.000 A 
ATOM     12  O   UNL     1       1.569  10.759  21.780  0.00  0.00    +0.000 OA
BRANCH  10  13
ATOM     13  C   UNL     1      -0.633  12.785  21.936  0.00  0.00    +0.000 A 
ATOM     14  C   UNL     1       0.146  13.904  21.626  0.00  0.00    +0.000 A 
ATOM     15  C   UNL     1       0.024  15.062  22.406  0.00  0.00    +0.000 A 
ATOM     16  C   UNL     1      -0.846  15.086  23.497  0.00  0.00    +0.000 A 
ATOM     17  C   UNL     1      -1.608  13.961  23.809  0.00  0.00    +0.000 A 
ATOM     18  C   UNL     1      -1.506  12.815  23.023  0.00  0.00    +0.000 A 
ENDBRANCH  10  13
ENDBRANCH   3   5
BRANCH   1  19
ATOM     19  C   UNL     1       2.554   6.955  19.593  0.00  0.00    +0.000 C 
ATOM     20  C   UNL     1       2.387   6.902  18.072  0.00  0.00    +0.000 C 
BRANCH  19  21
ATOM     21  S   UNL     1       2.294   5.274  20.269  0.00  0.00    +0.000 S 
BRANCH  21  26
ATOM     22  N   UNL     1       4.050   3.967  18.618  0.00  0.00    +0.000 N 
ATOM     23  C   UNL     1       4.020   3.079  17.566  0.00  0.00    +0.000 A 
ATOM     24  C   UNL     1       2.688   2.892  17.288  0.00  0.00    +0.000 A 
ATOM     25  N   UNL     1       1.900   3.615  18.146  0.00  0.00    +0.000 NA
ATOM     26  C   UNL     1       2.752   4.233  18.950  0.00  0.00    +0.000 A 
BRANCH  22  27
ATOM     27  C   UNL     1       5.271   4.489  19.199  0.00  0.00    +0.000 C 
BRANCH  27  29
ATOM     28  C   UNL     1       7.276   4.880  17.677  0.00  0.00    +0.000 C 
ATOM     29  C   UNL     1       6.008   5.466  18.281  0.00  0.00    +0.000 C 
ENDBRANCH  27  29
ENDBRANCH  22  27
ENDBRANCH  21  26
ENDBRANCH  19  21
ENDBRANCH   1  19
TORSDOF 7
ENDMDL
