MODEL 1
REMARK VINA RESULT:      -6.5      0.000      0.000
REMARK  Name = 
REMARK  2 active torsions:
REMARK  status: ('A' for Active; 'I' for Inactive)
REMARK    1  A    between atoms: C_2  and  C_3
REMARK    2  A    between atoms: C_6  and  N_7
REMARK                            x       y       z     vdW  Elec       q    Type
REMARK                         _______ _______ _______ _____ _____    ______ ____
ROOT
ATOM      1  C   UNL     1       5.623   5.034  15.642  0.00  0.00    +0.000 A 
ATOM      2  C   UNL     1       5.184   3.779  16.055  0.00  0.00    +0.000 A 
ATOM      3  C   UNL     1       4.176   3.681  17.019  0.00  0.00    +0.000 A 
ATOM      4  C   UNL     1       3.585   4.819  17.595  0.00  0.00    +0.000 A 
ATOM      5  C   UNL     1       4.058   6.069  17.161  0.00  0.00    +0.000 A 
ATOM      6  C   UNL     1       5.063   6.184  16.195  0.00  0.00    +0.000 A 
ENDROOT
BRANCH   4   7
ATOM      7  N   UNL     1       2.613   4.696  18.567  0.00  0.00    +0.000 N 
ATOM      8  C   UNL     1       2.632   5.487  19.796  0.00  0.00    +0.000 C 
ATOM      9  C   UNL     1       2.406   4.545  20.981  0.00  0.00    +0.000 C 
ATOM     10  C   UNL     1       1.138   3.709  20.807  0.00  0.00    +0.000 C 
ATOM     11  C   UNL     1       1.116   2.994  19.456  0.00  0.00    +0.000 C 
ATOM     12  C   UNL     1       1.370   3.967  18.306  0.00  0.00    +0.000 C 
ENDBRANCH   4   7
BRANCH   1  14
ATOM     13  O   UNL     1       7.807   5.556  14.891  0.00  0.00    +0.000 OA
ATOM     14  C   UNL     1       6.680   5.158  14.620  0.00  0.00    +0.000 C 
ENDBRANCH   1  14
TORSDOF 2
ENDMDL
MODEL 2
REMARK VINA RESULT:      -6.4      0.560      1.400
REMARK  Name = 
REMARK  2 active torsions:
REMARK  status: ('A' for Active; 'I' for Inactive)
REMARK    1  A    between atoms: C_2  and  C_3
REMARK    2  A    between atoms: C_6  and  N_7
REMARK                            x       y       z     vdW  Elec       q    Type
REMARK                         _______ _______ _______ _____ _____    ______ ____
ROOT
ATOM      1  C   UNL     1       6.076   4.929  15.789  0.00  0.00    +0.000 A 
ATOM      2  C   UNL     1       5.539   6.114  16.283  0.00  0.00    +0.000 A 
ATOM      3  C   UNL     1       4.427   6.071  17.130  0.00  0.00    +0.000 A 
ATOM      4  C   UNL     1       3.823   4.858  17.502  0.00  0.00    +0.000 A 
ATOM      5  C   UNL     1       4.385   3.681  16.979  0.00  0.00    +0.000 A 
ATOM      6  C   UNL     1       5.499   3.707  16.132  0.00  0.00    +0.000 A 
ENDROOT
BRANCH   4   7
ATOM      7  N   UNL     1       2.708   4.842  18.315  0.00  0.00    +0.000 N 
ATOM      8  C   UNL     1       2.516   5.805  19.398  0.00  0.00    +0.000 C 
ATOM      9  C   UNL     1       2.113   5.039  20.661  0.00  0.00    +0.000 C 
ATOM     10  C   UNL     1       0.902   4.138  20.415  0.00  0.00    +0.000 C 
ATOM     11  C   UNL     1       1.110   3.232  19.202  0.00  0.00    +0.000 C 
ATOM     12  C   UNL     1       1.534   4.035  17.973  0.00  0.00    +0.000 C 
ENDBRANCH   4   7
BRANCH   1  14
ATOM     13  O   UNL     1       7.206   5.414  13.765  0.00  0.00    +0.000 OA
ATOM     14  C   UNL     1       7.253   4.953  14.900  0.00  0.00    +0.000 C 
ENDBRANCH   1  14
TORSDOF 2
ENDMDL
MODEL 3
REMARK VINA RESULT:      -6.3      1.907      2.267
REMARK  Name = 
REMARK  2 active torsions:
REMARK  status: ('A' for Active; 'I' for Inactive)
REMARK    1  A    between atoms: C_2  and  C_3
REMARK    2  A    between atoms: C_6  and  N_7
REMARK                            x       y       z     vdW  Elec       q    Type
REMARK                         _______ _______ _______ _____ _____    ______ ____
ROOT
ATOM      1  C   UNL     1       6.322   6.411  17.878  0.00  0.00    +0.000 A 
ATOM      2  C   UNL     1       5.160   6.824  17.233  0.00  0.00    +0.000 A 
ATOM      3  C   UNL     1       3.929   6.277  17.609  0.00  0.00    +0.000 A 
ATOM      4  C   UNL     1       3.823   5.311  18.625  0.00  0.00    +0.000 A 
ATOM      5  C   UNL     1       5.017   4.912  19.248  0.00  0.00    +0.000 A 
ATOM      6  C   UNL     1       6.256   5.451  18.886  0.00  0.00    +0.000 A 
ENDROOT
BRANCH   4   7
ATOM      7  N   UNL     1       2.600   4.764  18.956  0.00  0.00    +0.000 N 
ATOM      8  C   UNL     1       1.935   5.048  20.226  0.00  0.00    +0.000 C 
ATOM      9  C   UNL     1       1.479   3.722  20.841  0.00  0.00    +0.000 C 
ATOM     10  C   UNL     1       0.626   2.909  19.867  0.00  0.00    +0.000 C 
ATOM     11  C   UNL     1       1.320   2.739  18.516  0.00  0.00    +0.000 C 
ATOM     12  C   UNL     1       1.778   4.083  17.952  0.00  0.00    +0.000 C 
ENDBRANCH   4   7
BRANCH   1  14
ATOM     13  O   UNL     1       7.746   8.127  17.080  0.00  0.00    +0.000 OA
ATOM     14  C   UNL     1       7.629   6.982  17.501  0.00  0.00    +0.000 C 
ENDBRANCH   1  14
TORSDOF 2
ENDMDL
MODEL 4
REMARK VINA RESULT:      -6.3      1.583      2.163
REMARK  Name = 
REMARK  2 active torsions:
REMARK  status: ('A' for Active; 'I' for Inactive)
REMARK    1  A    between atoms: C_2  and  C_3
REMARK    2  A    between atoms: C_6  and  N_7
REMARK                            x       y       z     vdW  Elec       q    Type
REMARK                         _______ _______ _______ _____ _____    ______ ____
ROOT
ATOM      1  C   UNL     1       5.956   4.914  16.807  0.00  0.00    +0.000 A 
ATOM      2  C   UNL     1       6.082   4.995  18.191  0.00  0.00    +0.000 A 
ATOM      3  C   UNL     1       5.122   4.390  19.009  0.00  0.00    +0.000 A 
ATOM      4  C   UNL     1       4.021   3.697  18.477  0.00  0.00    +0.000 A 
ATOM      5  C   UNL     1       3.921   3.643  17.077  0.00  0.00    +0.000 A 
ATOM      6  C   UNL     1       4.874   4.240  16.243  0.00  0.00    +0.000 A 
ENDROOT
BRANCH   4   7
ATOM      7  N   UNL     1       3.071   3.135  19.305  0.00  0.00    +0.000 N 
ATOM      8  C   UNL     1       1.655   3.084  18.948  0.00  0.00    +0.000 C 
ATOM      9  C   UNL     1       0.836   3.580  20.143  0.00  0.00    +0.000 C 
ATOM     10  C   UNL     1       1.178   2.814  21.422  0.00  0.00    +0.000 C 
ATOM     11  C   UNL     1       2.683   2.801  21.686  0.00  0.00    +0.000 C 
ATOM     12  C   UNL     1       3.460   2.323  20.461  0.00  0.00    +0.000 C 
ENDBRANCH   4   7
BRANCH   1  14
ATOM     13  O   UNL     1       7.660   6.477  16.295  0.00  0.00    +0.000 OA
ATOM     14  C   UNL     1       6.962   5.539  15.927  0.00  0.00    +0.000 C 
ENDBRANCH   1  14
TORSDOF 2
ENDMDL
MODEL 5
REMARK VINA RESULT:      -6.3      1.250      1.907
REMARK  Name = 
REMARK  2 active torsions:
REMARK  status: ('A' for Active; 'I' for Inactive)
REMARK    1  A    between atoms: C_2  and  C_3
REMARK    2  A    between atoms: C_6  and  N_7
REMARK                            x       y       z     vdW  Elec       q    Type
REMARK                         _______ _______ _______ _____ _____    ______ ____
ROOT
ATOM      1  C   UNL     1       6.016   4.581  15.989  0.00  0.00    +0.000 A 
ATOM      2  C   UNL     1       6.462   4.935  17.259  0.00  0.00    +0.000 A 
ATOM      3  C   UNL     1       5.647   4.696  18.370  0.00  0.00    +0.000 A 
ATOM      4  C   UNL     1       4.377   4.106  18.247  0.00  0.00    +0.000 A 
ATOM      5  C   UNL     1       3.956   3.769  16.950  0.00  0.00    +0.000 A 
ATOM      6  C   UNL     1       4.760   3.999  15.828  0.00  0.00    +0.000 A 
ENDROOT
BRANCH   4   7
ATOM      7  N   UNL     1       3.578   3.908  19.356  0.00  0.00    +0.000 N 
ATOM      8  C   UNL     1       3.398   2.592  19.964  0.00  0.00    +0.000 C 
ATOM      9  C   UNL     1       1.900   2.363  20.186  0.00  0.00    +0.000 C 
ATOM     10  C   UNL     1       1.264   3.502  20.983  0.00  0.00    +0.000 C 
ATOM     11  C   UNL     1       1.580   4.865  20.367  0.00  0.00    +0.000 C 
ATOM     12  C   UNL     1       3.081   5.040  20.141  0.00  0.00    +0.000 C 
ENDBRANCH   4   7
BRANCH   1  14
ATOM     13  O   UNL     1       7.826   5.577  14.832  0.00  0.00    +0.000 OA
ATOM     14  C   UNL     1       6.865   4.818  14.805  0.00  0.00    +0.000 C 
ENDBRANCH   1  14
TORSDOF 2
ENDMDL
MODEL 6
REMARK VINA RESULT:      -6.3      1.076      1.420
REMARK  Name = 
REMARK  2 active torsions:
REMARK  status: ('A' for Active; 'I' for Inactive)
REMARK    1  A    between atoms: C_2  and  C_3
REMARK    2  A    between atoms: C_6  and  N_7
REMARK                            x       y       z     vdW  Elec       q    Type
REMARK                         _______ _______ _______ _____ _____    ______ ____
ROOT
ATOM      1  C   UNL     1       6.253   4.673  16.606  0.00  0.00    +0.000 A 
ATOM      2  C   UNL     1       6.261   5.125  17.923  0.00  0.00    +0.000 A 
ATOM      3  C   UNL     1       5.120   4.964  18.716  0.00  0.00    +0.000 A 
ATOM      4  C   UNL     1       3.951   4.357  18.223  0.00  0.00    +0.000 A 
ATOM      5  C   UNL     1       3.977   3.921  16.888  0.00  0.00    +0.000 A 
ATOM      6  C   UNL     1       5.111   4.072  16.082  0.00  0.00    +0.000 A 
ENDROOT
BRANCH   4   7
ATOM      7  N   UNL     1       2.828   4.237  19.016  0.00  0.00    +0.000 N 
ATOM      8  C   UNL     1       2.775   4.756  20.381  0.00  0.00    +0.000 C 
ATOM      9  C   UNL     1       2.211   3.663  21.293  0.00  0.00    +0.000 C 
ATOM     10  C   UNL     1       0.870   3.135  20.782  0.00  0.00    +0.000 C 
ATOM     11  C   UNL     1       0.952   2.713  19.315  0.00  0.00    +0.000 C 
ATOM     12  C   UNL     1       1.542   3.824  18.448  0.00  0.00    +0.000 C 
ENDBRANCH   4   7
BRANCH   1  14
ATOM     13  O   UNL     1       7.484   5.608  14.812  0.00  0.00    +0.000 OA
ATOM     14  C   UNL     1       7.449   4.828  15.756  0.00  0.00    +0.000 C 
ENDBRANCH   1  14
TORSDOF 2
ENDMDL
MODEL 7
REMARK VINA RESULT:      -6.3      1.194      1.297
REMARK  Name = 
REMARK  2 active torsions:
REMARK  status: ('A' for Active; 'I' for Inactive)
REMARK    1  A    between atoms: C_2  and  C_3
REMARK    2  A    between atoms: C_6  and  N_7
REMARK                            x       y       z     vdW  Elec       q    Type
REMARK                         _______ _______ _______ _____ _____    ______ ____
ROOT
ATOM      1  C   UNL     1       6.247   4.637  16.729  0.00  0.00    +0.000 A 
ATOM      2  C   UNL     1       5.014   4.372  16.141  0.00  0.00    +0.000 A 
ATOM      3  C   UNL     1       3.879   4.232  16.947  0.00  0.00    +0.000 A 
ATOM      4  C   UNL     1       3.942   4.348  18.346  0.00  0.00    +0.000 A 
ATOM      5  C   UNL     1       5.205   4.607  18.906  0.00  0.00    +0.000 A 
ATOM      6  C   UNL     1       6.349   4.753  18.114  0.00  0.00    +0.000 A 
ENDROOT
BRANCH   4   7
ATOM      7  N   UNL     1       2.814   4.175  19.123  0.00  0.00    +0.000 N 
ATOM      8  C   UNL     1       2.699   4.731  20.470  0.00  0.00    +0.000 C 
ATOM      9  C   UNL     1       2.194   3.631  21.406  0.00  0.00    +0.000 C 
ATOM     10  C   UNL     1       0.903   2.995  20.890  0.00  0.00    +0.000 C 
ATOM     11  C   UNL     1       1.042   2.535  19.439  0.00  0.00    +0.000 C 
ATOM     12  C   UNL     1       1.571   3.656  18.546  0.00  0.00    +0.000 C 
ENDBRANCH   4   7
BRANCH   1  14
ATOM     13  O   UNL     1       7.423   5.338  14.796  0.00  0.00    +0.000 OA
ATOM     14  C   UNL     1       7.454   4.796  15.895  0.00  0.00    +0.000 C 
ENDBRANCH   1  14
TORSDOF 2
ENDMDL
MODEL 8
REMARK VINA RESULT:      -6.2      2.057      2.520
REMARK  Name = 
REMARK  2 active torsions:
REMARK  status: ('A' for Active; 'I' for Inactive)
REMARK    1  A    between atoms: C_2  and  C_3
REMARK    2  A    between atoms: C_6  and  N_7
REMARK                            x       y       z     vdW  Elec       q    Type
REMARK                         _______ _______ _______ _____ _____    ______ ____
ROOT
ATOM      1  C   UNL     1       6.330   6.408  17.749  0.00  0.00    +0.000 A 
ATOM      2  C   UNL     1       5.052   6.480  17.202  0.00  0.00    +0.000 A 
ATOM      3  C   UNL     1       4.024   5.700  17.742  0.00  0.00    +0.000 A 
ATOM      4  C   UNL     1       4.239   4.835  18.828  0.00  0.00    +0.000 A 
ATOM      5  C   UNL     1       5.543   4.781  19.349  0.00  0.00    +0.000 A 
ATOM      6  C   UNL     1       6.582   5.556  18.823  0.00  0.00    +0.000 A 
ENDROOT
BRANCH   4   7
ATOM      7  N   UNL     1       3.216   4.052  19.324  0.00  0.00    +0.000 N 
ATOM      8  C   UNL     1       1.812   4.313  19.012  0.00  0.00    +0.000 C 
ATOM      9  C   UNL     1       1.013   4.284  20.318  0.00  0.00    +0.000 C 
ATOM     10  C   UNL     1       1.242   2.986  21.094  0.00  0.00    +0.000 C 
ATOM     11  C   UNL     1       2.730   2.703  21.292  0.00  0.00    +0.000 C 
ATOM     12  C   UNL     1       3.491   2.766  19.969  0.00  0.00    +0.000 C 
ENDBRANCH   4   7
BRANCH   1  14
ATOM     13  O   UNL     1       7.695   8.340  17.637  0.00  0.00    +0.000 OA
ATOM     14  C   UNL     1       7.426   7.228  17.198  0.00  0.00    +0.000 C 
ENDBRANCH   1  14
TORSDOF 2
ENDMDL
MODEL 9
REMARK VINA RESULT:      -6.2      0.770      1.507
REMARK  Name = 
REMARK  2 active torsions:
REMARK  status: ('A' for Active; 'I' for Inactive)
REMARK    1  A    between atoms: C_2  and  C_3
REMARK    2  A    between atoms: C_6  and  N_7
REMARK                            x       y       z     vdW  Elec       q    Type
REMARK                         _______ _______ _______ _____ _____    ______ ____
ROOT
ATOM      1  C   UNL     1       5.858   4.844  15.359  0.00  0.00    +0.000 A 
ATOM      2  C   UNL     1       5.524   3.576  15.827  0.00  0.00    +0.000 A 
ATOM      3  C   UNL     1       4.707   3.448  16.956  0.00  0.00    +0.000 A 
ATOM      4  C   UNL     1       4.209   4.568  17.644  0.00  0.00    +0.000 A 
ATOM      5  C   UNL     1       4.573   5.831  17.149  0.00  0.00    +0.000 A 
ATOM      6  C   UNL     1       5.387   5.977  16.019  0.00  0.00    +0.000 A 
ENDROOT
BRANCH   4   7
ATOM      7  N   UNL     1       3.431   4.416  18.774  0.00  0.00    +0.000 N 
ATOM      8  C   UNL     1       2.823   3.138  19.139  0.00  0.00    +0.000 C 
ATOM      9  C   UNL     1       1.349   3.381  19.472  0.00  0.00    +0.000 C 
ATOM     10  C   UNL     1       1.179   4.469  20.533  0.00  0.00    +0.000 C 
ATOM     11  C   UNL     1       1.930   5.746  20.156  0.00  0.00    +0.000 C 
ATOM     12  C   UNL     1       3.388   5.453  19.808  0.00  0.00    +0.000 C 
ENDBRANCH   4   7
BRANCH   1  14
ATOM     13  O   UNL     1       7.830   5.496  14.222  0.00  0.00    +0.000 OA
ATOM     14  C   UNL     1       6.711   4.999  14.166  0.00  0.00    +0.000 C 
ENDBRANCH   1  14
TORSDOF 2
ENDMDL
