MODEL 1
REMARK VINA RESULT:      -7.0      0.000      0.000
REMARK  Name = 
REMARK  9 active torsions:
REMARK  status: ('A' for Active; 'I' for Inactive)
REMARK    1  A    between atoms: C_1  and  C_2
REMARK    2  A    between atoms: C_2  and  C_3
REMARK    3  A    between atoms: C_4  and  O_5
REMARK    4  A    between atoms: C_9  and  C_10
REMARK    5  A    between atoms: C_15  and  N_16
REMARK    6  A    between atoms: C_23  and  C_24
REMARK    7  A    between atoms: C_23  and  C_26
REMARK    8  A    between atoms: C_24  and  C_25
REMARK    9  A    between atoms: C_26  and  C_27
REMARK                            x       y       z     vdW  Elec       q    Type
REMARK                         _______ _______ _______ _____ _____    ______ ____
ROOT
ATOM      1  C   UNL     1      -1.484  12.476  21.135  0.00  0.00    +0.000 C 
ATOM      2  C   UNL     1      -0.742  11.912  22.104  0.00  0.00    +0.000 C 
ATOM      3  C   UNL     1       0.194  10.859  21.688  0.00  0.00    +0.000 A 
ATOM      4  C   UNL     1       0.581  10.755  20.389  0.00  0.00    +0.000 A 
ATOM      5  O   UNL     1       1.195   9.582  19.918  0.00  0.00    +0.000 OA
ATOM      6  C   UNL     1       1.409   8.466  20.777  0.00  0.00    +0.000 A 
ATOM      7  C   UNL     1       1.247   8.578  22.101  0.00  0.00    +0.000 A 
ATOM      8  C   UNL     1       0.585   9.769  22.644  0.00  0.00    +0.000 A 
ATOM      9  O   UNL     1       0.339   9.771  23.850  0.00  0.00    +0.000 OA
ATOM     10  C   UNL     1       0.311  11.896  19.333  0.00  0.00    +0.000 C 
ATOM     11  C   UNL     1      -0.636  12.912  20.015  0.00  0.00    +0.000 C 
ATOM     12  O   UNL     1      -0.758  14.084  19.632  0.00  0.00    +0.000 OA
ENDROOT
BRANCH   6  13
ATOM     13  C   UNL     1       1.735   7.224  20.086  0.00  0.00    +0.000 A 
ATOM     14  C   UNL     1       1.476   6.035  20.746  0.00  0.00    +0.000 A 
ATOM     15  S   UNL     1       1.921   4.661  19.866  0.00  0.00    +0.000 S 
ATOM     16  C   UNL     1       2.912   5.623  18.853  0.00  0.00    +0.000 A 
ATOM     17  C   UNL     1       4.021   5.161  18.132  0.00  0.00    +0.000 A 
ATOM     18  C   UNL     1       4.767   6.067  17.395  0.00  0.00    +0.000 A 
ATOM     19  C   UNL     1       4.167   7.272  17.063  0.00  0.00    +0.000 A 
ATOM     20  C   UNL     1       3.044   7.749  17.784  0.00  0.00    +0.000 A 
ATOM     21  C   UNL     1       2.500   6.964  18.848  0.00  0.00    +0.000 A 
BRANCH  18  22
ATOM     22  N   UNL     1       5.991   5.658  16.846  0.00  0.00    +0.000 N 
ATOM     23  H   UNL     1       6.326   6.327  16.152  0.00  0.00    +0.000 HD
ATOM     24  H   UNL     1       5.952   4.727  16.440  0.00  0.00    +0.000 HD
ENDBRANCH  18  22
ENDBRANCH   6  13
BRANCH   1  26
ATOM     25  C   UNL     1      -3.944  12.899  20.508  0.00  0.00    +0.000 C 
ATOM     26  C   UNL     1      -2.840  11.904  20.804  0.00  0.00    +0.000 C 
ENDBRANCH   1  26
BRANCH   2  27
ATOM     27  O   UNL     1      -1.299  11.748  23.357  0.00  0.00    +0.000 OA
ATOM     28  H   UNL     1      -0.581  11.803  24.015  0.00  0.00    +0.000 HD
ENDBRANCH   2  27
BRANCH  10  29
ATOM     29  C   UNL     1       1.592  12.738  18.997  0.00  0.00    +0.000 C 
ATOM     30  C   UNL     1       2.561  12.214  17.949  0.00  0.00    +0.000 C 
ENDBRANCH  10  29
BRANCH  10  31
ATOM     31  C   UNL     1      -0.534  11.598  18.047  0.00  0.00    +0.000 C 
ATOM     32  C   UNL     1      -1.349  10.332  17.918  0.00  0.00    +0.000 C 
ENDBRANCH  10  31
TORSDOF 6
ENDMDL
MODEL 2
REMARK VINA RESULT:      -6.8      1.748      2.337
REMARK  Name = 
REMARK  9 active torsions:
REMARK  status: ('A' for Active; 'I' for Inactive)
REMARK    1  A    between atoms: C_1  and  C_2
REMARK    2  A    between atoms: C_2  and  C_3
REMARK    3  A    between atoms: C_4  and  O_5
REMARK    4  A    between atoms: C_9  and  C_10
REMARK    5  A    between atoms: C_15  and  N_16
REMARK    6  A    between atoms: C_23  and  C_24
REMARK    7  A    between atoms: C_23  and  C_26
REMARK    8  A    between atoms: C_24  and  C_25
REMARK    9  A    between atoms: C_26  and  C_27
REMARK                            x       y       z     vdW  Elec       q    Type
REMARK                         _______ _______ _______ _____ _____    ______ ____
ROOT
ATOM      1  C   UNL     1      -1.931  12.504  21.280  0.00  0.00    +0.000 C 
ATOM      2  C   UNL     1      -1.230  11.847  22.219  0.00  0.00    +0.000 C 
ATOM      3  C   UNL     1      -0.135  10.990  21.745  0.00  0.00    +0.000 A 
ATOM      4  C   UNL     1       0.394  11.170  20.506  0.00  0.00    +0.000 A 
ATOM      5  O   UNL     1       1.191  10.174  19.917  0.00  0.00    +0.000 OA
ATOM      6  C   UNL     1       1.449   8.944  20.589  0.00  0.00    +0.000 A 
ATOM      7  C   UNL     1       1.139   8.790  21.882  0.00  0.00    +0.000 A 
ATOM      8  C   UNL     1       0.285   9.786  22.539  0.00  0.00    +0.000 A 
ATOM      9  O   UNL     1      -0.082   9.539  23.687  0.00  0.00    +0.000 OA
ATOM     10  C   UNL     1       0.097  12.455  19.640  0.00  0.00    +0.000 C 
ATOM     11  C   UNL     1      -1.031  13.225  20.366  0.00  0.00    +0.000 C 
ATOM     12  O   UNL     1      -1.255  14.429  20.180  0.00  0.00    +0.000 OA
ENDROOT
BRANCH   6  13
ATOM     13  C   UNL     1       1.993   7.893  19.739  0.00  0.00    +0.000 A 
ATOM     14  C   UNL     1       2.396   8.243  18.462  0.00  0.00    +0.000 A 
ATOM     15  S   UNL     1       2.981   6.942  17.554  0.00  0.00    +0.000 S 
ATOM     16  C   UNL     1       2.238   5.844  18.638  0.00  0.00    +0.000 A 
ATOM     17  C   UNL     1       1.851   4.534  18.323  0.00  0.00    +0.000 A 
ATOM     18  C   UNL     1       1.207   3.775  19.288  0.00  0.00    +0.000 A 
ATOM     19  C   UNL     1       1.344   4.168  20.611  0.00  0.00    +0.000 A 
ATOM     20  C   UNL     1       1.736   5.489  20.941  0.00  0.00    +0.000 A 
ATOM     21  C   UNL     1       2.027   6.423  19.898  0.00  0.00    +0.000 A 
BRANCH  18  22
ATOM     22  N   UNL     1       0.631   2.550  18.921  0.00  0.00    +0.000 N 
ATOM     23  H   UNL     1       0.152   2.622  18.023  0.00  0.00    +0.000 HD
ATOM     24  H   UNL     1      -0.005   2.185  19.626  0.00  0.00    +0.000 HD
ENDBRANCH  18  22
ENDBRANCH   6  13
BRANCH   1  26
ATOM     25  C   UNL     1      -4.323  12.798  20.377  0.00  0.00    +0.000 C 
ATOM     26  C   UNL     1      -3.166  11.871  20.690  0.00  0.00    +0.000 C 
ENDBRANCH   1  26
BRANCH   2  27
ATOM     27  O   UNL     1      -1.888  11.397  23.347  0.00  0.00    +0.000 OA
ATOM     28  H   UNL     1      -2.287  12.168  23.791  0.00  0.00    +0.000 HD
ENDBRANCH   2  27
BRANCH  10  29
ATOM     29  C   UNL     1       1.294  13.469  19.615  0.00  0.00    +0.000 C 
ATOM     30  C   UNL     1       2.196  13.572  20.835  0.00  0.00    +0.000 C 
ENDBRANCH  10  29
BRANCH  10  31
ATOM     31  C   UNL     1      -0.569  12.318  18.227  0.00  0.00    +0.000 C 
ATOM     32  C   UNL     1      -1.366  11.091  17.849  0.00  0.00    +0.000 C 
ENDBRANCH  10  31
TORSDOF 6
ENDMDL
MODEL 3
REMARK VINA RESULT:      -6.6      5.001      7.954
REMARK  Name = 
REMARK  9 active torsions:
REMARK  status: ('A' for Active; 'I' for Inactive)
REMARK    1  A    between atoms: C_1  and  C_2
REMARK    2  A    between atoms: C_2  and  C_3
REMARK    3  A    between atoms: C_4  and  O_5
REMARK    4  A    between atoms: C_9  and  C_10
REMARK    5  A    between atoms: C_15  and  N_16
REMARK    6  A    between atoms: C_23  and  C_24
REMARK    7  A    between atoms: C_23  and  C_26
REMARK    8  A    between atoms: C_24  and  C_25
REMARK    9  A    between atoms: C_26  and  C_27
REMARK                            x       y       z     vdW  Elec       q    Type
REMARK                         _______ _______ _______ _____ _____    ______ ____
ROOT
ATOM      1  C   UNL     1       0.624  14.209  21.226  0.00  0.00    +0.000 C 
ATOM      2  C   UNL     1       0.025  14.727  22.311  0.00  0.00    +0.000 C 
ATOM      3  C   UNL     1      -1.285  14.167  22.671  0.00  0.00    +0.000 A 
ATOM      4  C   UNL     1      -1.667  12.951  22.201  0.00  0.00    +0.000 A 
ATOM      5  O   UNL     1      -3.014  12.555  22.255  0.00  0.00    +0.000 OA
ATOM      6  C   UNL     1      -4.016  13.420  22.782  0.00  0.00    +0.000 A 
ATOM      7  C   UNL     1      -3.682  14.532  23.448  0.00  0.00    +0.000 A 
ATOM      8  C   UNL     1      -2.295  15.007  23.400  0.00  0.00    +0.000 A 
ATOM      9  O   UNL     1      -2.059  16.100  23.915  0.00  0.00    +0.000 OA
ATOM     10  C   UNL     1      -0.654  11.954  21.516  0.00  0.00    +0.000 C 
ATOM     11  C   UNL     1       0.661  12.740  21.300  0.00  0.00    +0.000 C 
ATOM     12  O   UNL     1       1.758  12.189  21.134  0.00  0.00    +0.000 OA
ENDROOT
BRANCH   6  13
ATOM     13  C   UNL     1      -5.384  13.024  22.469  0.00  0.00    +0.000 A 
ATOM     14  C   UNL     1      -6.299  13.000  23.507  0.00  0.00    +0.000 A 
ATOM     15  S   UNL     1      -7.844  12.497  23.037  0.00  0.00    +0.000 S 
ATOM     16  C   UNL     1      -7.195  11.828  21.600  0.00  0.00    +0.000 A 
ATOM     17  C   UNL     1      -7.773  10.787  20.860  0.00  0.00    +0.000 A 
ATOM     18  C   UNL     1      -7.106  10.306  19.745  0.00  0.00    +0.000 A 
ATOM     19  C   UNL     1      -6.142  11.122  19.173  0.00  0.00    +0.000 A 
ATOM     20  C   UNL     1      -5.551  12.178  19.910  0.00  0.00    +0.000 A 
ATOM     21  C   UNL     1      -5.977  12.430  21.252  0.00  0.00    +0.000 A 
BRANCH  18  22
ATOM     22  N   UNL     1      -7.565   9.135  19.126  0.00  0.00    +0.000 N 
ATOM     23  H   UNL     1      -6.869   8.761  18.480  0.00  0.00    +0.000 HD
ATOM     24  H   UNL     1      -8.451   9.263  18.644  0.00  0.00    +0.000 HD
ENDBRANCH  18  22
ENDBRANCH   6  13
BRANCH   1  26
ATOM     25  C   UNL     1       1.577  15.521  19.226  0.00  0.00    +0.000 C 
ATOM     26  C   UNL     1       0.390  14.835  19.874  0.00  0.00    +0.000 C 
ENDBRANCH   1  26
BRANCH   2  27
ATOM     27  O   UNL     1       0.191  16.070  22.585  0.00  0.00    +0.000 OA
ATOM     28  H   UNL     1       1.022  16.363  22.166  0.00  0.00    +0.000 HD
ENDBRANCH   2  27
BRANCH  10  29
ATOM     29  C   UNL     1      -0.236  10.765  22.452  0.00  0.00    +0.000 C 
ATOM     30  C   UNL     1      -0.203   9.357  21.880  0.00  0.00    +0.000 C 
ENDBRANCH  10  29
BRANCH  10  31
ATOM     31  C   UNL     1      -0.895  11.469  20.045  0.00  0.00    +0.000 C 
ATOM     32  C   UNL     1      -1.947  12.109  19.169  0.00  0.00    +0.000 C 
ENDBRANCH  10  31
TORSDOF 6
ENDMDL
MODEL 4
REMARK VINA RESULT:      -6.5      4.876      8.538
REMARK  Name = 
REMARK  9 active torsions:
REMARK  status: ('A' for Active; 'I' for Inactive)
REMARK    1  A    between atoms: C_1  and  C_2
REMARK    2  A    between atoms: C_2  and  C_3
REMARK    3  A    between atoms: C_4  and  O_5
REMARK    4  A    between atoms: C_9  and  C_10
REMARK    5  A    between atoms: C_15  and  N_16
REMARK    6  A    between atoms: C_23  and  C_24
REMARK    7  A    between atoms: C_23  and  C_26
REMARK    8  A    between atoms: C_24  and  C_25
REMARK    9  A    between atoms: C_26  and  C_27
REMARK                            x       y       z     vdW  Elec       q    Type
REMARK                         _______ _______ _______ _____ _____    ______ ____
ROOT
ATOM      1  C   UNL     1       0.702  10.579  20.236  0.00  0.00    +0.000 C 
ATOM      2  C   UNL     1       0.154  10.591  19.009  0.00  0.00    +0.000 C 
ATOM      3  C   UNL     1      -1.120  11.307  18.863  0.00  0.00    +0.000 A 
ATOM      4  C   UNL     1      -1.502  12.229  19.786  0.00  0.00    +0.000 A 
ATOM      5  O   UNL     1      -2.834  12.671  19.846  0.00  0.00    +0.000 OA
ATOM      6  C   UNL     1      -3.823  12.152  18.962  0.00  0.00    +0.000 A 
ATOM      7  C   UNL     1      -3.476  11.409  17.904  0.00  0.00    +0.000 A 
ATOM      8  C   UNL     1      -2.105  10.897  17.806  0.00  0.00    +0.000 A 
ATOM      9  O   UNL     1      -1.865  10.112  16.889  0.00  0.00    +0.000 OA
ATOM     10  C   UNL     1      -0.507  12.801  20.869  0.00  0.00    +0.000 C 
ATOM     11  C   UNL     1       0.775  11.940  20.790  0.00  0.00    +0.000 C 
ATOM     12  O   UNL     1       1.873  12.320  21.219  0.00  0.00    +0.000 OA
ENDROOT
BRANCH   6  13
ATOM     13  C   UNL     1      -5.198  12.440  19.354  0.00  0.00    +0.000 A 
ATOM     14  C   UNL     1      -6.106  12.725  18.350  0.00  0.00    +0.000 A 
ATOM     15  S   UNL     1      -7.660  13.074  18.919  0.00  0.00    +0.000 S 
ATOM     16  C   UNL     1      -7.028  13.352  20.487  0.00  0.00    +0.000 A 
ATOM     17  C   UNL     1      -7.624  14.159  21.467  0.00  0.00    +0.000 A 
ATOM     18  C   UNL     1      -6.970  14.339  22.675  0.00  0.00    +0.000 A 
ATOM     19  C   UNL     1      -5.999  13.412  23.024  0.00  0.00    +0.000 A 
ATOM     20  C   UNL     1      -5.392  12.590  22.043  0.00  0.00    +0.000 A 
ATOM     21  C   UNL     1      -5.806  12.692  20.678  0.00  0.00    +0.000 A 
BRANCH  18  22
ATOM     22  N   UNL     1      -7.446  15.304  23.573  0.00  0.00    +0.000 N 
ATOM     23  H   UNL     1      -8.464  15.372  23.537  0.00  0.00    +0.000 HD
ATOM     24  H   UNL     1      -7.032  16.221  23.426  0.00  0.00    +0.000 HD
ENDBRANCH  18  22
ENDBRANCH   6  13
BRANCH   1  26
ATOM     25  C   UNL     1       1.404   8.345  21.307  0.00  0.00    +0.000 C 
ATOM     26  C   UNL     1       0.376   9.454  21.187  0.00  0.00    +0.000 C 
ENDBRANCH   1  26
BRANCH   2  27
ATOM     27  O   UNL     1       0.305   9.481  18.202  0.00  0.00    +0.000 OA
ATOM     28  H   UNL     1       0.659   9.777  17.343  0.00  0.00    +0.000 HD
ENDBRANCH   2  27
BRANCH  10  29
ATOM     29  C   UNL     1      -0.010  14.253  20.541  0.00  0.00    +0.000 C 
ATOM     30  C   UNL     1      -0.009  14.719  19.094  0.00  0.00    +0.000 C 
ENDBRANCH  10  29
BRANCH  10  31
ATOM     31  C   UNL     1      -0.821  12.634  22.396  0.00  0.00    +0.000 C 
ATOM     32  C   UNL     1      -1.890  11.681  22.879  0.00  0.00    +0.000 C 
ENDBRANCH  10  31
TORSDOF 6
ENDMDL
MODEL 5
REMARK VINA RESULT:      -6.3      4.722      7.510
REMARK  Name = 
REMARK  9 active torsions:
REMARK  status: ('A' for Active; 'I' for Inactive)
REMARK    1  A    between atoms: C_1  and  C_2
REMARK    2  A    between atoms: C_2  and  C_3
REMARK    3  A    between atoms: C_4  and  O_5
REMARK    4  A    between atoms: C_9  and  C_10
REMARK    5  A    between atoms: C_15  and  N_16
REMARK    6  A    between atoms: C_23  and  C_24
REMARK    7  A    between atoms: C_23  and  C_26
REMARK    8  A    between atoms: C_24  and  C_25
REMARK    9  A    between atoms: C_26  and  C_27
REMARK                            x       y       z     vdW  Elec       q    Type
REMARK                         _______ _______ _______ _____ _____    ______ ____
ROOT
ATOM      1  C   UNL     1       1.433  13.916  20.000  0.00  0.00    +0.000 C 
ATOM      2  C   UNL     1       1.106  14.073  21.294  0.00  0.00    +0.000 C 
ATOM      3  C   UNL     1      -0.196  13.538  21.714  0.00  0.00    +0.000 A 
ATOM      4  C   UNL     1      -0.830  12.599  20.963  0.00  0.00    +0.000 A 
ATOM      5  O   UNL     1      -2.194  12.327  21.162  0.00  0.00    +0.000 OA
ATOM      6  C   UNL     1      -2.953  13.037  22.136  0.00  0.00    +0.000 A 
ATOM      7  C   UNL     1      -2.350  13.814  23.044  0.00  0.00    +0.000 A 
ATOM      8  C   UNL     1      -0.934  14.155  22.868  0.00  0.00    +0.000 A 
ATOM      9  O   UNL     1      -0.454  14.975  23.650  0.00  0.00    +0.000 OA
ATOM     10  C   UNL     1      -0.106  11.819  19.798  0.00  0.00    +0.000 C 
ATOM     11  C   UNL     1       1.259  12.515  19.584  0.00  0.00    +0.000 C 
ATOM     12  O   UNL     1       2.218  11.965  19.025  0.00  0.00    +0.000 OA
ENDROOT
BRANCH   6  13
ATOM     13  C   UNL     1      -4.398  12.894  22.000  0.00  0.00    +0.000 A 
ATOM     14  C   UNL     1      -5.167  13.039  23.141  0.00  0.00    +0.000 A 
ATOM     15  S   UNL     1      -6.823  12.823  22.874  0.00  0.00    +0.000 S 
ATOM     16  C   UNL     1      -6.487  12.043  21.386  0.00  0.00    +0.000 A 
ATOM     17  C   UNL     1      -7.329  11.122  20.748  0.00  0.00    +0.000 A 
ATOM     18  C   UNL     1      -6.901  10.525  19.573  0.00  0.00    +0.000 A 
ATOM     19  C   UNL     1      -5.884  11.151  18.868  0.00  0.00    +0.000 A 
ATOM     20  C   UNL     1      -5.027  12.085  19.503  0.00  0.00    +0.000 A 
ATOM     21  C   UNL     1      -5.233  12.413  20.879  0.00  0.00    +0.000 A 
BRANCH  18  22
ATOM     22  N   UNL     1      -7.636   9.454  19.043  0.00  0.00    +0.000 N 
ATOM     23  H   UNL     1      -7.078   8.601  19.018  0.00  0.00    +0.000 HD
ATOM     24  H   UNL     1      -8.011   9.651  18.119  0.00  0.00    +0.000 HD
ENDBRANCH  18  22
ENDBRANCH   6  13
BRANCH   1  26
ATOM     25  C   UNL     1       2.227  15.797  18.432  0.00  0.00    +0.000 C 
ATOM     26  C   UNL     1       1.077  14.991  19.004  0.00  0.00    +0.000 C 
ENDBRANCH   1  26
BRANCH   2  27
ATOM     27  O   UNL     1       1.516  15.217  21.949  0.00  0.00    +0.000 OA
ATOM     28  H   UNL     1       0.767  15.544  22.482  0.00  0.00    +0.000 HD
ENDBRANCH   2  27
BRANCH  10  29
ATOM     29  C   UNL     1       0.276  10.348  20.189  0.00  0.00    +0.000 C 
ATOM     30  C   UNL     1       0.404   9.988  21.660  0.00  0.00    +0.000 C 
ENDBRANCH  10  29
BRANCH  10  31
ATOM     31  C   UNL     1      -0.656  11.900  18.333  0.00  0.00    +0.000 C 
ATOM     32  C   UNL     1      -1.722  10.949  17.839  0.00  0.00    +0.000 C 
ENDBRANCH  10  31
TORSDOF 6
ENDMDL
MODEL 6
REMARK VINA RESULT:      -6.1      4.999      7.903
REMARK  Name = 
REMARK  9 active torsions:
REMARK  status: ('A' for Active; 'I' for Inactive)
REMARK    1  A    between atoms: C_1  and  C_2
REMARK    2  A    between atoms: C_2  and  C_3
REMARK    3  A    between atoms: C_4  and  O_5
REMARK    4  A    between atoms: C_9  and  C_10
REMARK    5  A    between atoms: C_15  and  N_16
REMARK    6  A    between atoms: C_23  and  C_24
REMARK    7  A    between atoms: C_23  and  C_26
REMARK    8  A    between atoms: C_24  and  C_25
REMARK    9  A    between atoms: C_26  and  C_27
REMARK                            x       y       z     vdW  Elec       q    Type
REMARK                         _______ _______ _______ _____ _____    ______ ____
ROOT
ATOM      1  C   UNL     1       3.262  16.490  18.290  0.00  0.00    +0.000 C 
ATOM      2  C   UNL     1       3.103  15.232  17.846  0.00  0.00    +0.000 C 
ATOM      3  C   UNL     1       2.058  14.430  18.499  0.00  0.00    +0.000 A 
ATOM      4  C   UNL     1       1.061  15.035  19.196  0.00  0.00    +0.000 A 
ATOM      5  O   UNL     1       0.262  14.298  20.086  0.00  0.00    +0.000 OA
ATOM      6  C   UNL     1       0.488  12.907  20.299  0.00  0.00    +0.000 A 
ATOM      7  C   UNL     1       1.305  12.213  19.498  0.00  0.00    +0.000 A 
ATOM      8  C   UNL     1       2.182  12.935  18.569  0.00  0.00    +0.000 A 
ATOM      9  O   UNL     1       3.008  12.268  17.947  0.00  0.00    +0.000 OA
ATOM     10  C   UNL     1       0.785  16.586  19.102  0.00  0.00    +0.000 C 
ATOM     11  C   UNL     1       1.973  17.199  18.323  0.00  0.00    +0.000 C 
ATOM     12  O   UNL     1       1.913  18.298  17.755  0.00  0.00    +0.000 OA
ENDROOT
BRANCH   6  13
ATOM     13  C   UNL     1      -0.177  12.359  21.475  0.00  0.00    +0.000 A 
ATOM     14  C   UNL     1      -0.171  10.985  21.635  0.00  0.00    +0.000 A 
ATOM     15  S   UNL     1      -0.996  10.458  23.014  0.00  0.00    +0.000 S 
ATOM     16  C   UNL     1      -1.789  11.972  23.124  0.00  0.00    +0.000 A 
ATOM     17  C   UNL     1      -3.024  12.194  23.749  0.00  0.00    +0.000 A 
ATOM     18  C   UNL     1      -3.575  13.465  23.713  0.00  0.00    +0.000 A 
ATOM     19  C   UNL     1      -2.723  14.527  23.445  0.00  0.00    +0.000 A 
ATOM     20  C   UNL     1      -1.472  14.314  22.814  0.00  0.00    +0.000 A 
ATOM     21  C   UNL     1      -1.064  12.985  22.479  0.00  0.00    +0.000 A 
BRANCH  18  22
ATOM     22  N   UNL     1      -4.896  13.651  24.146  0.00  0.00    +0.000 N 
ATOM     23  H   UNL     1      -5.468  14.075  23.415  0.00  0.00    +0.000 HD
ATOM     24  H   UNL     1      -4.960  14.200  24.999  0.00  0.00    +0.000 HD
ENDBRANCH  18  22
ENDBRANCH   6  13
BRANCH   1  26
ATOM     25  C   UNL     1       5.662  17.112  18.982  0.00  0.00    +0.000 C 
ATOM     26  C   UNL     1       4.244  16.774  19.399  0.00  0.00    +0.000 C 
ENDBRANCH   1  26
BRANCH   2  27
ATOM     27  O   UNL     1       4.216  14.528  17.431  0.00  0.00    +0.000 OA
ATOM     28  H   UNL     1       4.838  14.477  18.180  0.00  0.00    +0.000 HD
ENDBRANCH   2  27
BRANCH  10  29
ATOM     29  C   UNL     1      -0.466  16.935  18.222  0.00  0.00    +0.000 C 
ATOM     30  C   UNL     1      -1.654  17.624  18.874  0.00  0.00    +0.000 C 
ENDBRANCH  10  29
BRANCH  10  31
ATOM     31  C   UNL     1       0.848  17.479  20.389  0.00  0.00    +0.000 C 
ATOM     32  C   UNL     1       1.356  16.930  21.702  0.00  0.00    +0.000 C 
ENDBRANCH  10  31
TORSDOF 6
ENDMDL
MODEL 7
REMARK VINA RESULT:      -5.9      4.883      8.785
REMARK  Name = 
REMARK  9 active torsions:
REMARK  status: ('A' for Active; 'I' for Inactive)
REMARK    1  A    between atoms: C_1  and  C_2
REMARK    2  A    between atoms: C_2  and  C_3
REMARK    3  A    between atoms: C_4  and  O_5
REMARK    4  A    between atoms: C_9  and  C_10
REMARK    5  A    between atoms: C_15  and  N_16
REMARK    6  A    between atoms: C_23  and  C_24
REMARK    7  A    between atoms: C_23  and  C_26
REMARK    8  A    between atoms: C_24  and  C_25
REMARK    9  A    between atoms: C_26  and  C_27
REMARK                            x       y       z     vdW  Elec       q    Type
REMARK                         _______ _______ _______ _____ _____    ______ ____
ROOT
ATOM      1  C   UNL     1      -0.067  10.730  18.583  0.00  0.00    +0.000 C 
ATOM      2  C   UNL     1      -1.203  10.812  17.869  0.00  0.00    +0.000 C 
ATOM      3  C   UNL     1      -2.291  11.610  18.450  0.00  0.00    +0.000 A 
ATOM      4  C   UNL     1      -2.030  12.528  19.418  0.00  0.00    +0.000 A 
ATOM      5  O   UNL     1      -3.070  13.049  20.206  0.00  0.00    +0.000 OA
ATOM      6  C   UNL     1      -4.416  12.618  20.029  0.00  0.00    +0.000 A 
ATOM      7  C   UNL     1      -4.769  11.886  18.966  0.00  0.00    +0.000 A 
ATOM      8  C   UNL     1      -3.723  11.292  18.126  0.00  0.00    +0.000 A 
ATOM      9  O   UNL     1      -4.087  10.520  17.240  0.00  0.00    +0.000 OA
ATOM     10  C   UNL     1      -0.565  13.006  19.757  0.00  0.00    +0.000 C 
ATOM     11  C   UNL     1       0.394  12.068  18.986  0.00  0.00    +0.000 C 
ATOM     12  O   UNL     1       1.567  12.367  18.726  0.00  0.00    +0.000 OA
ENDROOT
BRANCH   6  13
ATOM     13  C   UNL     1      -5.316  12.981  21.118  0.00  0.00    +0.000 A 
ATOM     14  C   UNL     1      -6.677  12.925  20.872  0.00  0.00    +0.000 A 
ATOM     15  S   UNL     1      -7.625  13.394  22.192  0.00  0.00    +0.000 S 
ATOM     16  C   UNL     1      -6.264  14.152  22.906  0.00  0.00    +0.000 A 
ATOM     17  C   UNL     1      -6.318  15.205  23.829  0.00  0.00    +0.000 A 
ATOM     18  C   UNL     1      -5.131  15.760  24.283  0.00  0.00    +0.000 A 
ATOM     19  C   UNL     1      -3.976  15.006  24.144  0.00  0.00    +0.000 A 
ATOM     20  C   UNL     1      -3.910  13.938  23.215  0.00  0.00    +0.000 A 
ATOM     21  C   UNL     1      -5.061  13.610  22.431  0.00  0.00    +0.000 A 
BRANCH  18  22
ATOM     22  N   UNL     1      -5.174  16.942  25.036  0.00  0.00    +0.000 N 
ATOM     23  H   UNL     1      -6.132  17.188  25.284  0.00  0.00    +0.000 HD
ATOM     24  H   UNL     1      -4.725  17.725  24.569  0.00  0.00    +0.000 HD
ENDBRANCH  18  22
ENDBRANCH   6  13
BRANCH   1  26
ATOM     25  C   UNL     1       1.443   8.867  19.518  0.00  0.00    +0.000 C 
ATOM     26  C   UNL     1       0.117   9.601  19.566  0.00  0.00    +0.000 C 
ENDBRANCH   1  26
BRANCH   2  27
ATOM     27  O   UNL     1      -1.602   9.717  17.127  0.00  0.00    +0.000 OA
ATOM     28  H   UNL     1      -0.802   9.265  16.802  0.00  0.00    +0.000 HD
ENDBRANCH   2  27
BRANCH  10  29
ATOM     29  C   UNL     1      -0.238  14.432  19.191  0.00  0.00    +0.000 C 
ATOM     30  C   UNL     1      -0.748  15.654  19.938  0.00  0.00    +0.000 C 
ENDBRANCH  10  29
BRANCH  10  31
ATOM     31  C   UNL     1       0.014  12.815  21.201  0.00  0.00    +0.000 C 
ATOM     32  C   UNL     1      -0.717  11.994  22.239  0.00  0.00    +0.000 C 
ENDBRANCH  10  31
TORSDOF 6
ENDMDL
MODEL 8
REMARK VINA RESULT:      -5.9      8.742     11.546
REMARK  Name = 
REMARK  9 active torsions:
REMARK  status: ('A' for Active; 'I' for Inactive)
REMARK    1  A    between atoms: C_1  and  C_2
REMARK    2  A    between atoms: C_2  and  C_3
REMARK    3  A    between atoms: C_4  and  O_5
REMARK    4  A    between atoms: C_9  and  C_10
REMARK    5  A    between atoms: C_15  and  N_16
REMARK    6  A    between atoms: C_23  and  C_24
REMARK    7  A    between atoms: C_23  and  C_26
REMARK    8  A    between atoms: C_24  and  C_25
REMARK    9  A    between atoms: C_26  and  C_27
REMARK                            x       y       z     vdW  Elec       q    Type
REMARK                         _______ _______ _______ _____ _____    ______ ____
ROOT
ATOM      1  C   UNL     1       9.289  11.733  17.898  0.00  0.00    +0.000 C 
ATOM      2  C   UNL     1       8.548  12.776  17.486  0.00  0.00    +0.000 C 
ATOM      3  C   UNL     1       8.471  13.928  18.395  0.00  0.00    +0.000 A 
ATOM      4  C   UNL     1       9.401  14.099  19.371  0.00  0.00    +0.000 A 
ATOM      5  O   UNL     1       9.164  14.984  20.436  0.00  0.00    +0.000 OA
ATOM      6  C   UNL     1       7.940  15.708  20.535  0.00  0.00    +0.000 A 
ATOM      7  C   UNL     1       7.081  15.747  19.509  0.00  0.00    +0.000 A 
ATOM      8  C   UNL     1       7.265  14.823  18.384  0.00  0.00    +0.000 A 
ATOM      9  O   UNL     1       6.381  14.801  17.528  0.00  0.00    +0.000 OA
ATOM     10  C   UNL     1      10.750  13.281  19.406  0.00  0.00    +0.000 C 
ATOM     11  C   UNL     1      10.624  12.178  18.329  0.00  0.00    +0.000 C 
ATOM     12  O   UNL     1      11.602  11.601  17.834  0.00  0.00    +0.000 OA
ENDROOT
BRANCH   6  13
ATOM     13  C   UNL     1       7.698  16.313  21.839  0.00  0.00    +0.000 A 
ATOM     14  C   UNL     1       7.524  17.685  21.888  0.00  0.00    +0.000 A 
ATOM     15  S   UNL     1       7.282  18.283  23.451  0.00  0.00    +0.000 S 
ATOM     16  C   UNL     1       7.909  16.831  24.110  0.00  0.00    +0.000 A 
ATOM     17  C   UNL     1       8.495  16.705  25.377  0.00  0.00    +0.000 A 
ATOM     18  C   UNL     1       9.012  15.477  25.757  0.00  0.00    +0.000 A 
ATOM     19  C   UNL     1       8.569  14.354  25.074  0.00  0.00    +0.000 A 
ATOM     20  C   UNL     1       7.975  14.470  23.793  0.00  0.00    +0.000 A 
ATOM     21  C   UNL     1       7.797  15.763  23.208  0.00  0.00    +0.000 A 
BRANCH  18  22
ATOM     22  N   UNL     1       9.783  15.392  26.925  0.00  0.00    +0.000 N 
ATOM     23  H   UNL     1      10.704  15.809  26.791  0.00  0.00    +0.000 HD
ATOM     24  H   UNL     1       9.880  14.439  27.267  0.00  0.00    +0.000 HD
ENDBRANCH  18  22
ENDBRANCH   6  13
BRANCH   1  26
ATOM     25  C   UNL     1       8.329   9.345  17.910  0.00  0.00    +0.000 C 
ATOM     26  C   UNL     1       8.639  10.616  18.676  0.00  0.00    +0.000 C 
ENDBRANCH   1  26
BRANCH   2  27
ATOM     27  O   UNL     1       7.411  12.531  16.742  0.00  0.00    +0.000 OA
ATOM     28  H   UNL     1       7.426  11.596  16.467  0.00  0.00    +0.000 HD
ENDBRANCH   2  27
BRANCH  10  29
ATOM     29  C   UNL     1      11.990  14.123  18.943  0.00  0.00    +0.000 C 
ATOM     30  C   UNL     1      11.780  15.259  17.954  0.00  0.00    +0.000 C 
ENDBRANCH  10  29
BRANCH  10  31
ATOM     31  C   UNL     1      11.095  12.381  20.641  0.00  0.00    +0.000 C 
ATOM     32  C   UNL     1      10.031  11.953  21.625  0.00  0.00    +0.000 C 
ENDBRANCH  10  31
TORSDOF 6
ENDMDL
MODEL 9
REMARK VINA RESULT:      -5.9      1.909      2.518
REMARK  Name = 
REMARK  9 active torsions:
REMARK  status: ('A' for Active; 'I' for Inactive)
REMARK    1  A    between atoms: C_1  and  C_2
REMARK    2  A    between atoms: C_2  and  C_3
REMARK    3  A    between atoms: C_4  and  O_5
REMARK    4  A    between atoms: C_9  and  C_10
REMARK    5  A    between atoms: C_15  and  N_16
REMARK    6  A    between atoms: C_23  and  C_24
REMARK    7  A    between atoms: C_23  and  C_26
REMARK    8  A    between atoms: C_24  and  C_25
REMARK    9  A    between atoms: C_26  and  C_27
REMARK                            x       y       z     vdW  Elec       q    Type
REMARK                         _______ _______ _______ _____ _____    ______ ____
ROOT
ATOM      1  C   UNL     1      -1.311  12.885  21.381  0.00  0.00    +0.000 C 
ATOM      2  C   UNL     1      -1.069  11.916  22.280  0.00  0.00    +0.000 C 
ATOM      3  C   UNL     1      -0.056  10.916  21.914  0.00  0.00    +0.000 A 
ATOM      4  C   UNL     1       0.854  11.183  20.941  0.00  0.00    +0.000 A 
ATOM      5  O   UNL     1       1.599  10.145  20.355  0.00  0.00    +0.000 OA
ATOM      6  C   UNL     1       1.407   8.788  20.747  0.00  0.00    +0.000 A 
ATOM      7  C   UNL     1       0.688   8.483  21.834  0.00  0.00    +0.000 A 
ATOM      8  C   UNL     1      -0.131   9.522  22.468  0.00  0.00    +0.000 A 
ATOM      9  O   UNL     1      -0.875   9.168  23.382  0.00  0.00    +0.000 OA
ATOM     10  C   UNL     1       1.081  12.636  20.371  0.00  0.00    +0.000 C 
ATOM     11  C   UNL     1      -0.057  13.516  20.942  0.00  0.00    +0.000 C 
ATOM     12  O   UNL     1       0.011  14.751  21.007  0.00  0.00    +0.000 OA
ENDROOT
BRANCH   6  13
ATOM     13  C   UNL     1       1.987   7.808  19.837  0.00  0.00    +0.000 A 
ATOM     14  C   UNL     1       2.392   8.250  18.590  0.00  0.00    +0.000 A 
ATOM     15  S   UNL     1       3.020   7.025  17.607  0.00  0.00    +0.000 S 
ATOM     16  C   UNL     1       2.297   5.841  18.611  0.00  0.00    +0.000 A 
ATOM     17  C   UNL     1       1.948   4.544  18.209  0.00  0.00    +0.000 A 
ATOM     18  C   UNL     1       1.316   3.708  19.116  0.00  0.00    +0.000 A 
ATOM     19  C   UNL     1       1.430   4.019  20.463  0.00  0.00    +0.000 A 
ATOM     20  C   UNL     1       1.783   5.326  20.881  0.00  0.00    +0.000 A 
ATOM     21  C   UNL     1       2.058   6.332  19.903  0.00  0.00    +0.000 A 
BRANCH  18  22
ATOM     22  N   UNL     1       0.776   2.495  18.666  0.00  0.00    +0.000 N 
ATOM     23  H   UNL     1       1.500   1.892  18.275  0.00  0.00    +0.000 HD
ATOM     24  H   UNL     1       0.027   2.621  17.991  0.00  0.00    +0.000 HD
ENDBRANCH  18  22
ENDBRANCH   6  13
BRANCH   1  26
ATOM     25  C   UNL     1      -3.707  13.413  20.600  0.00  0.00    +0.000 C 
ATOM     26  C   UNL     1      -2.396  12.694  20.351  0.00  0.00    +0.000 C 
ENDBRANCH   1  26
BRANCH   2  27
ATOM     27  O   UNL     1      -2.116  11.445  23.048  0.00  0.00    +0.000 OA
ATOM     28  H   UNL     1      -2.412  10.597  22.667  0.00  0.00    +0.000 HD
ENDBRANCH   2  27
BRANCH  10  29
ATOM     29  C   UNL     1       2.390  13.311  20.912  0.00  0.00    +0.000 C 
ATOM     30  C   UNL     1       3.069  14.379  20.069  0.00  0.00    +0.000 C 
ENDBRANCH  10  29
BRANCH  10  31
ATOM     31  C   UNL     1       0.873  12.928  18.845  0.00  0.00    +0.000 C 
ATOM     32  C   UNL     1       1.830  12.391  17.805  0.00  0.00    +0.000 C 
ENDBRANCH  10  31
TORSDOF 6
ENDMDL
