MODEL 1
REMARK VINA RESULT:      -6.8      0.000      0.000
REMARK  Name = 
REMARK  2 active torsions:
REMARK  status: ('A' for Active; 'I' for Inactive)
REMARK    1  A    between atoms: C_4  and  C_5
REMARK    2  A    between atoms: C_5  and  N_6
REMARK                            x       y       z     vdW  Elec       q    Type
REMARK                         _______ _______ _______ _____ _____    ______ ____
ROOT
ATOM      1  N   UNL     1       6.068   5.150  14.456  0.00  0.00    +0.000 N 
ATOM      2  C   UNL     1       6.159   4.710  15.794  0.00  0.00    +0.000 A 
ATOM      3  C   UNL     1       7.343   4.910  16.482  0.00  0.00    +0.000 A 
ATOM      4  C   UNL     1       7.308   4.623  17.826  0.00  0.00    +0.000 A 
ATOM      5  N   UNL     1       6.209   4.218  18.465  0.00  0.00    +0.000 NA
ATOM      6  C   UNL     1       5.097   4.036  17.742  0.00  0.00    +0.000 A 
ATOM      7  N   UNL     1       3.959   3.622  18.367  0.00  0.00    +0.000 N 
ATOM      8  C   UNL     1       3.917   3.413  19.810  0.00  0.00    +0.000 C 
ATOM      9  C   UNL     1       2.790   4.250  20.425  0.00  0.00    +0.000 C 
ATOM     10  S   UNL     1       1.145   3.820  19.740  0.00  0.00    +0.000 S 
ATOM     11  C   UNL     1       1.563   3.976  17.963  0.00  0.00    +0.000 C 
ATOM     12  C   UNL     1       2.810   3.170  17.594  0.00  0.00    +0.000 C 
ATOM     13  N   UNL     1       5.060   4.277  16.419  0.00  0.00    +0.000 NA
ATOM     14  H   UNL     1       5.816   6.139  14.506  0.00  0.00    +0.000 HD
ENDROOT
BRANCH   1  15
ATOM     15  C   UNL     1       5.103   4.408  13.621  0.00  0.00    +0.000 C 
BRANCH  15  19
ATOM     16  C   UNL     1       7.143   1.736  10.861  0.00  0.00    +0.000 A 
ATOM     17  C   UNL     1       5.790   1.567  11.143  0.00  0.00    +0.000 A 
ATOM     18  C   UNL     1       5.131   2.461  11.994  0.00  0.00    +0.000 A 
ATOM     19  C   UNL     1       5.823   3.507  12.623  0.00  0.00    +0.000 A 
ATOM     20  C   UNL     1       7.180   3.688  12.295  0.00  0.00    +0.000 A 
ATOM     21  C   UNL     1       7.833   2.806  11.421  0.00  0.00    +0.000 A 
ENDBRANCH  15  19
ENDBRANCH   1  15
TORSDOF 2
ENDMDL
MODEL 2
REMARK VINA RESULT:      -6.8      6.665      9.401
REMARK  Name = 
REMARK  2 active torsions:
REMARK  status: ('A' for Active; 'I' for Inactive)
REMARK    1  A    between atoms: C_4  and  C_5
REMARK    2  A    between atoms: C_5  and  N_6
REMARK                            x       y       z     vdW  Elec       q    Type
REMARK                         _______ _______ _______ _____ _____    ______ ____
ROOT
ATOM      1  N   UNL     1       1.820   7.675  21.254  0.00  0.00    +0.000 N 
ATOM      2  C   UNL     1       0.972   8.792  21.406  0.00  0.00    +0.000 A 
ATOM      3  C   UNL     1       0.153   8.860  22.520  0.00  0.00    +0.000 A 
ATOM      4  C   UNL     1      -0.513  10.049  22.698  0.00  0.00    +0.000 A 
ATOM      5  N   UNL     1      -0.368  11.103  21.894  0.00  0.00    +0.000 NA
ATOM      6  C   UNL     1       0.432  10.972  20.829  0.00  0.00    +0.000 A 
ATOM      7  N   UNL     1       0.598  12.031  19.988  0.00  0.00    +0.000 N 
ATOM      8  C   UNL     1      -0.044  13.315  20.247  0.00  0.00    +0.000 C 
ATOM      9  C   UNL     1       1.011  14.427  20.286  0.00  0.00    +0.000 C 
ATOM     10  S   UNL     1       1.943  14.563  18.713  0.00  0.00    +0.000 S 
ATOM     11  C   UNL     1       2.441  12.806  18.561  0.00  0.00    +0.000 C 
ATOM     12  C   UNL     1       1.247  11.859  18.695  0.00  0.00    +0.000 C 
ATOM     13  N   UNL     1       1.101   9.832  20.577  0.00  0.00    +0.000 NA
ATOM     14  H   UNL     1       2.659   7.888  21.798  0.00  0.00    +0.000 HD
ENDROOT
BRANCH   1  15
ATOM     15  C   UNL     1       2.174   7.346  19.859  0.00  0.00    +0.000 C 
BRANCH  15  19
ATOM     16  C   UNL     1       1.292   3.192  18.920  0.00  0.00    +0.000 A 
ATOM     17  C   UNL     1       1.783   4.052  17.941  0.00  0.00    +0.000 A 
ATOM     18  C   UNL     1       2.110   5.373  18.265  0.00  0.00    +0.000 A 
ATOM     19  C   UNL     1       1.901   5.876  19.557  0.00  0.00    +0.000 A 
ATOM     20  C   UNL     1       1.442   4.983  20.544  0.00  0.00    +0.000 A 
ATOM     21  C   UNL     1       1.140   3.651  20.224  0.00  0.00    +0.000 A 
ENDBRANCH  15  19
ENDBRANCH   1  15
TORSDOF 2
ENDMDL
MODEL 3
REMARK VINA RESULT:      -6.7      2.241      3.176
REMARK  Name = 
REMARK  2 active torsions:
REMARK  status: ('A' for Active; 'I' for Inactive)
REMARK    1  A    between atoms: C_4  and  C_5
REMARK    2  A    between atoms: C_5  and  N_6
REMARK                            x       y       z     vdW  Elec       q    Type
REMARK                         _______ _______ _______ _____ _____    ______ ____
ROOT
ATOM      1  N   UNL     1       5.040   6.608  15.804  0.00  0.00    +0.000 N 
ATOM      2  C   UNL     1       4.308   6.810  16.994  0.00  0.00    +0.000 A 
ATOM      3  C   UNL     1       3.666   8.022  17.183  0.00  0.00    +0.000 A 
ATOM      4  C   UNL     1       2.830   8.089  18.272  0.00  0.00    +0.000 A 
ATOM      5  N   UNL     1       2.596   7.061  19.088  0.00  0.00    +0.000 NA
ATOM      6  C   UNL     1       3.254   5.918  18.856  0.00  0.00    +0.000 A 
ATOM      7  N   UNL     1       3.037   4.849  19.674  0.00  0.00    +0.000 N 
ATOM      8  C   UNL     1       2.075   4.912  20.768  0.00  0.00    +0.000 C 
ATOM      9  C   UNL     1       1.054   3.778  20.629  0.00  0.00    +0.000 C 
ATOM     10  S   UNL     1       1.839   2.121  20.657  0.00  0.00    +0.000 S 
ATOM     11  C   UNL     1       3.093   2.415  19.354  0.00  0.00    +0.000 C 
ATOM     12  C   UNL     1       3.908   3.682  19.618  0.00  0.00    +0.000 C 
ATOM     13  N   UNL     1       4.104   5.782  17.822  0.00  0.00    +0.000 NA
ATOM     14  H   UNL     1       4.357   6.300  15.108  0.00  0.00    +0.000 HD
ENDROOT
BRANCH   1  15
ATOM     15  C   UNL     1       6.147   5.639  15.912  0.00  0.00    +0.000 C 
BRANCH  15  19
ATOM     16  C   UNL     1       6.933   3.885  12.010  0.00  0.00    +0.000 A 
ATOM     17  C   UNL     1       7.780   4.858  12.534  0.00  0.00    +0.000 A 
ATOM     18  C   UNL     1       7.547   5.380  13.811  0.00  0.00    +0.000 A 
ATOM     19  C   UNL     1       6.433   4.982  14.565  0.00  0.00    +0.000 A 
ATOM     20  C   UNL     1       5.610   3.969  14.038  0.00  0.00    +0.000 A 
ATOM     21  C   UNL     1       5.860   3.427  12.768  0.00  0.00    +0.000 A 
ENDBRANCH  15  19
ENDBRANCH   1  15
TORSDOF 2
ENDMDL
MODEL 4
REMARK VINA RESULT:      -6.7      6.663      9.396
REMARK  Name = 
REMARK  2 active torsions:
REMARK  status: ('A' for Active; 'I' for Inactive)
REMARK    1  A    between atoms: C_4  and  C_5
REMARK    2  A    between atoms: C_5  and  N_6
REMARK                            x       y       z     vdW  Elec       q    Type
REMARK                         _______ _______ _______ _____ _____    ______ ____
ROOT
ATOM      1  N   UNL     1       1.824   7.667  21.262  0.00  0.00    +0.000 N 
ATOM      2  C   UNL     1       0.974   8.784  21.416  0.00  0.00    +0.000 A 
ATOM      3  C   UNL     1       0.155   8.848  22.529  0.00  0.00    +0.000 A 
ATOM      4  C   UNL     1      -0.512  10.036  22.711  0.00  0.00    +0.000 A 
ATOM      5  N   UNL     1      -0.368  11.093  21.910  0.00  0.00    +0.000 NA
ATOM      6  C   UNL     1       0.434  10.965  20.845  0.00  0.00    +0.000 A 
ATOM      7  N   UNL     1       0.601  12.027  20.008  0.00  0.00    +0.000 N 
ATOM      8  C   UNL     1      -0.043  13.309  20.270  0.00  0.00    +0.000 C 
ATOM      9  C   UNL     1       1.011  14.422  20.313  0.00  0.00    +0.000 C 
ATOM     10  S   UNL     1       1.945  14.564  18.741  0.00  0.00    +0.000 S 
ATOM     11  C   UNL     1       2.444  12.807  18.585  0.00  0.00    +0.000 C 
ATOM     12  C   UNL     1       1.251  11.859  18.715  0.00  0.00    +0.000 C 
ATOM     13  N   UNL     1       1.104   9.826  20.591  0.00  0.00    +0.000 NA
ATOM     14  H   UNL     1       2.662   7.879  21.808  0.00  0.00    +0.000 HD
ENDROOT
BRANCH   1  15
ATOM     15  C   UNL     1       2.179   7.343  19.866  0.00  0.00    +0.000 C 
BRANCH  15  19
ATOM     16  C   UNL     1       1.429   3.137  19.050  0.00  0.00    +0.000 A 
ATOM     17  C   UNL     1       1.180   3.671  20.312  0.00  0.00    +0.000 A 
ATOM     18  C   UNL     1       1.377   5.035  20.551  0.00  0.00    +0.000 A 
ATOM     19  C   UNL     1       1.881   5.881  19.552  0.00  0.00    +0.000 A 
ATOM     20  C   UNL     1       2.089   5.334  18.271  0.00  0.00    +0.000 A 
ATOM     21  C   UNL     1       1.865   3.971  18.026  0.00  0.00    +0.000 A 
ENDBRANCH  15  19
ENDBRANCH   1  15
TORSDOF 2
ENDMDL
MODEL 5
REMARK VINA RESULT:      -6.7      4.438      9.078
REMARK  Name = 
REMARK  2 active torsions:
REMARK  status: ('A' for Active; 'I' for Inactive)
REMARK    1  A    between atoms: C_4  and  C_5
REMARK    2  A    between atoms: C_5  and  N_6
REMARK                            x       y       z     vdW  Elec       q    Type
REMARK                         _______ _______ _______ _____ _____    ______ ____
ROOT
ATOM      1  N   UNL     1       1.152   6.722  20.702  0.00  0.00    +0.000 N 
ATOM      2  C   UNL     1       2.091   5.702  20.440  0.00  0.00    +0.000 A 
ATOM      3  C   UNL     1       1.906   4.461  21.025  0.00  0.00    +0.000 A 
ATOM      4  C   UNL     1       2.749   3.466  20.591  0.00  0.00    +0.000 A 
ATOM      5  N   UNL     1       3.668   3.640  19.639  0.00  0.00    +0.000 NA
ATOM      6  C   UNL     1       3.802   4.866  19.118  0.00  0.00    +0.000 A 
ATOM      7  N   UNL     1       4.733   5.076  18.145  0.00  0.00    +0.000 N 
ATOM      8  C   UNL     1       5.554   3.985  17.632  0.00  0.00    +0.000 C 
ATOM      9  C   UNL     1       5.403   3.890  16.110  0.00  0.00    +0.000 C 
ATOM     10  S   UNL     1       5.909   5.433  15.258  0.00  0.00    +0.000 S 
ATOM     11  C   UNL     1       4.887   6.604  16.229  0.00  0.00    +0.000 C 
ATOM     12  C   UNL     1       5.088   6.428  17.735  0.00  0.00    +0.000 C 
ATOM     13  N   UNL     1       3.027   5.895  19.507  0.00  0.00    +0.000 NA
ATOM     14  H   UNL     1       0.390   6.576  20.037  0.00  0.00    +0.000 HD
ENDROOT
BRANCH   1  15
ATOM     15  C   UNL     1       1.680   8.097  20.595  0.00  0.00    +0.000 C 
BRANCH  15  19
ATOM     16  C   UNL     1      -0.947  11.057  22.399  0.00  0.00    +0.000 A 
ATOM     17  C   UNL     1      -0.632  11.119  21.044  0.00  0.00    +0.000 A 
ATOM     18  C   UNL     1       0.174  10.134  20.463  0.00  0.00    +0.000 A 
ATOM     19  C   UNL     1       0.726   9.101  21.234  0.00  0.00    +0.000 A 
ATOM     20  C   UNL     1       0.366   9.029  22.593  0.00  0.00    +0.000 A 
ATOM     21  C   UNL     1      -0.464  10.003  23.169  0.00  0.00    +0.000 A 
ENDBRANCH  15  19
ENDBRANCH   1  15
TORSDOF 2
ENDMDL
MODEL 6
REMARK VINA RESULT:      -6.6      4.478      9.095
REMARK  Name = 
REMARK  2 active torsions:
REMARK  status: ('A' for Active; 'I' for Inactive)
REMARK    1  A    between atoms: C_4  and  C_5
REMARK    2  A    between atoms: C_5  and  N_6
REMARK                            x       y       z     vdW  Elec       q    Type
REMARK                         _______ _______ _______ _____ _____    ______ ____
ROOT
ATOM      1  N   UNL     1       1.175   6.840  20.719  0.00  0.00    +0.000 N 
ATOM      2  C   UNL     1       2.089   5.798  20.451  0.00  0.00    +0.000 A 
ATOM      3  C   UNL     1       1.880   4.563  21.040  0.00  0.00    +0.000 A 
ATOM      4  C   UNL     1       2.697   3.548  20.601  0.00  0.00    +0.000 A 
ATOM      5  N   UNL     1       3.611   3.699  19.642  0.00  0.00    +0.000 NA
ATOM      6  C   UNL     1       3.770   4.921  19.118  0.00  0.00    +0.000 A 
ATOM      7  N   UNL     1       4.698   5.107  18.137  0.00  0.00    +0.000 N 
ATOM      8  C   UNL     1       5.490   3.997  17.620  0.00  0.00    +0.000 C 
ATOM      9  C   UNL     1       5.324   3.903  16.099  0.00  0.00    +0.000 C 
ATOM     10  S   UNL     1       5.859   5.432  15.240  0.00  0.00    +0.000 S 
ATOM     11  C   UNL     1       4.872   6.628  16.217  0.00  0.00    +0.000 C 
ATOM     12  C   UNL     1       5.081   6.450  17.722  0.00  0.00    +0.000 C 
ATOM     13  N   UNL     1       3.022   5.968  19.510  0.00  0.00    +0.000 NA
ATOM     14  H   UNL     1       0.405   6.710  20.059  0.00  0.00    +0.000 HD
ENDROOT
BRANCH   1  15
ATOM     15  C   UNL     1       1.734   8.202  20.604  0.00  0.00    +0.000 C 
BRANCH  15  19
ATOM     16  C   UNL     1      -1.032  11.042  22.392  0.00  0.00    +0.000 A 
ATOM     17  C   UNL     1      -0.431  10.053  23.166  0.00  0.00    +0.000 A 
ATOM     18  C   UNL     1       0.495   9.176  22.593  0.00  0.00    +0.000 A 
ATOM     19  C   UNL     1       0.796   9.232  21.224  0.00  0.00    +0.000 A 
ATOM     20  C   UNL     1       0.210  10.262  20.464  0.00  0.00    +0.000 A 
ATOM     21  C   UNL     1      -0.698  11.158  21.047  0.00  0.00    +0.000 A 
ENDBRANCH  15  19
ENDBRANCH   1  15
TORSDOF 2
ENDMDL
MODEL 7
REMARK VINA RESULT:      -6.6     10.128     12.709
REMARK  Name = 
REMARK  2 active torsions:
REMARK  status: ('A' for Active; 'I' for Inactive)
REMARK    1  A    between atoms: C_4  and  C_5
REMARK    2  A    between atoms: C_5  and  N_6
REMARK                            x       y       z     vdW  Elec       q    Type
REMARK                         _______ _______ _______ _____ _____    ______ ____
ROOT
ATOM      1  N   UNL     1      -0.821  10.549  17.982  0.00  0.00    +0.000 N 
ATOM      2  C   UNL     1      -2.082  10.922  17.470  0.00  0.00    +0.000 A 
ATOM      3  C   UNL     1      -2.437  10.497  16.201  0.00  0.00    +0.000 A 
ATOM      4  C   UNL     1      -3.739  10.741  15.834  0.00  0.00    +0.000 A 
ATOM      5  N   UNL     1      -4.639  11.308  16.639  0.00  0.00    +0.000 NA
ATOM      6  C   UNL     1      -4.231  11.704  17.851  0.00  0.00    +0.000 A 
ATOM      7  N   UNL     1      -5.127  12.288  18.696  0.00  0.00    +0.000 N 
ATOM      8  C   UNL     1      -6.527  12.453  18.322  0.00  0.00    +0.000 C 
ATOM      9  C   UNL     1      -7.428  11.804  19.379  0.00  0.00    +0.000 C 
ATOM     10  S   UNL     1      -7.193  12.536  21.044  0.00  0.00    +0.000 S 
ATOM     11  C   UNL     1      -5.371  12.368  21.138  0.00  0.00    +0.000 C 
ATOM     12  C   UNL     1      -4.677  12.958  19.909  0.00  0.00    +0.000 C 
ATOM     13  N   UNL     1      -2.967  11.518  18.274  0.00  0.00    +0.000 NA
ATOM     14  H   UNL     1      -0.949   9.617  18.382  0.00  0.00    +0.000 HD
ENDROOT
BRANCH   1  15
ATOM     15  C   UNL     1      -0.259  11.474  18.985  0.00  0.00    +0.000 C 
BRANCH  15  19
ATOM     16  C   UNL     1      -0.497   9.645  22.925  0.00  0.00    +0.000 A 
ATOM     17  C   UNL     1      -0.006   8.927  21.837  0.00  0.00    +0.000 A 
ATOM     18  C   UNL     1       0.113   9.539  20.585  0.00  0.00    +0.000 A 
ATOM     19  C   UNL     1      -0.308  10.862  20.382  0.00  0.00    +0.000 A 
ATOM     20  C   UNL     1      -0.764  11.586  21.500  0.00  0.00    +0.000 A 
ATOM     21  C   UNL     1      -0.858  10.978  22.760  0.00  0.00    +0.000 A 
ENDBRANCH  15  19
ENDBRANCH   1  15
TORSDOF 2
ENDMDL
MODEL 8
REMARK VINA RESULT:      -6.6      2.162      2.807
REMARK  Name = 
REMARK  2 active torsions:
REMARK  status: ('A' for Active; 'I' for Inactive)
REMARK    1  A    between atoms: C_4  and  C_5
REMARK    2  A    between atoms: C_5  and  N_6
REMARK                            x       y       z     vdW  Elec       q    Type
REMARK                         _______ _______ _______ _____ _____    ______ ____
ROOT
ATOM      1  N   UNL     1       5.227   6.634  15.694  0.00  0.00    +0.000 N 
ATOM      2  C   UNL     1       4.441   6.733  16.862  0.00  0.00    +0.000 A 
ATOM      3  C   UNL     1       3.857   7.949  17.171  0.00  0.00    +0.000 A 
ATOM      4  C   UNL     1       2.966   7.934  18.217  0.00  0.00    +0.000 A 
ATOM      5  N   UNL     1       2.630   6.829  18.884  0.00  0.00    +0.000 NA
ATOM      6  C   UNL     1       3.237   5.685  18.543  0.00  0.00    +0.000 A 
ATOM      7  N   UNL     1       2.916   4.539  19.208  0.00  0.00    +0.000 N 
ATOM      8  C   UNL     1       1.898   4.527  20.253  0.00  0.00    +0.000 C 
ATOM      9  C   UNL     1       0.825   3.483  19.922  0.00  0.00    +0.000 C 
ATOM     10  S   UNL     1       1.515   1.790  19.780  0.00  0.00    +0.000 S 
ATOM     11  C   UNL     1       2.856   2.164  18.587  0.00  0.00    +0.000 C 
ATOM     12  C   UNL     1       3.723   3.337  19.048  0.00  0.00    +0.000 C 
ATOM     13  N   UNL     1       4.135   5.625  17.543  0.00  0.00    +0.000 NA
ATOM     14  H   UNL     1       4.569   6.456  14.932  0.00  0.00    +0.000 HD
ENDROOT
BRANCH   1  15
ATOM     15  C   UNL     1       6.272   5.592  15.733  0.00  0.00    +0.000 C 
BRANCH  15  19
ATOM     16  C   UNL     1       6.791   3.618  11.892  0.00  0.00    +0.000 A 
ATOM     17  C   UNL     1       5.685   3.339  12.689  0.00  0.00    +0.000 A 
ATOM     18  C   UNL     1       5.501   4.015  13.900  0.00  0.00    +0.000 A 
ATOM     19  C   UNL     1       6.447   4.941  14.364  0.00  0.00    +0.000 A 
ATOM     20  C   UNL     1       7.539   5.242  13.528  0.00  0.00    +0.000 A 
ATOM     21  C   UNL     1       7.707   4.582  12.301  0.00  0.00    +0.000 A 
ENDBRANCH  15  19
ENDBRANCH   1  15
TORSDOF 2
ENDMDL
MODEL 9
REMARK VINA RESULT:      -6.6     10.035     12.677
REMARK  Name = 
REMARK  2 active torsions:
REMARK  status: ('A' for Active; 'I' for Inactive)
REMARK    1  A    between atoms: C_4  and  C_5
REMARK    2  A    between atoms: C_5  and  N_6
REMARK                            x       y       z     vdW  Elec       q    Type
REMARK                         _______ _______ _______ _____ _____    ______ ____
ROOT
ATOM      1  N   UNL     1      -0.875  10.407  18.008  0.00  0.00    +0.000 N 
ATOM      2  C   UNL     1      -2.116  10.818  17.477  0.00  0.00    +0.000 A 
ATOM      3  C   UNL     1      -2.469  10.397  16.207  0.00  0.00    +0.000 A 
ATOM      4  C   UNL     1      -3.757  10.682  15.821  0.00  0.00    +0.000 A 
ATOM      5  N   UNL     1      -4.647  11.285  16.610  0.00  0.00    +0.000 NA
ATOM      6  C   UNL     1      -4.242  11.675  17.824  0.00  0.00    +0.000 A 
ATOM      7  N   UNL     1      -5.129  12.296  18.653  0.00  0.00    +0.000 N 
ATOM      8  C   UNL     1      -6.517  12.505  18.260  0.00  0.00    +0.000 C 
ATOM      9  C   UNL     1      -7.453  11.894  19.309  0.00  0.00    +0.000 C 
ATOM     10  S   UNL     1      -7.215  12.629  20.972  0.00  0.00    +0.000 S 
ATOM     11  C   UNL     1      -5.401  12.401  21.091  0.00  0.00    +0.000 C 
ATOM     12  C   UNL     1      -4.672  12.958  19.867  0.00  0.00    +0.000 C 
ATOM     13  N   UNL     1      -2.991  11.449  18.265  0.00  0.00    +0.000 NA
ATOM     14  H   UNL     1      -1.039   9.483  18.413  0.00  0.00    +0.000 HD
ENDROOT
BRANCH   1  15
ATOM     15  C   UNL     1      -0.295  11.320  19.012  0.00  0.00    +0.000 C 
BRANCH  15  19
ATOM     16  C   UNL     1      -0.187   9.584  22.999  0.00  0.00    +0.000 A 
ATOM     17  C   UNL     1      -0.857  10.782  22.765  0.00  0.00    +0.000 A 
ATOM     18  C   UNL     1      -0.928  11.307  21.470  0.00  0.00    +0.000 A 
ATOM     19  C   UNL     1      -0.284  10.676  20.395  0.00  0.00    +0.000 A 
ATOM     20  C   UNL     1       0.354   9.445  20.642  0.00  0.00    +0.000 A 
ATOM     21  C   UNL     1       0.402   8.907  21.936  0.00  0.00    +0.000 A 
ENDBRANCH  15  19
ENDBRANCH   1  15
TORSDOF 2
ENDMDL
