MODEL 1
REMARK VINA RESULT:      -8.4      0.000      0.000
REMARK  Name = 
REMARK  4 active torsions:
REMARK  status: ('A' for Active; 'I' for Inactive)
REMARK    1  A    between atoms: C_2  and  C_3
REMARK    2  A    between atoms: C_3  and  C_4
REMARK    3  A    between atoms: N_6  and  N_7
REMARK    4  A    between atoms: C_16  and  C_17
REMARK                            x       y       z     vdW  Elec       q    Type
REMARK                         _______ _______ _______ _____ _____    ______ ____
ROOT
ATOM      1  N   UNL     1       4.623   3.547  17.330  0.00  0.00    +0.000 NA
ATOM      2  C   UNL     1       3.641   3.766  18.148  0.00  0.00    +0.000 C 
ATOM      3  C   UNL     1       2.270   3.310  17.664  0.00  0.00    +0.000 C 
ATOM      4  O   UNL     1       1.861   3.610  16.556  0.00  0.00    +0.000 OA
ATOM      5  N   UNL     1       1.565   2.567  18.571  0.00  0.00    +0.000 N 
ATOM      6  C   UNL     1       1.604   2.828  19.916  0.00  0.00    +0.000 C 
ATOM      7  O   UNL     1       0.642   2.681  20.654  0.00  0.00    +0.000 OA
ATOM      8  C   UNL     1       2.932   3.361  20.448  0.00  0.00    +0.000 C 
ATOM      9  O   UNL     1       3.373   2.966  21.521  0.00  0.00    +0.000 OA
ATOM     10  C   UNL     1       3.674   4.294  19.544  0.00  0.00    +0.000 C 
ATOM     11  H   UNL     1       0.649   2.286  18.243  0.00  0.00    +0.000 HD
ENDROOT
BRANCH  10  12
ATOM     12  C   UNL     1       3.018   5.643  19.578  0.00  0.00    +0.000 A 
ATOM     13  N   UNL     1       2.312   6.098  20.591  0.00  0.00    +0.000 NA
ATOM     14  C   UNL     1       1.789   7.353  20.290  0.00  0.00    +0.000 A 
ATOM     15  C   UNL     1       0.962   8.132  21.125  0.00  0.00    +0.000 A 
ATOM     16  C   UNL     1       0.484   9.372  20.682  0.00  0.00    +0.000 A 
ATOM     17  C   UNL     1       0.829   9.849  19.422  0.00  0.00    +0.000 A 
ATOM     18  C   UNL     1       1.657   9.101  18.578  0.00  0.00    +0.000 A 
ATOM     19  C   UNL     1       2.125   7.853  19.030  0.00  0.00    +0.000 A 
ATOM     20  S   UNL     1       3.132   6.704  18.230  0.00  0.00    +0.000 S 
ENDBRANCH  10  12
BRANCH   1  23
ATOM     21  C   UNL     1       6.774   4.260  16.670  0.00  0.00    +0.000 C 
ATOM     22  O   UNL     1       7.954   4.496  16.932  0.00  0.00    +0.000 OA
ATOM     23  N   UNL     1       5.917   3.778  17.647  0.00  0.00    +0.000 N 
ATOM     24  H   UNL     1       6.329   3.574  18.552  0.00  0.00    +0.000 HD
BRANCH  21  25
ATOM     25  C   UNL     1       6.166   4.524  15.307  0.00  0.00    +0.000 C 
BRANCH  25  27
ATOM     26  N   UNL     1       7.941   5.511  13.640  0.00  0.00    +0.000 NA
ATOM     27  C   UNL     1       7.163   5.088  14.385  0.00  0.00    +0.000 C 
ENDBRANCH  25  27
ENDBRANCH  21  25
ENDBRANCH   1  23
TORSDOF 4
ENDMDL
MODEL 2
REMARK VINA RESULT:      -8.2      1.141      1.563
REMARK  Name = 
REMARK  4 active torsions:
REMARK  status: ('A' for Active; 'I' for Inactive)
REMARK    1  A    between atoms: C_2  and  C_3
REMARK    2  A    between atoms: C_3  and  C_4
REMARK    3  A    between atoms: N_6  and  N_7
REMARK    4  A    between atoms: C_16  and  C_17
REMARK                            x       y       z     vdW  Elec       q    Type
REMARK                         _______ _______ _______ _____ _____    ______ ____
ROOT
ATOM      1  N   UNL     1       4.804   3.469  18.032  0.00  0.00    +0.000 NA
ATOM      2  C   UNL     1       3.665   3.769  18.574  0.00  0.00    +0.000 C 
ATOM      3  C   UNL     1       2.432   3.294  17.816  0.00  0.00    +0.000 C 
ATOM      4  O   UNL     1       2.305   3.507  16.622  0.00  0.00    +0.000 OA
ATOM      5  N   UNL     1       1.508   2.640  18.585  0.00  0.00    +0.000 N 
ATOM      6  C   UNL     1       1.238   3.012  19.876  0.00  0.00    +0.000 C 
ATOM      7  O   UNL     1       0.126   2.941  20.373  0.00  0.00    +0.000 OA
ATOM      8  C   UNL     1       2.421   3.568  20.665  0.00  0.00    +0.000 C 
ATOM      9  O   UNL     1       2.584   3.258  21.839  0.00  0.00    +0.000 OA
ATOM     10  C   UNL     1       3.386   4.412  19.893  0.00  0.00    +0.000 C 
ATOM     11  H   UNL     1       0.686   2.346  18.071  0.00  0.00    +0.000 HD
ENDROOT
BRANCH  10  12
ATOM     12  C   UNL     1       2.787   5.768  19.665  0.00  0.00    +0.000 A 
ATOM     13  N   UNL     1       2.973   6.486  18.578  0.00  0.00    +0.000 NA
ATOM     14  C   UNL     1       2.333   7.717  18.699  0.00  0.00    +0.000 A 
ATOM     15  C   UNL     1       2.338   8.755  17.743  0.00  0.00    +0.000 A 
ATOM     16  C   UNL     1       1.670   9.957  18.008  0.00  0.00    +0.000 A 
ATOM     17  C   UNL     1       0.990  10.134  19.208  0.00  0.00    +0.000 A 
ATOM     18  C   UNL     1       0.959   9.117  20.168  0.00  0.00    +0.000 A 
ATOM     19  C   UNL     1       1.641   7.916  19.895  0.00  0.00    +0.000 A 
ATOM     20  S   UNL     1       1.804   6.503  20.870  0.00  0.00    +0.000 S 
ENDBRANCH  10  12
BRANCH   1  23
ATOM     21  C   UNL     1       6.775   4.760  18.178  0.00  0.00    +0.000 C 
ATOM     22  O   UNL     1       7.856   5.012  18.710  0.00  0.00    +0.000 OA
ATOM     23  N   UNL     1       5.994   3.707  18.628  0.00  0.00    +0.000 N 
ATOM     24  H   UNL     1       6.391   3.130  19.364  0.00  0.00    +0.000 HD
BRANCH  21  25
ATOM     25  C   UNL     1       6.200   5.594  17.051  0.00  0.00    +0.000 C 
BRANCH  25  27
ATOM     26  N   UNL     1       7.509   5.216  14.805  0.00  0.00    +0.000 NA
ATOM     27  C   UNL     1       6.947   5.382  15.802  0.00  0.00    +0.000 C 
ENDBRANCH  25  27
ENDBRANCH  21  25
ENDBRANCH   1  23
TORSDOF 4
ENDMDL
MODEL 3
REMARK VINA RESULT:      -8.2      1.330      1.405
REMARK  Name = 
REMARK  4 active torsions:
REMARK  status: ('A' for Active; 'I' for Inactive)
REMARK    1  A    between atoms: C_2  and  C_3
REMARK    2  A    between atoms: C_3  and  C_4
REMARK    3  A    between atoms: N_6  and  N_7
REMARK    4  A    between atoms: C_16  and  C_17
REMARK                            x       y       z     vdW  Elec       q    Type
REMARK                         _______ _______ _______ _____ _____    ______ ____
ROOT
ATOM      1  N   UNL     1       4.879   3.556  18.130  0.00  0.00    +0.000 NA
ATOM      2  C   UNL     1       3.727   3.902  18.614  0.00  0.00    +0.000 C 
ATOM      3  C   UNL     1       2.516   3.460  17.803  0.00  0.00    +0.000 C 
ATOM      4  O   UNL     1       2.453   3.661  16.602  0.00  0.00    +0.000 OA
ATOM      5  N   UNL     1       1.535   2.847  18.534  0.00  0.00    +0.000 N 
ATOM      6  C   UNL     1       1.217   3.245  19.807  0.00  0.00    +0.000 C 
ATOM      7  O   UNL     1       0.081   3.218  20.251  0.00  0.00    +0.000 OA
ATOM      8  C   UNL     1       2.380   3.771  20.645  0.00  0.00    +0.000 C 
ATOM      9  O   UNL     1       2.476   3.471  21.829  0.00  0.00    +0.000 OA
ATOM     10  C   UNL     1       3.409   4.571  19.911  0.00  0.00    +0.000 C 
ATOM     11  H   UNL     1       0.729   2.575  17.985  0.00  0.00    +0.000 HD
ENDROOT
BRANCH  10  12
ATOM     12  C   UNL     1       2.868   5.944  19.639  0.00  0.00    +0.000 A 
ATOM     13  N   UNL     1       2.108   6.618  20.475  0.00  0.00    +0.000 NA
ATOM     14  C   UNL     1       1.724   7.830  19.906  0.00  0.00    +0.000 A 
ATOM     15  C   UNL     1       0.887   8.799  20.498  0.00  0.00    +0.000 A 
ATOM     16  C   UNL     1       0.561   9.968  19.798  0.00  0.00    +0.000 A 
ATOM     17  C   UNL     1       1.065  10.186  18.521  0.00  0.00    +0.000 A 
ATOM     18  C   UNL     1       1.906   9.247  17.914  0.00  0.00    +0.000 A 
ATOM     19  C   UNL     1       2.222   8.072  18.624  0.00  0.00    +0.000 A 
ATOM     20  S   UNL     1       3.201   6.735  18.149  0.00  0.00    +0.000 S 
ENDBRANCH  10  12
BRANCH   1  23
ATOM     21  C   UNL     1       6.939   4.699  18.283  0.00  0.00    +0.000 C 
ATOM     22  O   UNL     1       8.004   4.920  18.860  0.00  0.00    +0.000 OA
ATOM     23  N   UNL     1       6.048   3.761  18.780  0.00  0.00    +0.000 N 
ATOM     24  H   UNL     1       6.350   3.234  19.593  0.00  0.00    +0.000 HD
BRANCH  21  25
ATOM     25  C   UNL     1       6.505   5.455  17.044  0.00  0.00    +0.000 C 
BRANCH  25  27
ATOM     26  N   UNL     1       7.407   7.922  17.098  0.00  0.00    +0.000 NA
ATOM     27  C   UNL     1       7.017   6.833  17.059  0.00  0.00    +0.000 C 
ENDBRANCH  25  27
ENDBRANCH  21  25
ENDBRANCH   1  23
TORSDOF 4
ENDMDL
MODEL 4
REMARK VINA RESULT:      -8.1      1.157      1.511
REMARK  Name = 
REMARK  4 active torsions:
REMARK  status: ('A' for Active; 'I' for Inactive)
REMARK    1  A    between atoms: C_2  and  C_3
REMARK    2  A    between atoms: C_3  and  C_4
REMARK    3  A    between atoms: N_6  and  N_7
REMARK    4  A    between atoms: C_16  and  C_17
REMARK                            x       y       z     vdW  Elec       q    Type
REMARK                         _______ _______ _______ _____ _____    ______ ____
ROOT
ATOM      1  N   UNL     1       4.709   3.343  16.841  0.00  0.00    +0.000 NA
ATOM      2  C   UNL     1       3.825   3.476  17.781  0.00  0.00    +0.000 C 
ATOM      3  C   UNL     1       2.446   2.909  17.468  0.00  0.00    +0.000 C 
ATOM      4  O   UNL     1       1.875   3.178  16.425  0.00  0.00    +0.000 OA
ATOM      5  N   UNL     1       1.926   2.106  18.446  0.00  0.00    +0.000 N 
ATOM      6  C   UNL     1       2.114   2.364  19.779  0.00  0.00    +0.000 C 
ATOM      7  O   UNL     1       1.271   2.134  20.630  0.00  0.00    +0.000 OA
ATOM      8  C   UNL     1       3.451   3.004  20.146  0.00  0.00    +0.000 C 
ATOM      9  O   UNL     1       4.056   2.644  21.148  0.00  0.00    +0.000 OA
ATOM     10  C   UNL     1       3.992   4.000  19.169  0.00  0.00    +0.000 C 
ATOM     11  H   UNL     1       1.002   1.751  18.232  0.00  0.00    +0.000 HD
ENDROOT
BRANCH  10  12
ATOM     12  C   UNL     1       3.237   5.289  19.305  0.00  0.00    +0.000 A 
ATOM     13  N   UNL     1       3.176   6.213  18.370  0.00  0.00    +0.000 NA
ATOM     14  C   UNL     1       2.449   7.310  18.825  0.00  0.00    +0.000 A 
ATOM     15  C   UNL     1       2.200   8.499  18.107  0.00  0.00    +0.000 A 
ATOM     16  C   UNL     1       1.471   9.538  18.699  0.00  0.00    +0.000 A 
ATOM     17  C   UNL     1       0.981   9.404  19.993  0.00  0.00    +0.000 A 
ATOM     18  C   UNL     1       1.204   8.232  20.724  0.00  0.00    +0.000 A 
ATOM     19  C   UNL     1       1.944   7.197  20.122  0.00  0.00    +0.000 A 
ATOM     20  S   UNL     1       2.397   5.660  20.759  0.00  0.00    +0.000 S 
ENDBRANCH  10  12
BRANCH   1  23
ATOM     21  C   UNL     1       6.632   4.431  16.010  0.00  0.00    +0.000 C 
ATOM     22  O   UNL     1       7.810   4.768  16.128  0.00  0.00    +0.000 OA
ATOM     23  N   UNL     1       6.010   3.681  16.995  0.00  0.00    +0.000 N 
ATOM     24  H   UNL     1       6.591   3.377  17.770  0.00  0.00    +0.000 HD
BRANCH  21  25
ATOM     25  C   UNL     1       5.772   4.848  14.833  0.00  0.00    +0.000 C 
BRANCH  25  27
ATOM     26  N   UNL     1       6.297   3.396  12.707  0.00  0.00    +0.000 NA
ATOM     27  C   UNL     1       6.081   4.043  13.642  0.00  0.00    +0.000 C 
ENDBRANCH  25  27
ENDBRANCH  21  25
ENDBRANCH   1  23
TORSDOF 4
ENDMDL
MODEL 5
REMARK VINA RESULT:      -7.8      2.165      4.974
REMARK  Name = 
REMARK  4 active torsions:
REMARK  status: ('A' for Active; 'I' for Inactive)
REMARK    1  A    between atoms: C_2  and  C_3
REMARK    2  A    between atoms: C_3  and  C_4
REMARK    3  A    between atoms: N_6  and  N_7
REMARK    4  A    between atoms: C_16  and  C_17
REMARK                            x       y       z     vdW  Elec       q    Type
REMARK                         _______ _______ _______ _____ _____    ______ ____
ROOT
ATOM      1  N   UNL     1       5.140   3.436  18.399  0.00  0.00    +0.000 NA
ATOM      2  C   UNL     1       5.210   4.713  18.187  0.00  0.00    +0.000 C 
ATOM      3  C   UNL     1       6.348   5.434  18.898  0.00  0.00    +0.000 C 
ATOM      4  O   UNL     1       6.547   5.278  20.091  0.00  0.00    +0.000 OA
ATOM      5  N   UNL     1       7.091   6.256  18.094  0.00  0.00    +0.000 N 
ATOM      6  C   UNL     1       6.527   6.996  17.088  0.00  0.00    +0.000 C 
ATOM      7  O   UNL     1       6.920   8.109  16.776  0.00  0.00    +0.000 OA
ATOM      8  C   UNL     1       5.331   6.356  16.386  0.00  0.00    +0.000 C 
ATOM      9  O   UNL     1       5.208   6.442  15.171  0.00  0.00    +0.000 OA
ATOM     10  C   UNL     1       4.409   5.562  17.256  0.00  0.00    +0.000 C 
ATOM     11  H   UNL     1       7.832   6.742  18.584  0.00  0.00    +0.000 HD
ENDROOT
BRANCH  10  12
ATOM     12  C   UNL     1       3.551   6.498  18.055  0.00  0.00    +0.000 A 
ATOM     13  N   UNL     1       3.029   6.205  19.226  0.00  0.00    +0.000 NA
ATOM     14  C   UNL     1       2.239   7.260  19.679  0.00  0.00    +0.000 A 
ATOM     15  C   UNL     1       1.502   7.291  20.881  0.00  0.00    +0.000 A 
ATOM     16  C   UNL     1       0.725   8.412  21.200  0.00  0.00    +0.000 A 
ATOM     17  C   UNL     1       0.682   9.505  20.341  0.00  0.00    +0.000 A 
ATOM     18  C   UNL     1       1.412   9.505  19.148  0.00  0.00    +0.000 A 
ATOM     19  C   UNL     1       2.183   8.370  18.833  0.00  0.00    +0.000 A 
ATOM     20  S   UNL     1       3.165   8.060  17.449  0.00  0.00    +0.000 S 
ENDBRANCH  10  12
BRANCH   1  23
ATOM     21  C   UNL     1       3.187   2.111  18.453  0.00  0.00    +0.000 C 
ATOM     22  O   UNL     1       2.368   1.382  17.892  0.00  0.00    +0.000 OA
ATOM     23  N   UNL     1       4.269   2.624  17.756  0.00  0.00    +0.000 N 
ATOM     24  H   UNL     1       4.378   2.316  16.795  0.00  0.00    +0.000 HD
BRANCH  21  25
ATOM     25  C   UNL     1       3.050   2.538  19.901  0.00  0.00    +0.000 C 
BRANCH  25  27
ATOM     26  N   UNL     1       0.708   3.643  20.346  0.00  0.00    +0.000 NA
ATOM     27  C   UNL     1       1.733   3.141  20.151  0.00  0.00    +0.000 C 
ENDBRANCH  25  27
ENDBRANCH  21  25
ENDBRANCH   1  23
TORSDOF 4
ENDMDL
MODEL 6
REMARK VINA RESULT:      -7.8      2.281      5.138
REMARK  Name = 
REMARK  4 active torsions:
REMARK  status: ('A' for Active; 'I' for Inactive)
REMARK    1  A    between atoms: C_2  and  C_3
REMARK    2  A    between atoms: C_3  and  C_4
REMARK    3  A    between atoms: N_6  and  N_7
REMARK    4  A    between atoms: C_16  and  C_17
REMARK                            x       y       z     vdW  Elec       q    Type
REMARK                         _______ _______ _______ _____ _____    ______ ____
ROOT
ATOM      1  N   UNL     1       5.272   3.444  18.478  0.00  0.00    +0.000 NA
ATOM      2  C   UNL     1       5.332   4.715  18.224  0.00  0.00    +0.000 C 
ATOM      3  C   UNL     1       6.408   5.484  18.980  0.00  0.00    +0.000 C 
ATOM      4  O   UNL     1       6.533   5.373  20.188  0.00  0.00    +0.000 OA
ATOM      5  N   UNL     1       7.185   6.293  18.196  0.00  0.00    +0.000 N 
ATOM      6  C   UNL     1       6.674   6.986  17.130  0.00  0.00    +0.000 C 
ATOM      7  O   UNL     1       7.065   8.095  16.804  0.00  0.00    +0.000 OA
ATOM      8  C   UNL     1       5.538   6.297  16.378  0.00  0.00    +0.000 C 
ATOM      9  O   UNL     1       5.491   6.338  15.154  0.00  0.00    +0.000 OA
ATOM     10  C   UNL     1       4.576   5.514  17.215  0.00  0.00    +0.000 C 
ATOM     11  H   UNL     1       7.884   6.811  18.714  0.00  0.00    +0.000 HD
ENDROOT
BRANCH  10  12
ATOM     12  C   UNL     1       3.652   6.459  17.924  0.00  0.00    +0.000 A 
ATOM     13  N   UNL     1       3.252   7.612  17.430  0.00  0.00    +0.000 NA
ATOM     14  C   UNL     1       2.450   8.278  18.354  0.00  0.00    +0.000 A 
ATOM     15  C   UNL     1       1.866   9.551  18.183  0.00  0.00    +0.000 A 
ATOM     16  C   UNL     1       1.100  10.116  19.210  0.00  0.00    +0.000 A 
ATOM     17  C   UNL     1       0.901   9.425  20.401  0.00  0.00    +0.000 A 
ATOM     18  C   UNL     1       1.460   8.157  20.592  0.00  0.00    +0.000 A 
ATOM     19  C   UNL     1       2.235   7.602  19.557  0.00  0.00    +0.000 A 
ATOM     20  S   UNL     1       3.061   6.089  19.495  0.00  0.00    +0.000 S 
ENDBRANCH  10  12
BRANCH   1  23
ATOM     21  C   UNL     1       3.416   1.986  18.491  0.00  0.00    +0.000 C 
ATOM     22  O   UNL     1       2.650   1.219  17.908  0.00  0.00    +0.000 OA
ATOM     23  N   UNL     1       4.460   2.593  17.810  0.00  0.00    +0.000 N 
ATOM     24  H   UNL     1       4.590   2.321  16.841  0.00  0.00    +0.000 HD
BRANCH  21  25
ATOM     25  C   UNL     1       3.250   2.361  19.950  0.00  0.00    +0.000 C 
BRANCH  25  27
ATOM     26  N   UNL     1       0.768   3.053  20.465  0.00  0.00    +0.000 NA
ATOM     27  C   UNL     1       1.858   2.733  20.244  0.00  0.00    +0.000 C 
ENDBRANCH  25  27
ENDBRANCH  21  25
ENDBRANCH   1  23
TORSDOF 4
ENDMDL
MODEL 7
REMARK VINA RESULT:      -7.8      1.963      2.302
REMARK  Name = 
REMARK  4 active torsions:
REMARK  status: ('A' for Active; 'I' for Inactive)
REMARK    1  A    between atoms: C_2  and  C_3
REMARK    2  A    between atoms: C_3  and  C_4
REMARK    3  A    between atoms: N_6  and  N_7
REMARK    4  A    between atoms: C_16  and  C_17
REMARK                            x       y       z     vdW  Elec       q    Type
REMARK                         _______ _______ _______ _____ _____    ______ ____
ROOT
ATOM      1  N   UNL     1       5.801   4.157  17.907  0.00  0.00    +0.000 NA
ATOM      2  C   UNL     1       4.543   4.179  18.224  0.00  0.00    +0.000 C 
ATOM      3  C   UNL     1       3.584   3.715  17.135  0.00  0.00    +0.000 C 
ATOM      4  O   UNL     1       3.655   4.158  16.001  0.00  0.00    +0.000 OA
ATOM      5  N   UNL     1       2.659   2.795  17.547  0.00  0.00    +0.000 N 
ATOM      6  C   UNL     1       2.084   2.844  18.789  0.00  0.00    +0.000 C 
ATOM      7  O   UNL     1       0.927   2.520  19.003  0.00  0.00    +0.000 OA
ATOM      8  C   UNL     1       2.975   3.374  19.911  0.00  0.00    +0.000 C 
ATOM      9  O   UNL     1       2.959   2.846  21.016  0.00  0.00    +0.000 OA
ATOM     10  C   UNL     1       3.906   4.484  19.539  0.00  0.00    +0.000 C 
ATOM     11  H   UNL     1       2.018   2.509  16.817  0.00  0.00    +0.000 HD
ENDROOT
BRANCH  10  12
ATOM     12  C   UNL     1       3.132   5.764  19.429  0.00  0.00    +0.000 A 
ATOM     13  N   UNL     1       3.217   6.594  18.412  0.00  0.00    +0.000 NA
ATOM     14  C   UNL     1       2.421   7.715  18.637  0.00  0.00    +0.000 A 
ATOM     15  C   UNL     1       2.284   8.825  17.777  0.00  0.00    +0.000 A 
ATOM     16  C   UNL     1       1.465   9.901  18.144  0.00  0.00    +0.000 A 
ATOM     17  C   UNL     1       0.775   9.880  19.350  0.00  0.00    +0.000 A 
ATOM     18  C   UNL     1       0.884   8.786  20.217  0.00  0.00    +0.000 A 
ATOM     19  C   UNL     1       1.716   7.714  19.842  0.00  0.00    +0.000 A 
ATOM     20  S   UNL     1       2.069   6.254  20.688  0.00  0.00    +0.000 S 
ENDBRANCH  10  12
BRANCH   1  23
ATOM     21  C   UNL     1       7.548   5.571  18.627  0.00  0.00    +0.000 C 
ATOM     22  O   UNL     1       8.447   5.847  19.421  0.00  0.00    +0.000 OA
ATOM     23  N   UNL     1       6.792   4.421  18.788  0.00  0.00    +0.000 N 
ATOM     24  H   UNL     1       7.063   3.801  19.545  0.00  0.00    +0.000 HD
BRANCH  21  25
ATOM     25  C   UNL     1       7.169   6.474  17.470  0.00  0.00    +0.000 C 
BRANCH  25  27
ATOM     26  N   UNL     1       8.097   8.906  17.818  0.00  0.00    +0.000 NA
ATOM     27  C   UNL     1       7.676   7.838  17.676  0.00  0.00    +0.000 C 
ENDBRANCH  25  27
ENDBRANCH  21  25
ENDBRANCH   1  23
TORSDOF 4
ENDMDL
MODEL 8
REMARK VINA RESULT:      -7.8      2.055      5.223
REMARK  Name = 
REMARK  4 active torsions:
REMARK  status: ('A' for Active; 'I' for Inactive)
REMARK    1  A    between atoms: C_2  and  C_3
REMARK    2  A    between atoms: C_3  and  C_4
REMARK    3  A    between atoms: N_6  and  N_7
REMARK    4  A    between atoms: C_16  and  C_17
REMARK                            x       y       z     vdW  Elec       q    Type
REMARK                         _______ _______ _______ _____ _____    ______ ____
ROOT
ATOM      1  N   UNL     1       5.189   3.129  19.177  0.00  0.00    +0.000 NA
ATOM      2  C   UNL     1       5.377   4.262  18.574  0.00  0.00    +0.000 C 
ATOM      3  C   UNL     1       6.574   5.071  19.057  0.00  0.00    +0.000 C 
ATOM      4  O   UNL     1       6.752   5.286  20.244  0.00  0.00    +0.000 OA
ATOM      5  N   UNL     1       7.392   5.528  18.060  0.00  0.00    +0.000 N 
ATOM      6  C   UNL     1       6.903   5.955  16.853  0.00  0.00    +0.000 C 
ATOM      7  O   UNL     1       7.398   6.872  16.219  0.00  0.00    +0.000 OA
ATOM      8  C   UNL     1       5.656   5.230  16.351  0.00  0.00    +0.000 C 
ATOM      9  O   UNL     1       5.546   4.935  15.167  0.00  0.00    +0.000 OA
ATOM     10  C   UNL     1       4.661   4.836  17.396  0.00  0.00    +0.000 C 
ATOM     11  H   UNL     1       8.173   6.079  18.395  0.00  0.00    +0.000 HD
ENDROOT
BRANCH  10  12
ATOM     12  C   UNL     1       3.890   6.048  17.829  0.00  0.00    +0.000 A 
ATOM     13  N   UNL     1       3.255   6.149  18.977  0.00  0.00    +0.000 NA
ATOM     14  C   UNL     1       2.590   7.371  19.052  0.00  0.00    +0.000 A 
ATOM     15  C   UNL     1       1.786   7.815  20.123  0.00  0.00    +0.000 A 
ATOM     16  C   UNL     1       1.152   9.063  20.054  0.00  0.00    +0.000 A 
ATOM     17  C   UNL     1       1.318   9.876  18.939  0.00  0.00    +0.000 A 
ATOM     18  C   UNL     1       2.120   9.464  17.868  0.00  0.00    +0.000 A 
ATOM     19  C   UNL     1       2.745   8.206  17.943  0.00  0.00    +0.000 A 
ATOM     20  S   UNL     1       3.765   7.418  16.797  0.00  0.00    +0.000 S 
ENDBRANCH  10  12
BRANCH   1  23
ATOM     21  C   UNL     1       3.027   2.221  19.447  0.00  0.00    +0.000 C 
ATOM     22  O   UNL     1       2.146   1.429  19.112  0.00  0.00    +0.000 OA
ATOM     23  N   UNL     1       4.250   2.233  18.795  0.00  0.00    +0.000 N 
ATOM     24  H   UNL     1       4.394   1.521  18.087  0.00  0.00    +0.000 HD
BRANCH  21  25
ATOM     25  C   UNL     1       2.829   3.259  20.534  0.00  0.00    +0.000 C 
BRANCH  25  27
ATOM     26  N   UNL     1       1.178   2.386  22.382  0.00  0.00    +0.000 NA
ATOM     27  C   UNL     1       1.892   2.776  21.559  0.00  0.00    +0.000 C 
ENDBRANCH  25  27
ENDBRANCH  21  25
ENDBRANCH   1  23
TORSDOF 4
ENDMDL
MODEL 9
REMARK VINA RESULT:      -7.8      3.236      7.271
REMARK  Name = 
REMARK  4 active torsions:
REMARK  status: ('A' for Active; 'I' for Inactive)
REMARK    1  A    between atoms: C_2  and  C_3
REMARK    2  A    between atoms: C_3  and  C_4
REMARK    3  A    between atoms: N_6  and  N_7
REMARK    4  A    between atoms: C_16  and  C_17
REMARK                            x       y       z     vdW  Elec       q    Type
REMARK                         _______ _______ _______ _____ _____    ______ ____
ROOT
ATOM      1  N   UNL     1       4.707   4.292  19.009  0.00  0.00    +0.000 NA
ATOM      2  C   UNL     1       5.320   5.102  18.204  0.00  0.00    +0.000 C 
ATOM      3  C   UNL     1       4.513   6.311  17.749  0.00  0.00    +0.000 C 
ATOM      4  O   UNL     1       3.384   6.186  17.307  0.00  0.00    +0.000 OA
ATOM      5  N   UNL     1       5.165   7.508  17.870  0.00  0.00    +0.000 N 
ATOM      6  C   UNL     1       6.508   7.635  17.631  0.00  0.00    +0.000 C 
ATOM      7  O   UNL     1       7.008   8.630  17.131  0.00  0.00    +0.000 OA
ATOM      8  C   UNL     1       7.362   6.422  17.997  0.00  0.00    +0.000 C 
ATOM      9  O   UNL     1       8.453   6.572  18.533  0.00  0.00    +0.000 OA
ATOM     10  C   UNL     1       6.742   5.084  17.747  0.00  0.00    +0.000 C 
ATOM     11  H   UNL     1       4.623   8.301  17.547  0.00  0.00    +0.000 HD
ENDROOT
BRANCH  10  12
ATOM     12  C   UNL     1       6.786   4.783  16.278  0.00  0.00    +0.000 A 
ATOM     13  N   UNL     1       7.580   5.389  15.423  0.00  0.00    +0.000 NA
ATOM     14  C   UNL     1       7.339   4.927  14.131  0.00  0.00    +0.000 A 
ATOM     15  C   UNL     1       7.982   5.369  12.956  0.00  0.00    +0.000 A 
ATOM     16  C   UNL     1       7.621   4.834  11.713  0.00  0.00    +0.000 A 
ATOM     17  C   UNL     1       6.634   3.857  11.628  0.00  0.00    +0.000 A 
ATOM     18  C   UNL     1       5.988   3.393  12.780  0.00  0.00    +0.000 A 
ATOM     19  C   UNL     1       6.354   3.944  14.022  0.00  0.00    +0.000 A 
ATOM     20  S   UNL     1       5.740   3.601  15.597  0.00  0.00    +0.000 S 
ENDBRANCH  10  12
BRANCH   1  23
ATOM     21  C   UNL     1       4.529   2.216  20.118  0.00  0.00    +0.000 C 
ATOM     22  O   UNL     1       5.049   1.235  20.649  0.00  0.00    +0.000 OA
ATOM     23  N   UNL     1       5.311   3.237  19.602  0.00  0.00    +0.000 N 
ATOM     24  H   UNL     1       6.313   3.159  19.745  0.00  0.00    +0.000 HD
BRANCH  21  25
ATOM     25  C   UNL     1       3.030   2.355  19.940  0.00  0.00    +0.000 C 
BRANCH  25  27
ATOM     26  N   UNL     1       1.838   2.906  22.216  0.00  0.00    +0.000 NA
ATOM     27  C   UNL     1       2.372   2.652  21.221  0.00  0.00    +0.000 C 
ENDBRANCH  25  27
ENDBRANCH  21  25
ENDBRANCH   1  23
TORSDOF 4
ENDMDL
