MODEL 1
REMARK VINA RESULT:      -7.3      0.000      0.000
REMARK  Name = 
REMARK  5 active torsions:
REMARK  status: ('A' for Active; 'I' for Inactive)
REMARK    1  A    between atoms: C_1  and  O_2
REMARK    2  A    between atoms: O_2  and  C_3
REMARK    3  A    between atoms: C_11  and  O_12
REMARK    4  A    between atoms: C_13  and  O_14
REMARK    5  A    between atoms: O_14  and  C_15
REMARK                            x       y       z     vdW  Elec       q    Type
REMARK                         _______ _______ _______ _____ _____    ______ ____
ROOT
ATOM      1  C   UNL     1       7.067   6.177  16.551  0.00  0.00    +0.000 A 
ATOM      2  C   UNL     1       6.967   5.170  15.587  0.00  0.00    +0.000 A 
ATOM      3  C   UNL     1       5.980   4.185  15.696  0.00  0.00    +0.000 A 
ATOM      4  C   UNL     1       5.090   4.200  16.768  0.00  0.00    +0.000 A 
ATOM      5  O   UNL     1       4.161   3.195  16.809  0.00  0.00    +0.000 OA
ATOM      6  C   UNL     1       3.278   3.166  17.861  0.00  0.00    +0.000 A 
ATOM      7  C   UNL     1       2.377   2.102  17.842  0.00  0.00    +0.000 A 
ATOM      8  C   UNL     1       1.432   1.975  18.856  0.00  0.00    +0.000 A 
ATOM      9  C   UNL     1       1.386   2.912  19.893  0.00  0.00    +0.000 A 
ATOM     10  C   UNL     1       2.284   3.992  19.934  0.00  0.00    +0.000 A 
ATOM     11  C   UNL     1       3.239   4.107  18.897  0.00  0.00    +0.000 A 
ATOM     12  C   UNL     1       4.237   5.208  18.846  0.00  0.00    +0.000 A 
ATOM     13  O   UNL     1       4.317   6.103  19.675  0.00  0.00    +0.000 OA
ATOM     14  C   UNL     1       5.184   5.203  17.721  0.00  0.00    +0.000 A 
ATOM     15  C   UNL     1       6.167   6.193  17.616  0.00  0.00    +0.000 A 
ENDROOT
BRANCH   1  17
ATOM     16  C   UNL     1       7.840   8.179  17.565  0.00  0.00    +0.000 C 
ATOM     17  O   UNL     1       7.989   7.187  16.556  0.00  0.00    +0.000 OA
ENDBRANCH   1  17
BRANCH   9  18
ATOM     18  O   UNL     1       0.433   2.738  20.860  0.00  0.00    +0.000 OA
ATOM     19  H   UNL     1       0.067   3.598  21.121  0.00  0.00    +0.000 HD
ENDBRANCH   9  18
BRANCH  10  20
ATOM     20  O   UNL     1       2.333   4.961  20.896  0.00  0.00    +0.000 OA
ATOM     21  C   UNL     1       1.390   6.017  20.906  0.00  0.00    +0.000 C 
ENDBRANCH  10  20
TORSDOF 3
ENDMDL
MODEL 2
REMARK VINA RESULT:      -6.9      2.612      5.974
REMARK  Name = 
REMARK  5 active torsions:
REMARK  status: ('A' for Active; 'I' for Inactive)
REMARK    1  A    between atoms: C_1  and  O_2
REMARK    2  A    between atoms: O_2  and  C_3
REMARK    3  A    between atoms: C_11  and  O_12
REMARK    4  A    between atoms: C_13  and  O_14
REMARK    5  A    between atoms: O_14  and  C_15
REMARK                            x       y       z     vdW  Elec       q    Type
REMARK                         _______ _______ _______ _____ _____    ______ ____
ROOT
ATOM      1  C   UNL     1       0.614   8.662  21.004  0.00  0.00    +0.000 A 
ATOM      2  C   UNL     1       0.707   9.612  19.985  0.00  0.00    +0.000 A 
ATOM      3  C   UNL     1       1.524   9.377  18.873  0.00  0.00    +0.000 A 
ATOM      4  C   UNL     1       2.252   8.192  18.777  0.00  0.00    +0.000 A 
ATOM      5  O   UNL     1       3.036   8.042  17.665  0.00  0.00    +0.000 OA
ATOM      6  C   UNL     1       3.783   6.895  17.544  0.00  0.00    +0.000 A 
ATOM      7  C   UNL     1       4.570   6.825  16.395  0.00  0.00    +0.000 A 
ATOM      8  C   UNL     1       5.364   5.706  16.165  0.00  0.00    +0.000 A 
ATOM      9  C   UNL     1       5.374   4.652  17.084  0.00  0.00    +0.000 A 
ATOM     10  C   UNL     1       4.591   4.700  18.249  0.00  0.00    +0.000 A 
ATOM     11  C   UNL     1       3.789   5.845  18.469  0.00  0.00    +0.000 A 
ATOM     12  C   UNL     1       2.926   5.999  19.670  0.00  0.00    +0.000 A 
ATOM     13  O   UNL     1       2.824   5.163  20.556  0.00  0.00    +0.000 OA
ATOM     14  C   UNL     1       2.155   7.245  19.786  0.00  0.00    +0.000 A 
ATOM     15  C   UNL     1       1.337   7.474  20.898  0.00  0.00    +0.000 A 
ENDROOT
BRANCH   1  17
ATOM     16  C   UNL     1      -0.360  10.099  22.622  0.00  0.00    +0.000 C 
ATOM     17  O   UNL     1      -0.143   8.780  22.138  0.00  0.00    +0.000 OA
ENDBRANCH   1  17
BRANCH   9  18
ATOM     18  O   UNL     1       6.172   3.576  16.803  0.00  0.00    +0.000 OA
ATOM     19  H   UNL     1       7.005   3.879  16.406  0.00  0.00    +0.000 HD
ENDBRANCH   9  18
BRANCH  10  20
ATOM     20  O   UNL     1       4.525   3.735  19.214  0.00  0.00    +0.000 OA
ATOM     21  C   UNL     1       3.909   2.488  18.948  0.00  0.00    +0.000 C 
ENDBRANCH  10  20
TORSDOF 3
ENDMDL
MODEL 3
REMARK VINA RESULT:      -6.9      1.596      5.989
REMARK  Name = 
REMARK  5 active torsions:
REMARK  status: ('A' for Active; 'I' for Inactive)
REMARK    1  A    between atoms: C_1  and  O_2
REMARK    2  A    between atoms: O_2  and  C_3
REMARK    3  A    between atoms: C_11  and  O_12
REMARK    4  A    between atoms: C_13  and  O_14
REMARK    5  A    between atoms: O_14  and  C_15
REMARK                            x       y       z     vdW  Elec       q    Type
REMARK                         _______ _______ _______ _____ _____    ______ ____
ROOT
ATOM      1  C   UNL     1       2.793   2.770  20.551  0.00  0.00    +0.000 A 
ATOM      2  C   UNL     1       1.987   2.197  19.564  0.00  0.00    +0.000 A 
ATOM      3  C   UNL     1       2.335   2.312  18.214  0.00  0.00    +0.000 A 
ATOM      4  C   UNL     1       3.488   3.003  17.844  0.00  0.00    +0.000 A 
ATOM      5  O   UNL     1       3.752   3.082  16.504  0.00  0.00    +0.000 OA
ATOM      6  C   UNL     1       4.871   3.770  16.099  0.00  0.00    +0.000 A 
ATOM      7  C   UNL     1       5.061   3.823  14.719  0.00  0.00    +0.000 A 
ATOM      8  C   UNL     1       6.164   4.490  14.195  0.00  0.00    +0.000 A 
ATOM      9  C   UNL     1       7.081   5.107  15.051  0.00  0.00    +0.000 A 
ATOM     10  C   UNL     1       6.910   5.069  16.445  0.00  0.00    +0.000 A 
ATOM     11  C   UNL     1       5.784   4.388  16.962  0.00  0.00    +0.000 A 
ATOM     12  C   UNL     1       5.506   4.290  18.419  0.00  0.00    +0.000 A 
ATOM     13  O   UNL     1       6.217   4.772  19.289  0.00  0.00    +0.000 OA
ATOM     14  C   UNL     1       4.292   3.567  18.824  0.00  0.00    +0.000 A 
ATOM     15  C   UNL     1       3.951   3.451  20.176  0.00  0.00    +0.000 A 
ENDROOT
BRANCH   1  17
ATOM     16  C   UNL     1       1.208   2.516  22.299  0.00  0.00    +0.000 C 
ATOM     17  O   UNL     1       2.555   2.729  21.898  0.00  0.00    +0.000 OA
ENDBRANCH   1  17
BRANCH   9  18
ATOM     18  O   UNL     1       8.149   5.745  14.479  0.00  0.00    +0.000 OA
ATOM     19  H   UNL     1       8.306   5.391  13.588  0.00  0.00    +0.000 HD
ENDBRANCH   9  18
BRANCH  10  20
ATOM     20  O   UNL     1       7.737   5.638  17.373  0.00  0.00    +0.000 OA
ATOM     21  C   UNL     1       7.707   7.033  17.609  0.00  0.00    +0.000 C 
ENDBRANCH  10  20
TORSDOF 3
ENDMDL
MODEL 4
REMARK VINA RESULT:      -6.8      2.807      5.160
REMARK  Name = 
REMARK  5 active torsions:
REMARK  status: ('A' for Active; 'I' for Inactive)
REMARK    1  A    between atoms: C_1  and  O_2
REMARK    2  A    between atoms: O_2  and  C_3
REMARK    3  A    between atoms: C_11  and  O_12
REMARK    4  A    between atoms: C_13  and  O_14
REMARK    5  A    between atoms: O_14  and  C_15
REMARK                            x       y       z     vdW  Elec       q    Type
REMARK                         _______ _______ _______ _____ _____    ______ ____
ROOT
ATOM      1  C   UNL     1       0.994   9.705  19.868  0.00  0.00    +0.000 A 
ATOM      2  C   UNL     1       1.503  10.091  18.626  0.00  0.00    +0.000 A 
ATOM      3  C   UNL     1       2.236   9.185  17.851  0.00  0.00    +0.000 A 
ATOM      4  C   UNL     1       2.464   7.891  18.315  0.00  0.00    +0.000 A 
ATOM      5  O   UNL     1       3.200   7.069  17.504  0.00  0.00    +0.000 OA
ATOM      6  C   UNL     1       3.461   5.791  17.936  0.00  0.00    +0.000 A 
ATOM      7  C   UNL     1       4.232   5.023  17.064  0.00  0.00    +0.000 A 
ATOM      8  C   UNL     1       4.555   3.711  17.396  0.00  0.00    +0.000 A 
ATOM      9  C   UNL     1       4.108   3.162  18.602  0.00  0.00    +0.000 A 
ATOM     10  C   UNL     1       3.332   3.917  19.497  0.00  0.00    +0.000 A 
ATOM     11  C   UNL     1       3.012   5.249  19.146  0.00  0.00    +0.000 A 
ATOM     12  C   UNL     1       2.200   6.136  20.021  0.00  0.00    +0.000 A 
ATOM     13  O   UNL     1       1.735   5.798  21.100  0.00  0.00    +0.000 OA
ATOM     14  C   UNL     1       1.954   7.505  19.545  0.00  0.00    +0.000 A 
ATOM     15  C   UNL     1       1.217   8.405  20.323  0.00  0.00    +0.000 A 
ENDROOT
BRANCH   1  17
ATOM     16  C   UNL     1      -0.074   9.936  21.975  0.00  0.00    +0.000 C 
ATOM     17  O   UNL     1       0.271  10.499  20.715  0.00  0.00    +0.000 OA
ENDBRANCH   1  17
BRANCH   9  18
ATOM     18  O   UNL     1       4.454   1.866  18.873  0.00  0.00    +0.000 OA
ATOM     19  H   UNL     1       3.822   1.481  19.502  0.00  0.00    +0.000 HD
ENDBRANCH   9  18
BRANCH  10  20
ATOM     20  O   UNL     1       2.845   3.488  20.700  0.00  0.00    +0.000 OA
ATOM     21  C   UNL     1       1.793   2.543  20.758  0.00  0.00    +0.000 C 
ENDBRANCH  10  20
TORSDOF 3
ENDMDL
MODEL 5
REMARK VINA RESULT:      -6.6      2.898      5.463
REMARK  Name = 
REMARK  5 active torsions:
REMARK  status: ('A' for Active; 'I' for Inactive)
REMARK    1  A    between atoms: C_1  and  O_2
REMARK    2  A    between atoms: O_2  and  C_3
REMARK    3  A    between atoms: C_11  and  O_12
REMARK    4  A    between atoms: C_13  and  O_14
REMARK    5  A    between atoms: O_14  and  C_15
REMARK                            x       y       z     vdW  Elec       q    Type
REMARK                         _______ _______ _______ _____ _____    ______ ____
ROOT
ATOM      1  C   UNL     1       1.153   9.916  19.336  0.00  0.00    +0.000 A 
ATOM      2  C   UNL     1       0.510   9.622  20.541  0.00  0.00    +0.000 A 
ATOM      3  C   UNL     1       0.645   8.357  21.123  0.00  0.00    +0.000 A 
ATOM      4  C   UNL     1       1.422   7.380  20.503  0.00  0.00    +0.000 A 
ATOM      5  O   UNL     1       1.494   6.165  21.129  0.00  0.00    +0.000 OA
ATOM      6  C   UNL     1       2.236   5.171  20.538  0.00  0.00    +0.000 A 
ATOM      7  C   UNL     1       2.245   3.958  21.226  0.00  0.00    +0.000 A 
ATOM      8  C   UNL     1       2.968   2.880  20.723  0.00  0.00    +0.000 A 
ATOM      9  C   UNL     1       3.685   3.013  19.530  0.00  0.00    +0.000 A 
ATOM     10  C   UNL     1       3.690   4.224  18.818  0.00  0.00    +0.000 A 
ATOM     11  C   UNL     1       2.950   5.310  19.342  0.00  0.00    +0.000 A 
ATOM     12  C   UNL     1       2.884   6.634  18.669  0.00  0.00    +0.000 A 
ATOM     13  O   UNL     1       3.461   6.904  17.625  0.00  0.00    +0.000 OA
ATOM     14  C   UNL     1       2.066   7.673  19.310  0.00  0.00    +0.000 A 
ATOM     15  C   UNL     1       1.938   8.938  18.725  0.00  0.00    +0.000 A 
ENDROOT
BRANCH   1  17
ATOM     16  C   UNL     1       0.456  12.185  19.349  0.00  0.00    +0.000 C 
ATOM     17  O   UNL     1       1.092  11.109  18.670  0.00  0.00    +0.000 OA
ENDBRANCH   1  17
BRANCH   9  18
ATOM     18  O   UNL     1       4.380   1.920  19.086  0.00  0.00    +0.000 OA
ATOM     19  H   UNL     1       3.818   1.130  19.134  0.00  0.00    +0.000 HD
ENDBRANCH   9  18
BRANCH  10  20
ATOM     20  O   UNL     1       4.348   4.466  17.645  0.00  0.00    +0.000 OA
ATOM     21  C   UNL     1       5.763   4.479  17.600  0.00  0.00    +0.000 C 
ENDBRANCH  10  20
TORSDOF 3
ENDMDL
MODEL 6
REMARK VINA RESULT:      -6.5      4.036      6.155
REMARK  Name = 
REMARK  5 active torsions:
REMARK  status: ('A' for Active; 'I' for Inactive)
REMARK    1  A    between atoms: C_1  and  O_2
REMARK    2  A    between atoms: O_2  and  C_3
REMARK    3  A    between atoms: C_11  and  O_12
REMARK    4  A    between atoms: C_13  and  O_14
REMARK    5  A    between atoms: O_14  and  C_15
REMARK                            x       y       z     vdW  Elec       q    Type
REMARK                         _______ _______ _______ _____ _____    ______ ____
ROOT
ATOM      1  C   UNL     1       3.726   5.636  17.784  0.00  0.00    +0.000 A 
ATOM      2  C   UNL     1       3.479   4.915  18.955  0.00  0.00    +0.000 A 
ATOM      3  C   UNL     1       2.725   5.482  19.988  0.00  0.00    +0.000 A 
ATOM      4  C   UNL     1       2.215   6.773  19.856  0.00  0.00    +0.000 A 
ATOM      5  O   UNL     1       1.498   7.261  20.915  0.00  0.00    +0.000 OA
ATOM      6  C   UNL     1       0.995   8.537  20.829  0.00  0.00    +0.000 A 
ATOM      7  C   UNL     1       0.294   8.968  21.954  0.00  0.00    +0.000 A 
ATOM      8  C   UNL     1      -0.264  10.243  21.977  0.00  0.00    +0.000 A 
ATOM      9  C   UNL     1      -0.123  11.090  20.874  0.00  0.00    +0.000 A 
ATOM     10  C   UNL     1       0.581  10.678  19.730  0.00  0.00    +0.000 A 
ATOM     11  C   UNL     1       1.143   9.380  19.722  0.00  0.00    +0.000 A 
ATOM     12  C   UNL     1       1.908   8.846  18.565  0.00  0.00    +0.000 A 
ATOM     13  O   UNL     1       2.111   9.464  17.530  0.00  0.00    +0.000 OA
ATOM     14  C   UNL     1       2.454   7.487  18.691  0.00  0.00    +0.000 A 
ATOM     15  C   UNL     1       3.205   6.923  17.653  0.00  0.00    +0.000 A 
ENDROOT
BRANCH   1  17
ATOM     16  C   UNL     1       5.278   6.151  16.065  0.00  0.00    +0.000 C 
ATOM     17  O   UNL     1       4.450   5.193  16.712  0.00  0.00    +0.000 OA
ENDBRANCH   1  17
BRANCH   9  18
ATOM     18  O   UNL     1      -0.696  12.330  20.953  0.00  0.00    +0.000 OA
ATOM     19  H   UNL     1      -1.616  12.288  20.644  0.00  0.00    +0.000 HD
ENDBRANCH   9  18
BRANCH  10  20
ATOM     20  O   UNL     1       0.784  11.420  18.600  0.00  0.00    +0.000 OA
ATOM     21  C   UNL     1       1.616  12.565  18.628  0.00  0.00    +0.000 C 
ENDBRANCH  10  20
TORSDOF 3
ENDMDL
MODEL 7
REMARK VINA RESULT:      -6.4      1.672      3.268
REMARK  Name = 
REMARK  5 active torsions:
REMARK  status: ('A' for Active; 'I' for Inactive)
REMARK    1  A    between atoms: C_1  and  O_2
REMARK    2  A    between atoms: O_2  and  C_3
REMARK    3  A    between atoms: C_11  and  O_12
REMARK    4  A    between atoms: C_13  and  O_14
REMARK    5  A    between atoms: O_14  and  C_15
REMARK                            x       y       z     vdW  Elec       q    Type
REMARK                         _______ _______ _______ _____ _____    ______ ____
ROOT
ATOM      1  C   UNL     1       6.102   4.761  14.819  0.00  0.00    +0.000 A 
ATOM      2  C   UNL     1       6.086   6.132  15.091  0.00  0.00    +0.000 A 
ATOM      3  C   UNL     1       5.351   6.629  16.172  0.00  0.00    +0.000 A 
ATOM      4  C   UNL     1       4.627   5.759  16.987  0.00  0.00    +0.000 A 
ATOM      5  O   UNL     1       3.925   6.323  18.017  0.00  0.00    +0.000 OA
ATOM      6  C   UNL     1       3.185   5.499  18.830  0.00  0.00    +0.000 A 
ATOM      7  C   UNL     1       2.483   6.151  19.843  0.00  0.00    +0.000 A 
ATOM      8  C   UNL     1       1.704   5.416  20.731  0.00  0.00    +0.000 A 
ATOM      9  C   UNL     1       1.624   4.025  20.608  0.00  0.00    +0.000 A 
ATOM     10  C   UNL     1       2.321   3.346  19.595  0.00  0.00    +0.000 A 
ATOM     11  C   UNL     1       3.109   4.108  18.700  0.00  0.00    +0.000 A 
ATOM     12  C   UNL     1       3.883   3.491  17.591  0.00  0.00    +0.000 A 
ATOM     13  O   UNL     1       3.918   2.291  17.360  0.00  0.00    +0.000 OA
ATOM     14  C   UNL     1       4.648   4.397  16.722  0.00  0.00    +0.000 A 
ATOM     15  C   UNL     1       5.385   3.894  15.643  0.00  0.00    +0.000 A 
ENDROOT
BRANCH   1  17
ATOM     16  C   UNL     1       5.981   3.548  12.783  0.00  0.00    +0.000 C 
ATOM     17  O   UNL     1       6.775   4.160  13.792  0.00  0.00    +0.000 OA
ENDBRANCH   1  17
BRANCH   9  18
ATOM     18  O   UNL     1       0.845   3.355  21.512  0.00  0.00    +0.000 OA
ATOM     19  H   UNL     1       0.678   3.918  22.285  0.00  0.00    +0.000 HD
ENDBRANCH   9  18
BRANCH  10  20
ATOM     20  O   UNL     1       2.314   1.997  19.378  0.00  0.00    +0.000 OA
ATOM     21  C   UNL     1       1.170   1.358  18.842  0.00  0.00    +0.000 C 
ENDBRANCH  10  20
TORSDOF 3
ENDMDL
MODEL 8
REMARK VINA RESULT:      -6.3      3.271      5.462
REMARK  Name = 
REMARK  5 active torsions:
REMARK  status: ('A' for Active; 'I' for Inactive)
REMARK    1  A    between atoms: C_1  and  O_2
REMARK    2  A    between atoms: O_2  and  C_3
REMARK    3  A    between atoms: C_11  and  O_12
REMARK    4  A    between atoms: C_13  and  O_14
REMARK    5  A    between atoms: O_14  and  C_15
REMARK                            x       y       z     vdW  Elec       q    Type
REMARK                         _______ _______ _______ _____ _____    ______ ____
ROOT
ATOM      1  C   UNL     1       3.924   3.813  18.797  0.00  0.00    +0.000 A 
ATOM      2  C   UNL     1       4.451   4.326  17.610  0.00  0.00    +0.000 A 
ATOM      3  C   UNL     1       4.173   5.642  17.224  0.00  0.00    +0.000 A 
ATOM      4  C   UNL     1       3.365   6.450  18.022  0.00  0.00    +0.000 A 
ATOM      5  O   UNL     1       3.130   7.720  17.570  0.00  0.00    +0.000 OA
ATOM      6  C   UNL     1       2.323   8.540  18.321  0.00  0.00    +0.000 A 
ATOM      7  C   UNL     1       2.116   9.811  17.785  0.00  0.00    +0.000 A 
ATOM      8  C   UNL     1       1.319  10.728  18.462  0.00  0.00    +0.000 A 
ATOM      9  C   UNL     1       0.726  10.378  19.679  0.00  0.00    +0.000 A 
ATOM     10  C   UNL     1       0.918   9.103  20.239  0.00  0.00    +0.000 A 
ATOM     11  C   UNL     1       1.731   8.182  19.537  0.00  0.00    +0.000 A 
ATOM     12  C   UNL     1       1.997   6.807  20.037  0.00  0.00    +0.000 A 
ATOM     13  O   UNL     1       1.555   6.359  21.085  0.00  0.00    +0.000 OA
ATOM     14  C   UNL     1       2.846   5.943  19.204  0.00  0.00    +0.000 A 
ATOM     15  C   UNL     1       3.124   4.629  19.597  0.00  0.00    +0.000 A 
ENDROOT
BRANCH   1  17
ATOM     16  C   UNL     1       3.647   1.480  18.461  0.00  0.00    +0.000 C 
ATOM     17  O   UNL     1       4.119   2.546  19.275  0.00  0.00    +0.000 OA
ENDBRANCH   1  17
BRANCH   9  18
ATOM     18  O   UNL     1      -0.045  11.322  20.302  0.00  0.00    +0.000 OA
ATOM     19  H   UNL     1       0.338  12.204  20.162  0.00  0.00    +0.000 HD
ENDBRANCH   9  18
BRANCH  10  20
ATOM     20  O   UNL     1       0.388   8.652  21.414  0.00  0.00    +0.000 OA
ATOM     21  C   UNL     1       0.722   9.272  22.642  0.00  0.00    +0.000 C 
ENDBRANCH  10  20
TORSDOF 3
ENDMDL
MODEL 9
REMARK VINA RESULT:      -6.3      1.484      5.705
REMARK  Name = 
REMARK  5 active torsions:
REMARK  status: ('A' for Active; 'I' for Inactive)
REMARK    1  A    between atoms: C_1  and  O_2
REMARK    2  A    between atoms: O_2  and  C_3
REMARK    3  A    between atoms: C_11  and  O_12
REMARK    4  A    between atoms: C_13  and  O_14
REMARK    5  A    between atoms: O_14  and  C_15
REMARK                            x       y       z     vdW  Elec       q    Type
REMARK                         _______ _______ _______ _____ _____    ______ ____
ROOT
ATOM      1  C   UNL     1       1.528   5.673  20.309  0.00  0.00    +0.000 A 
ATOM      2  C   UNL     1       1.196   4.351  20.005  0.00  0.00    +0.000 A 
ATOM      3  C   UNL     1       1.918   3.647  19.035  0.00  0.00    +0.000 A 
ATOM      4  C   UNL     1       2.975   4.262  18.365  0.00  0.00    +0.000 A 
ATOM      5  O   UNL     1       3.624   3.512  17.423  0.00  0.00    +0.000 OA
ATOM      6  C   UNL     1       4.659   4.089  16.728  0.00  0.00    +0.000 A 
ATOM      7  C   UNL     1       5.256   3.268  15.773  0.00  0.00    +0.000 A 
ATOM      8  C   UNL     1       6.319   3.747  15.012  0.00  0.00    +0.000 A 
ATOM      9  C   UNL     1       6.787   5.050  15.205  0.00  0.00    +0.000 A 
ATOM     10  C   UNL     1       6.201   5.897  16.161  0.00  0.00    +0.000 A 
ATOM     11  C   UNL     1       5.121   5.396  16.925  0.00  0.00    +0.000 A 
ATOM     12  C   UNL     1       4.427   6.208  17.959  0.00  0.00    +0.000 A 
ATOM     13  O   UNL     1       4.726   7.358  18.245  0.00  0.00    +0.000 OA
ATOM     14  C   UNL     1       3.309   5.573  18.672  0.00  0.00    +0.000 A 
ATOM     15  C   UNL     1       2.592   6.280  19.644  0.00  0.00    +0.000 A 
ENDROOT
BRANCH   1  17
ATOM     16  C   UNL     1       1.146   7.860  21.149  0.00  0.00    +0.000 C 
ATOM     17  O   UNL     1       0.895   6.463  21.230  0.00  0.00    +0.000 OA
ENDBRANCH   1  17
BRANCH   9  18
ATOM     18  O   UNL     1       7.837   5.465  14.431  0.00  0.00    +0.000 OA
ATOM     19  H   UNL     1       8.349   6.140  14.905  0.00  0.00    +0.000 HD
ENDBRANCH   9  18
BRANCH  10  20
ATOM     20  O   UNL     1       6.572   7.184  16.431  0.00  0.00    +0.000 OA
ATOM     21  C   UNL     1       7.677   7.455  17.273  0.00  0.00    +0.000 C 
ENDBRANCH  10  20
TORSDOF 3
ENDMDL
