MODEL 1
REMARK VINA RESULT:      -7.2      0.000      0.000
REMARK  Name = 
REMARK  11 active torsions:
REMARK  status: ('A' for Active; 'I' for Inactive)
REMARK    1  A    between atoms: N_1  and  C_2
REMARK    2  A    between atoms: C_2  and  C_3
REMARK    3  A    between atoms: C_2  and  C_10
REMARK    4  A    between atoms: C_3  and  C_4
REMARK    5  A    between atoms: N_15  and  C_16
REMARK    6  A    between atoms: C_16  and  C_17
REMARK    7  A    between atoms: C_17  and  C_18
REMARK    8  A    between atoms: C_18  and  O_19
REMARK    9  A    between atoms: O_19  and  C_20
REMARK   10  A    between atoms: C_23  and  C_24
REMARK   11  A    between atoms: C_24  and  C_26
REMARK                            x       y       z     vdW  Elec       q    Type
REMARK                         _______ _______ _______ _____ _____    ______ ____
ROOT
ATOM      1  C   UNL     1      11.149  14.441  17.851  0.00  0.00    +0.000 C 
ATOM      2  O   UNL     1      12.333  14.713  18.083  0.00  0.00    +0.000 OA
ATOM      3  N   UNL     1      10.624  13.185  18.112  0.00  0.00    +0.000 N 
ATOM      4  C   UNL     1      11.452  12.184  18.796  0.00  0.00    +0.000 C 
ATOM      5  C   UNL     1      10.674  11.543  19.963  0.00  0.00    +0.000 C 
ATOM      6  N   UNL     1       9.342  10.999  19.595  0.00  0.00    +0.000 NA
ATOM      7  C   UNL     1       8.567  12.069  18.925  0.00  0.00    +0.000 C 
ATOM      8  C   UNL     1       9.294  12.706  17.725  0.00  0.00    +0.000 C 
ENDROOT
BRANCH   1   9
ATOM      9  C   UNL     1      10.189  15.540  17.331  0.00  0.00    +0.000 C 
BRANCH   9  10
ATOM     10  N   UNL     1      10.728  16.116  16.079  0.00  0.00    +0.000 NA
ATOM     11  H   UNL     1      10.979  15.346  15.459  0.00  0.00    +0.000 HD
ATOM     12  H   UNL     1      11.632  16.539  16.316  0.00  0.00    +0.000 HD
ENDBRANCH   9  10
BRANCH   9  13
ATOM     13  C   UNL     1      10.045  16.623  18.415  0.00  0.00    +0.000 C 
BRANCH  13  14
ATOM     14  C   UNL     1       9.283  16.188  19.687  0.00  0.00    +0.000 C 
ATOM     15  C   UNL     1       9.176  17.295  20.748  0.00  0.00    +0.000 C 
ATOM     16  C   UNL     1       8.254  18.434  20.319  0.00  0.00    +0.000 C 
ATOM     17  C   UNL     1       6.866  17.923  19.944  0.00  0.00    +0.000 C 
ATOM     18  C   UNL     1       6.920  16.799  18.914  0.00  0.00    +0.000 C 
ATOM     19  C   UNL     1       7.872  15.680  19.333  0.00  0.00    +0.000 C 
ENDBRANCH  13  14
ENDBRANCH   9  13
ENDBRANCH   1   9
BRANCH   6  20
ATOM     20  C   UNL     1       9.412   9.797  18.747  0.00  0.00    +0.000 C 
BRANCH  20  21
ATOM     21  C   UNL     1       8.102   9.442  18.044  0.00  0.00    +0.000 C 
BRANCH  21  22
ATOM     22  C   UNL     1       8.027   7.961  17.703  0.00  0.00    +0.000 C 
BRANCH  22  23
ATOM     23  O   UNL     1       6.803   7.723  17.011  0.00  0.00    +0.000 OA
BRANCH  23  24
ATOM     24  C   UNL     1       6.021   6.727  17.530  0.00  0.00    +0.000 A 
ATOM     25  C   UNL     1       4.708   6.688  17.056  0.00  0.00    +0.000 A 
ATOM     26  C   UNL     1       3.818   5.718  17.523  0.00  0.00    +0.000 A 
ATOM     27  C   UNL     1       4.236   4.756  18.455  0.00  0.00    +0.000 A 
ATOM     28  C   UNL     1       5.558   4.788  18.907  0.00  0.00    +0.000 A 
ATOM     29  C   UNL     1       6.442   5.768  18.450  0.00  0.00    +0.000 A 
BRANCH  27  30
ATOM     30  C   UNL     1       3.244   3.745  18.925  0.00  0.00    +0.000 C 
ATOM     31  O   UNL     1       3.578   2.574  19.083  0.00  0.00    +0.000 OA
BRANCH  30  32
ATOM     32  C   UNL     1       1.849   4.177  19.254  0.00  0.00    +0.000 C 
ATOM     33  C   UNL     1       1.029   3.443  20.288  0.00  0.00    +0.000 C 
ATOM     34  C   UNL     1       1.585   4.800  20.607  0.00  0.00    +0.000 C 
ENDBRANCH  30  32
ENDBRANCH  27  30
ENDBRANCH  23  24
ENDBRANCH  22  23
ENDBRANCH  21  22
ENDBRANCH  20  21
ENDBRANCH   6  20
TORSDOF 11
ENDMDL
MODEL 2
REMARK VINA RESULT:      -6.8      3.706     11.349
REMARK  Name = 
REMARK  11 active torsions:
REMARK  status: ('A' for Active; 'I' for Inactive)
REMARK    1  A    between atoms: N_1  and  C_2
REMARK    2  A    between atoms: C_2  and  C_3
REMARK    3  A    between atoms: C_2  and  C_10
REMARK    4  A    between atoms: C_3  and  C_4
REMARK    5  A    between atoms: N_15  and  C_16
REMARK    6  A    between atoms: C_16  and  C_17
REMARK    7  A    between atoms: C_17  and  C_18
REMARK    8  A    between atoms: C_18  and  O_19
REMARK    9  A    between atoms: O_19  and  C_20
REMARK   10  A    between atoms: C_23  and  C_24
REMARK   11  A    between atoms: C_24  and  C_26
REMARK                            x       y       z     vdW  Elec       q    Type
REMARK                         _______ _______ _______ _____ _____    ______ ____
ROOT
ATOM      1  C   UNL     1       4.660   2.981  19.285  0.00  0.00    +0.000 C 
ATOM      2  O   UNL     1       4.979   2.749  20.457  0.00  0.00    +0.000 OA
ATOM      3  N   UNL     1       5.320   3.934  18.524  0.00  0.00    +0.000 N 
ATOM      4  C   UNL     1       6.507   4.600  19.073  0.00  0.00    +0.000 C 
ATOM      5  C   UNL     1       7.661   4.578  18.050  0.00  0.00    +0.000 C 
ATOM      6  N   UNL     1       7.308   5.099  16.705  0.00  0.00    +0.000 NA
ATOM      7  C   UNL     1       6.115   4.370  16.218  0.00  0.00    +0.000 C 
ATOM      8  C   UNL     1       4.923   4.405  17.194  0.00  0.00    +0.000 C 
ENDROOT
BRANCH   1   9
ATOM      9  C   UNL     1       3.551   2.141  18.602  0.00  0.00    +0.000 C 
BRANCH   9  10
ATOM     10  N   UNL     1       4.144   0.919  18.018  0.00  0.00    +0.000 NA
ATOM     11  H   UNL     1       3.492   0.148  18.165  0.00  0.00    +0.000 HD
ATOM     12  H   UNL     1       4.945   0.671  18.608  0.00  0.00    +0.000 HD
ENDBRANCH   9  10
BRANCH   9  13
ATOM     13  C   UNL     1       2.881   3.000  17.515  0.00  0.00    +0.000 C 
BRANCH  13  14
ATOM     14  C   UNL     1       1.452   3.489  17.843  0.00  0.00    +0.000 C 
ATOM     15  C   UNL     1       0.776   2.695  18.971  0.00  0.00    +0.000 C 
ATOM     16  C   UNL     1       1.414   2.950  20.335  0.00  0.00    +0.000 C 
ATOM     17  C   UNL     1       1.438   4.438  20.675  0.00  0.00    +0.000 C 
ATOM     18  C   UNL     1       2.074   5.275  19.569  0.00  0.00    +0.000 C 
ATOM     19  C   UNL     1       1.456   4.988  18.202  0.00  0.00    +0.000 C 
ENDBRANCH  13  14
ENDBRANCH   9  13
ENDBRANCH   1   9
BRANCH   6  20
ATOM     20  C   UNL     1       7.077   6.554  16.681  0.00  0.00    +0.000 C 
BRANCH  20  21
ATOM     21  C   UNL     1       7.753   7.320  17.818  0.00  0.00    +0.000 C 
BRANCH  21  22
ATOM     22  C   UNL     1       7.494   8.817  17.722  0.00  0.00    +0.000 C 
BRANCH  22  23
ATOM     23  O   UNL     1       8.741   9.473  17.501  0.00  0.00    +0.000 OA
BRANCH  23  24
ATOM     24  C   UNL     1       8.998  10.535  18.325  0.00  0.00    +0.000 A 
ATOM     25  C   UNL     1       9.297  10.208  19.649  0.00  0.00    +0.000 A 
ATOM     26  C   UNL     1       9.568  11.213  20.581  0.00  0.00    +0.000 A 
ATOM     27  C   UNL     1       9.568  12.563  20.194  0.00  0.00    +0.000 A 
ATOM     28  C   UNL     1       9.290  12.880  18.862  0.00  0.00    +0.000 A 
ATOM     29  C   UNL     1       9.004  11.874  17.936  0.00  0.00    +0.000 A 
BRANCH  27  30
ATOM     30  C   UNL     1       9.859  13.597  21.230  0.00  0.00    +0.000 C 
ATOM     31  O   UNL     1      10.692  14.472  21.015  0.00  0.00    +0.000 OA
BRANCH  30  32
ATOM     32  C   UNL     1       9.090  13.593  22.514  0.00  0.00    +0.000 C 
ATOM     33  C   UNL     1       8.899  14.860  23.312  0.00  0.00    +0.000 C 
ATOM     34  C   UNL     1       7.743  14.279  22.553  0.00  0.00    +0.000 C 
ENDBRANCH  30  32
ENDBRANCH  27  30
ENDBRANCH  23  24
ENDBRANCH  22  23
ENDBRANCH  21  22
ENDBRANCH  20  21
ENDBRANCH   6  20
TORSDOF 11
ENDMDL
MODEL 3
REMARK VINA RESULT:      -6.7      3.100     11.842
REMARK  Name = 
REMARK  11 active torsions:
REMARK  status: ('A' for Active; 'I' for Inactive)
REMARK    1  A    between atoms: N_1  and  C_2
REMARK    2  A    between atoms: C_2  and  C_3
REMARK    3  A    between atoms: C_2  and  C_10
REMARK    4  A    between atoms: C_3  and  C_4
REMARK    5  A    between atoms: N_15  and  C_16
REMARK    6  A    between atoms: C_16  and  C_17
REMARK    7  A    between atoms: C_17  and  C_18
REMARK    8  A    between atoms: C_18  and  O_19
REMARK    9  A    between atoms: O_19  and  C_20
REMARK   10  A    between atoms: C_23  and  C_24
REMARK   11  A    between atoms: C_24  and  C_26
REMARK                            x       y       z     vdW  Elec       q    Type
REMARK                         _______ _______ _______ _____ _____    ______ ____
ROOT
ATOM      1  C   UNL     1       4.777   3.266  17.399  0.00  0.00    +0.000 C 
ATOM      2  O   UNL     1       4.677   2.511  16.425  0.00  0.00    +0.000 OA
ATOM      3  N   UNL     1       5.547   4.418  17.354  0.00  0.00    +0.000 N 
ATOM      4  C   UNL     1       6.163   4.825  16.085  0.00  0.00    +0.000 C 
ATOM      5  C   UNL     1       5.887   6.317  15.805  0.00  0.00    +0.000 C 
ATOM      6  N   UNL     1       6.251   7.234  16.914  0.00  0.00    +0.000 NA
ATOM      7  C   UNL     1       5.584   6.764  18.150  0.00  0.00    +0.000 C 
ATOM      8  C   UNL     1       5.869   5.288  18.489  0.00  0.00    +0.000 C 
ENDROOT
BRANCH   1   9
ATOM      9  C   UNL     1       3.966   2.980  18.687  0.00  0.00    +0.000 C 
BRANCH   9  10
ATOM     10  N   UNL     1       4.826   2.287  19.671  0.00  0.00    +0.000 NA
ATOM     11  H   UNL     1       5.745   2.729  19.655  0.00  0.00    +0.000 HD
ATOM     12  H   UNL     1       5.004   1.349  19.295  0.00  0.00    +0.000 HD
ENDBRANCH   9  10
BRANCH   9  13
ATOM     13  C   UNL     1       2.746   2.116  18.320  0.00  0.00    +0.000 C 
BRANCH  13  14
ATOM     14  C   UNL     1       1.373   2.812  18.467  0.00  0.00    +0.000 C 
ATOM     15  C   UNL     1       0.786   2.718  19.883  0.00  0.00    +0.000 C 
ATOM     16  C   UNL     1       1.564   3.551  20.899  0.00  0.00    +0.000 C 
ATOM     17  C   UNL     1       1.671   5.011  20.465  0.00  0.00    +0.000 C 
ATOM     18  C   UNL     1       2.222   5.156  19.050  0.00  0.00    +0.000 C 
ATOM     19  C   UNL     1       1.462   4.291  18.045  0.00  0.00    +0.000 C 
ENDBRANCH  13  14
ENDBRANCH   9  13
ENDBRANCH   1   9
BRANCH   6  20
ATOM     20  C   UNL     1       7.705   7.357  17.122  0.00  0.00    +0.000 C 
BRANCH  20  21
ATOM     21  C   UNL     1       8.101   8.194  18.338  0.00  0.00    +0.000 C 
BRANCH  21  22
ATOM     22  C   UNL     1       8.404   9.635  17.958  0.00  0.00    +0.000 C 
BRANCH  22  23
ATOM     23  O   UNL     1       9.527  10.072  18.721  0.00  0.00    +0.000 OA
BRANCH  23  24
ATOM     24  C   UNL     1       9.952  11.347  18.461  0.00  0.00    +0.000 A 
ATOM     25  C   UNL     1       8.942  12.307  18.366  0.00  0.00    +0.000 A 
ATOM     26  C   UNL     1       9.260  13.640  18.095  0.00  0.00    +0.000 A 
ATOM     27  C   UNL     1      10.597  14.038  17.940  0.00  0.00    +0.000 A 
ATOM     28  C   UNL     1      11.602  13.075  18.061  0.00  0.00    +0.000 A 
ATOM     29  C   UNL     1      11.281  11.739  18.316  0.00  0.00    +0.000 A 
BRANCH  27  30
ATOM     30  C   UNL     1      10.881  15.473  17.648  0.00  0.00    +0.000 C 
ATOM     31  O   UNL     1      10.995  15.860  16.488  0.00  0.00    +0.000 OA
BRANCH  30  32
ATOM     32  C   UNL     1      10.975  16.453  18.776  0.00  0.00    +0.000 C 
ATOM     33  C   UNL     1      11.288  15.995  20.181  0.00  0.00    +0.000 C 
ATOM     34  C   UNL     1      12.331  16.725  19.386  0.00  0.00    +0.000 C 
ENDBRANCH  30  32
ENDBRANCH  27  30
ENDBRANCH  23  24
ENDBRANCH  22  23
ENDBRANCH  21  22
ENDBRANCH  20  21
ENDBRANCH   6  20
TORSDOF 11
ENDMDL
MODEL 4
REMARK VINA RESULT:      -6.7      6.286     12.109
REMARK  Name = 
REMARK  11 active torsions:
REMARK  status: ('A' for Active; 'I' for Inactive)
REMARK    1  A    between atoms: N_1  and  C_2
REMARK    2  A    between atoms: C_2  and  C_3
REMARK    3  A    between atoms: C_2  and  C_10
REMARK    4  A    between atoms: C_3  and  C_4
REMARK    5  A    between atoms: N_15  and  C_16
REMARK    6  A    between atoms: C_16  and  C_17
REMARK    7  A    between atoms: C_17  and  C_18
REMARK    8  A    between atoms: C_18  and  O_19
REMARK    9  A    between atoms: O_19  and  C_20
REMARK   10  A    between atoms: C_23  and  C_24
REMARK   11  A    between atoms: C_24  and  C_26
REMARK                            x       y       z     vdW  Elec       q    Type
REMARK                         _______ _______ _______ _____ _____    ______ ____
ROOT
ATOM      1  C   UNL     1       2.249   8.368  18.375  0.00  0.00    +0.000 C 
ATOM      2  O   UNL     1       2.124   8.895  17.263  0.00  0.00    +0.000 OA
ATOM      3  N   UNL     1       1.614   8.873  19.498  0.00  0.00    +0.000 N 
ATOM      4  C   UNL     1       0.667   9.985  19.353  0.00  0.00    +0.000 C 
ATOM      5  C   UNL     1      -0.647   9.678  20.099  0.00  0.00    +0.000 C 
ATOM      6  N   UNL     1      -0.476   9.281  21.520  0.00  0.00    +0.000 NA
ATOM      7  C   UNL     1       0.480   8.151  21.579  0.00  0.00    +0.000 C 
ATOM      8  C   UNL     1       1.824   8.435  20.881  0.00  0.00    +0.000 C 
ENDROOT
BRANCH   1   9
ATOM      9  C   UNL     1       3.070   7.062  18.525  0.00  0.00    +0.000 C 
BRANCH   9  10
ATOM     10  N   UNL     1       4.070   6.977  17.438  0.00  0.00    +0.000 NA
ATOM     11  H   UNL     1       4.035   7.848  16.907  0.00  0.00    +0.000 HD
ATOM     12  H   UNL     1       3.722   6.277  16.774  0.00  0.00    +0.000 HD
ENDBRANCH   9  10
BRANCH   9  13
ATOM     13  C   UNL     1       2.103   5.865  18.476  0.00  0.00    +0.000 C 
BRANCH  13  14
ATOM     14  C   UNL     1       2.765   4.489  18.237  0.00  0.00    +0.000 C 
ATOM     15  C   UNL     1       3.518   3.949  19.463  0.00  0.00    +0.000 C 
ATOM     16  C   UNL     1       2.582   3.548  20.600  0.00  0.00    +0.000 C 
ATOM     17  C   UNL     1       1.533   2.540  20.136  0.00  0.00    +0.000 C 
ATOM     18  C   UNL     1       0.777   3.018  18.901  0.00  0.00    +0.000 C 
ATOM     19  C   UNL     1       1.720   3.452  17.780  0.00  0.00    +0.000 C 
ENDBRANCH  13  14
ENDBRANCH   9  13
ENDBRANCH   1   9
BRANCH   6  20
ATOM     20  C   UNL     1      -0.032  10.385  22.388  0.00  0.00    +0.000 C 
BRANCH  20  21
ATOM     21  C   UNL     1      -1.103  11.440  22.666  0.00  0.00    +0.000 C 
BRANCH  21  22
ATOM     22  C   UNL     1      -0.735  12.790  22.067  0.00  0.00    +0.000 C 
BRANCH  22  23
ATOM     23  O   UNL     1       0.642  12.753  21.693  0.00  0.00    +0.000 OA
BRANCH  23  24
ATOM     24  C   UNL     1       1.052  13.764  20.868  0.00  0.00    +0.000 A 
ATOM     25  C   UNL     1       0.154  14.115  19.857  0.00  0.00    +0.000 A 
ATOM     26  C   UNL     1       0.472  15.129  18.951  0.00  0.00    +0.000 A 
ATOM     27  C   UNL     1       1.686  15.826  19.058  0.00  0.00    +0.000 A 
ATOM     28  C   UNL     1       2.569  15.485  20.086  0.00  0.00    +0.000 A 
ATOM     29  C   UNL     1       2.255  14.459  20.982  0.00  0.00    +0.000 A 
BRANCH  27  30
ATOM     30  C   UNL     1       1.979  16.897  18.062  0.00  0.00    +0.000 C 
ATOM     31  O   UNL     1       2.989  16.839  17.367  0.00  0.00    +0.000 OA
BRANCH  30  32
ATOM     32  C   UNL     1       1.005  18.019  17.876  0.00  0.00    +0.000 C 
ATOM     33  C   UNL     1       0.748  18.609  16.510  0.00  0.00    +0.000 C 
ATOM     34  C   UNL     1      -0.292  17.738  17.151  0.00  0.00    +0.000 C 
ENDBRANCH  30  32
ENDBRANCH  27  30
ENDBRANCH  23  24
ENDBRANCH  22  23
ENDBRANCH  21  22
ENDBRANCH  20  21
ENDBRANCH   6  20
TORSDOF 11
ENDMDL
MODEL 5
REMARK VINA RESULT:      -6.7      6.764     11.052
REMARK  Name = 
REMARK  11 active torsions:
REMARK  status: ('A' for Active; 'I' for Inactive)
REMARK    1  A    between atoms: N_1  and  C_2
REMARK    2  A    between atoms: C_2  and  C_3
REMARK    3  A    between atoms: C_2  and  C_10
REMARK    4  A    between atoms: C_3  and  C_4
REMARK    5  A    between atoms: N_15  and  C_16
REMARK    6  A    between atoms: C_16  and  C_17
REMARK    7  A    between atoms: C_17  and  C_18
REMARK    8  A    between atoms: C_18  and  O_19
REMARK    9  A    between atoms: O_19  and  C_20
REMARK   10  A    between atoms: C_23  and  C_24
REMARK   11  A    between atoms: C_24  and  C_26
REMARK                            x       y       z     vdW  Elec       q    Type
REMARK                         _______ _______ _______ _____ _____    ______ ____
ROOT
ATOM      1  C   UNL     1       5.641   5.548  15.713  0.00  0.00    +0.000 C 
ATOM      2  O   UNL     1       5.329   6.603  15.147  0.00  0.00    +0.000 OA
ATOM      3  N   UNL     1       5.006   5.125  16.869  0.00  0.00    +0.000 N 
ATOM      4  C   UNL     1       3.849   5.875  17.373  0.00  0.00    +0.000 C 
ATOM      5  C   UNL     1       2.682   4.919  17.695  0.00  0.00    +0.000 C 
ATOM      6  N   UNL     1       3.036   3.786  18.587  0.00  0.00    +0.000 NA
ATOM      7  C   UNL     1       4.198   3.075  18.004  0.00  0.00    +0.000 C 
ATOM      8  C   UNL     1       5.402   3.990  17.708  0.00  0.00    +0.000 C 
ENDROOT
BRANCH   1   9
ATOM      9  C   UNL     1       6.713   4.621  15.086  0.00  0.00    +0.000 C 
BRANCH   9  10
ATOM     10  N   UNL     1       7.764   5.440  14.445  0.00  0.00    +0.000 NA
ATOM     11  H   UNL     1       7.799   6.341  14.923  0.00  0.00    +0.000 HD
ATOM     12  H   UNL     1       7.419   5.678  13.508  0.00  0.00    +0.000 HD
ENDBRANCH   9  10
BRANCH   9  13
ATOM     13  C   UNL     1       6.029   3.702  14.058  0.00  0.00    +0.000 C 
BRANCH  13  14
ATOM     14  C   UNL     1       6.327   4.028  12.577  0.00  0.00    +0.000 C 
ATOM     15  C   UNL     1       7.183   2.963  11.874  0.00  0.00    +0.000 C 
ATOM     16  C   UNL     1       6.433   1.650  11.663  0.00  0.00    +0.000 C 
ATOM     17  C   UNL     1       5.127   1.865  10.904  0.00  0.00    +0.000 C 
ATOM     18  C   UNL     1       4.252   2.937  11.547  0.00  0.00    +0.000 C 
ATOM     19  C   UNL     1       5.019   4.237  11.788  0.00  0.00    +0.000 C 
ENDBRANCH  13  14
ENDBRANCH   9  13
ENDBRANCH   1   9
BRANCH   6  20
ATOM     20  C   UNL     1       3.317   4.196  19.974  0.00  0.00    +0.000 C 
BRANCH  20  21
ATOM     21  C   UNL     1       2.072   4.409  20.834  0.00  0.00    +0.000 C 
BRANCH  21  22
ATOM     22  C   UNL     1       1.312   5.662  20.427  0.00  0.00    +0.000 C 
BRANCH  22  23
ATOM     23  O   UNL     1       1.891   6.776  21.103  0.00  0.00    +0.000 OA
BRANCH  23  24
ATOM     24  C   UNL     1       1.413   8.002  20.728  0.00  0.00    +0.000 A 
ATOM     25  C   UNL     1       0.715   8.701  21.717  0.00  0.00    +0.000 A 
ATOM     26  C   UNL     1       0.175   9.959  21.443  0.00  0.00    +0.000 A 
ATOM     27  C   UNL     1       0.346  10.550  20.181  0.00  0.00    +0.000 A 
ATOM     28  C   UNL     1       1.065   9.855  19.206  0.00  0.00    +0.000 A 
ATOM     29  C   UNL     1       1.591   8.589  19.477  0.00  0.00    +0.000 A 
BRANCH  27  30
ATOM     30  C   UNL     1      -0.256  11.894  19.940  0.00  0.00    +0.000 C 
ATOM     31  O   UNL     1      -0.962  12.420  20.795  0.00  0.00    +0.000 OA
BRANCH  30  32
ATOM     32  C   UNL     1       0.050  12.623  18.669  0.00  0.00    +0.000 C 
ATOM     33  C   UNL     1      -0.157  14.114  18.556  0.00  0.00    +0.000 C 
ATOM     34  C   UNL     1       1.235  13.561  18.640  0.00  0.00    +0.000 C 
ENDBRANCH  30  32
ENDBRANCH  27  30
ENDBRANCH  23  24
ENDBRANCH  22  23
ENDBRANCH  21  22
ENDBRANCH  20  21
ENDBRANCH   6  20
TORSDOF 11
ENDMDL
MODEL 6
REMARK VINA RESULT:      -6.6      5.940     11.815
REMARK  Name = 
REMARK  11 active torsions:
REMARK  status: ('A' for Active; 'I' for Inactive)
REMARK    1  A    between atoms: N_1  and  C_2
REMARK    2  A    between atoms: C_2  and  C_3
REMARK    3  A    between atoms: C_2  and  C_10
REMARK    4  A    between atoms: C_3  and  C_4
REMARK    5  A    between atoms: N_15  and  C_16
REMARK    6  A    between atoms: C_16  and  C_17
REMARK    7  A    between atoms: C_17  and  C_18
REMARK    8  A    between atoms: C_18  and  O_19
REMARK    9  A    between atoms: O_19  and  C_20
REMARK   10  A    between atoms: C_23  and  C_24
REMARK   11  A    between atoms: C_24  and  C_26
REMARK                            x       y       z     vdW  Elec       q    Type
REMARK                         _______ _______ _______ _____ _____    ______ ____
ROOT
ATOM      1  C   UNL     1       2.462   8.151  18.314  0.00  0.00    +0.000 C 
ATOM      2  O   UNL     1       2.481   8.688  17.200  0.00  0.00    +0.000 OA
ATOM      3  N   UNL     1       1.764   8.700  19.378  0.00  0.00    +0.000 N 
ATOM      4  C   UNL     1       0.921   9.880  19.155  0.00  0.00    +0.000 C 
ATOM      5  C   UNL     1      -0.477   9.672  19.772  0.00  0.00    +0.000 C 
ATOM      6  N   UNL     1      -0.471   9.260  21.198  0.00  0.00    +0.000 NA
ATOM      7  C   UNL     1       0.387   8.061  21.337  0.00  0.00    +0.000 C 
ATOM      8  C   UNL     1       1.809   8.244  20.770  0.00  0.00    +0.000 C 
ENDROOT
BRANCH   1   9
ATOM      9  C   UNL     1       3.164   6.786  18.528  0.00  0.00    +0.000 C 
BRANCH   9  10
ATOM     10  N   UNL     1       4.352   6.697  17.650  0.00  0.00    +0.000 NA
ATOM     11  H   UNL     1       4.417   5.740  17.302  0.00  0.00    +0.000 HD
ATOM     12  H   UNL     1       5.173   6.788  18.258  0.00  0.00    +0.000 HD
ENDBRANCH   9  10
BRANCH   9  13
ATOM     13  C   UNL     1       2.162   5.661  18.212  0.00  0.00    +0.000 C 
BRANCH  13  14
ATOM     14  C   UNL     1       2.674   4.226  18.472  0.00  0.00    +0.000 C 
ATOM     15  C   UNL     1       3.368   4.058  19.832  0.00  0.00    +0.000 C 
ATOM     16  C   UNL     1       2.397   4.160  21.006  0.00  0.00    +0.000 C 
ATOM     17  C   UNL     1       1.247   3.166  20.872  0.00  0.00    +0.000 C 
ATOM     18  C   UNL     1       0.543   3.273  19.523  0.00  0.00    +0.000 C 
ATOM     19  C   UNL     1       1.524   3.206  18.354  0.00  0.00    +0.000 C 
ENDBRANCH  13  14
ENDBRANCH   9  13
ENDBRANCH   1   9
BRANCH   6  20
ATOM     20  C   UNL     1      -0.029  10.326  22.115  0.00  0.00    +0.000 C 
BRANCH  20  21
ATOM     21  C   UNL     1      -1.094  10.782  23.113  0.00  0.00    +0.000 C 
BRANCH  21  22
ATOM     22  C   UNL     1      -1.420  12.259  22.954  0.00  0.00    +0.000 C 
BRANCH  22  23
ATOM     23  O   UNL     1      -1.660  12.518  21.572  0.00  0.00    +0.000 OA
BRANCH  23  24
ATOM     24  C   UNL     1      -0.751  13.341  20.964  0.00  0.00    +0.000 A 
ATOM     25  C   UNL     1      -0.864  13.437  19.575  0.00  0.00    +0.000 A 
ATOM     26  C   UNL     1       0.017  14.243  18.850  0.00  0.00    +0.000 A 
ATOM     27  C   UNL     1       1.010  14.986  19.507  0.00  0.00    +0.000 A 
ATOM     28  C   UNL     1       1.101  14.902  20.899  0.00  0.00    +0.000 A 
ATOM     29  C   UNL     1       0.229  14.083  21.621  0.00  0.00    +0.000 A 
BRANCH  27  30
ATOM     30  C   UNL     1       1.928  15.827  18.684  0.00  0.00    +0.000 C 
ATOM     31  O   UNL     1       1.912  17.049  18.791  0.00  0.00    +0.000 OA
BRANCH  30  32
ATOM     32  C   UNL     1       2.907  15.167  17.763  0.00  0.00    +0.000 C 
ATOM     33  C   UNL     1       4.351  15.607  17.717  0.00  0.00    +0.000 C 
ATOM     34  C   UNL     1       3.992  14.301  18.362  0.00  0.00    +0.000 C 
ENDBRANCH  30  32
ENDBRANCH  27  30
ENDBRANCH  23  24
ENDBRANCH  22  23
ENDBRANCH  21  22
ENDBRANCH  20  21
ENDBRANCH   6  20
TORSDOF 11
ENDMDL
MODEL 7
REMARK VINA RESULT:      -6.6      5.268      7.718
REMARK  Name = 
REMARK  11 active torsions:
REMARK  status: ('A' for Active; 'I' for Inactive)
REMARK    1  A    between atoms: N_1  and  C_2
REMARK    2  A    between atoms: C_2  and  C_3
REMARK    3  A    between atoms: C_2  and  C_10
REMARK    4  A    between atoms: C_3  and  C_4
REMARK    5  A    between atoms: N_15  and  C_16
REMARK    6  A    between atoms: C_16  and  C_17
REMARK    7  A    between atoms: C_17  and  C_18
REMARK    8  A    between atoms: C_18  and  O_19
REMARK    9  A    between atoms: O_19  and  C_20
REMARK   10  A    between atoms: C_23  and  C_24
REMARK   11  A    between atoms: C_24  and  C_26
REMARK                            x       y       z     vdW  Elec       q    Type
REMARK                         _______ _______ _______ _____ _____    ______ ____
ROOT
ATOM      1  C   UNL     1       1.564  10.116  18.566  0.00  0.00    +0.000 C 
ATOM      2  O   UNL     1       2.158  10.466  17.540  0.00  0.00    +0.000 OA
ATOM      3  N   UNL     1       1.477   8.784  18.941  0.00  0.00    +0.000 N 
ATOM      4  C   UNL     1       2.211   7.769  18.175  0.00  0.00    +0.000 C 
ATOM      5  C   UNL     1       3.002   6.844  19.121  0.00  0.00    +0.000 C 
ATOM      6  N   UNL     1       2.197   6.237  20.212  0.00  0.00    +0.000 NA
ATOM      7  C   UNL     1       1.501   7.322  20.941  0.00  0.00    +0.000 C 
ATOM      8  C   UNL     1       0.664   8.244  20.034  0.00  0.00    +0.000 C 
ENDROOT
BRANCH   1   9
ATOM      9  C   UNL     1       0.962  11.182  19.516  0.00  0.00    +0.000 C 
BRANCH   9  10
ATOM     10  N   UNL     1      -0.331  11.655  18.974  0.00  0.00    +0.000 NA
ATOM     11  H   UNL     1      -0.987  10.874  18.993  0.00  0.00    +0.000 HD
ATOM     12  H   UNL     1      -0.185  11.821  17.972  0.00  0.00    +0.000 HD
ENDBRANCH   9  10
BRANCH   9  13
ATOM     13  C   UNL     1       1.961  12.346  19.646  0.00  0.00    +0.000 C 
BRANCH  13  14
ATOM     14  C   UNL     1       1.529  13.669  18.974  0.00  0.00    +0.000 C 
ATOM     15  C   UNL     1       1.426  14.849  19.952  0.00  0.00    +0.000 C 
ATOM     16  C   UNL     1       2.787  15.303  20.473  0.00  0.00    +0.000 C 
ATOM     17  C   UNL     1       3.741  15.643  19.331  0.00  0.00    +0.000 C 
ATOM     18  C   UNL     1       3.855  14.511  18.314  0.00  0.00    +0.000 C 
ATOM     19  C   UNL     1       2.487  14.037  17.825  0.00  0.00    +0.000 C 
ENDBRANCH  13  14
ENDBRANCH   9  13
ENDBRANCH   1   9
BRANCH   6  20
ATOM     20  C   UNL     1       1.235   5.227  19.738  0.00  0.00    +0.000 C 
BRANCH  20  21
ATOM     21  C   UNL     1       1.065   4.029  20.673  0.00  0.00    +0.000 C 
BRANCH  21  22
ATOM     22  C   UNL     1       2.140   2.978  20.446  0.00  0.00    +0.000 C 
BRANCH  22  23
ATOM     23  O   UNL     1       2.279   2.777  19.040  0.00  0.00    +0.000 OA
BRANCH  23  24
ATOM     24  C   UNL     1       3.415   3.298  18.483  0.00  0.00    +0.000 A 
ATOM     25  C   UNL     1       4.475   3.508  19.368  0.00  0.00    +0.000 A 
ATOM     26  C   UNL     1       5.681   4.044  18.911  0.00  0.00    +0.000 A 
ATOM     27  C   UNL     1       5.853   4.356  17.553  0.00  0.00    +0.000 A 
ATOM     28  C   UNL     1       4.796   4.121  16.670  0.00  0.00    +0.000 A 
ATOM     29  C   UNL     1       3.585   3.600  17.133  0.00  0.00    +0.000 A 
BRANCH  27  30
ATOM     30  C   UNL     1       7.160   4.931  17.117  0.00  0.00    +0.000 C 
ATOM     31  O   UNL     1       8.152   4.215  17.023  0.00  0.00    +0.000 OA
BRANCH  30  32
ATOM     32  C   UNL     1       7.242   6.379  16.745  0.00  0.00    +0.000 C 
ATOM     33  C   UNL     1       6.278   7.388  17.322  0.00  0.00    +0.000 C 
ATOM     34  C   UNL     1       7.703   7.369  17.791  0.00  0.00    +0.000 C 
ENDBRANCH  30  32
ENDBRANCH  27  30
ENDBRANCH  23  24
ENDBRANCH  22  23
ENDBRANCH  21  22
ENDBRANCH  20  21
ENDBRANCH   6  20
TORSDOF 11
ENDMDL
MODEL 8
REMARK VINA RESULT:      -6.5      8.022     10.031
REMARK  Name = 
REMARK  11 active torsions:
REMARK  status: ('A' for Active; 'I' for Inactive)
REMARK    1  A    between atoms: N_1  and  C_2
REMARK    2  A    between atoms: C_2  and  C_3
REMARK    3  A    between atoms: C_2  and  C_10
REMARK    4  A    between atoms: C_3  and  C_4
REMARK    5  A    between atoms: N_15  and  C_16
REMARK    6  A    between atoms: C_16  and  C_17
REMARK    7  A    between atoms: C_17  and  C_18
REMARK    8  A    between atoms: C_18  and  O_19
REMARK    9  A    between atoms: O_19  and  C_20
REMARK   10  A    between atoms: C_23  and  C_24
REMARK   11  A    between atoms: C_24  and  C_26
REMARK                            x       y       z     vdW  Elec       q    Type
REMARK                         _______ _______ _______ _____ _____    ______ ____
ROOT
ATOM      1  C   UNL     1      -3.715  12.855  21.501  0.00  0.00    +0.000 C 
ATOM      2  O   UNL     1      -4.632  13.005  20.685  0.00  0.00    +0.000 OA
ATOM      3  N   UNL     1      -2.458  12.417  21.114  0.00  0.00    +0.000 N 
ATOM      4  C   UNL     1      -2.161  12.242  19.688  0.00  0.00    +0.000 C 
ATOM      5  C   UNL     1      -0.827  12.924  19.325  0.00  0.00    +0.000 C 
ATOM      6  N   UNL     1       0.323  12.532  20.179  0.00  0.00    +0.000 NA
ATOM      7  C   UNL     1      -0.050  12.749  21.596  0.00  0.00    +0.000 C 
ATOM      8  C   UNL     1      -1.358  12.046  22.010  0.00  0.00    +0.000 C 
ENDROOT
BRANCH   1   9
ATOM      9  C   UNL     1      -3.930  13.238  22.987  0.00  0.00    +0.000 C 
BRANCH   9  10
ATOM     10  N   UNL     1      -5.045  12.444  23.547  0.00  0.00    +0.000 NA
ATOM     11  H   UNL     1      -5.024  11.520  23.115  0.00  0.00    +0.000 HD
ATOM     12  H   UNL     1      -5.910  12.859  23.184  0.00  0.00    +0.000 HD
ENDBRANCH   9  10
BRANCH   9  13
ATOM     13  C   UNL     1      -4.233  14.745  23.069  0.00  0.00    +0.000 C 
BRANCH  13  14
ATOM     14  C   UNL     1      -3.865  15.423  24.407  0.00  0.00    +0.000 C 
ATOM     15  C   UNL     1      -2.668  14.772  25.117  0.00  0.00    +0.000 C 
ATOM     16  C   UNL     1      -1.350  15.005  24.384  0.00  0.00    +0.000 C 
ATOM     17  C   UNL     1      -1.087  16.492  24.159  0.00  0.00    +0.000 C 
ATOM     18  C   UNL     1      -2.261  17.192  23.482  0.00  0.00    +0.000 C 
ATOM     19  C   UNL     1      -3.583  16.924  24.201  0.00  0.00    +0.000 C 
ENDBRANCH  13  14
ENDBRANCH   9  13
ENDBRANCH   1   9
BRANCH   6  20
ATOM     20  C   UNL     1       0.768  11.145  19.963  0.00  0.00    +0.000 C 
BRANCH  20  21
ATOM     21  C   UNL     1       1.424  10.895  18.605  0.00  0.00    +0.000 C 
BRANCH  21  22
ATOM     22  C   UNL     1       1.155   9.487  18.098  0.00  0.00    +0.000 C 
BRANCH  22  23
ATOM     23  O   UNL     1       2.350   8.991  17.498  0.00  0.00    +0.000 OA
BRANCH  23  24
ATOM     24  C   UNL     1       2.793   7.789  17.980  0.00  0.00    +0.000 A 
ATOM     25  C   UNL     1       3.735   7.134  17.184  0.00  0.00    +0.000 A 
ATOM     26  C   UNL     1       4.250   5.896  17.575  0.00  0.00    +0.000 A 
ATOM     27  C   UNL     1       3.848   5.305  18.783  0.00  0.00    +0.000 A 
ATOM     28  C   UNL     1       2.923   5.978  19.585  0.00  0.00    +0.000 A 
ATOM     29  C   UNL     1       2.397   7.209  19.184  0.00  0.00    +0.000 A 
BRANCH  27  30
ATOM     30  C   UNL     1       4.425   3.979  19.151  0.00  0.00    +0.000 C 
ATOM     31  O   UNL     1       5.595   3.891  19.513  0.00  0.00    +0.000 OA
BRANCH  30  32
ATOM     32  C   UNL     1       3.554   2.762  19.126  0.00  0.00    +0.000 C 
ATOM     33  C   UNL     1       2.273   2.736  18.329  0.00  0.00    +0.000 C 
ATOM     34  C   UNL     1       3.465   1.962  17.846  0.00  0.00    +0.000 C 
ENDBRANCH  30  32
ENDBRANCH  27  30
ENDBRANCH  23  24
ENDBRANCH  22  23
ENDBRANCH  21  22
ENDBRANCH  20  21
ENDBRANCH   6  20
TORSDOF 11
ENDMDL
MODEL 9
REMARK VINA RESULT:      -6.5      7.523     11.317
REMARK  Name = 
REMARK  11 active torsions:
REMARK  status: ('A' for Active; 'I' for Inactive)
REMARK    1  A    between atoms: N_1  and  C_2
REMARK    2  A    between atoms: C_2  and  C_3
REMARK    3  A    between atoms: C_2  and  C_10
REMARK    4  A    between atoms: C_3  and  C_4
REMARK    5  A    between atoms: N_15  and  C_16
REMARK    6  A    between atoms: C_16  and  C_17
REMARK    7  A    between atoms: C_17  and  C_18
REMARK    8  A    between atoms: C_18  and  O_19
REMARK    9  A    between atoms: O_19  and  C_20
REMARK   10  A    between atoms: C_23  and  C_24
REMARK   11  A    between atoms: C_24  and  C_26
REMARK                            x       y       z     vdW  Elec       q    Type
REMARK                         _______ _______ _______ _____ _____    ______ ____
ROOT
ATOM      1  C   UNL     1       5.478   5.626  15.758  0.00  0.00    +0.000 C 
ATOM      2  O   UNL     1       5.160   6.557  15.008  0.00  0.00    +0.000 OA
ATOM      3  N   UNL     1       4.817   5.393  16.953  0.00  0.00    +0.000 N 
ATOM      4  C   UNL     1       3.628   6.186  17.287  0.00  0.00    +0.000 C 
ATOM      5  C   UNL     1       2.474   5.268  17.739  0.00  0.00    +0.000 C 
ATOM      6  N   UNL     1       2.826   4.318  18.825  0.00  0.00    +0.000 NA
ATOM      7  C   UNL     1       4.022   3.550  18.407  0.00  0.00    +0.000 C 
ATOM      8  C   UNL     1       5.213   4.434  17.988  0.00  0.00    +0.000 C 
ENDROOT
BRANCH   1   9
ATOM      9  C   UNL     1       6.590   4.635  15.332  0.00  0.00    +0.000 C 
BRANCH   9  10
ATOM     10  N   UNL     1       7.759   5.388  14.827  0.00  0.00    +0.000 NA
ATOM     11  H   UNL     1       7.563   5.667  13.865  0.00  0.00    +0.000 HD
ATOM     12  H   UNL     1       8.524   4.711  14.730  0.00  0.00    +0.000 HD
ENDBRANCH   9  10
BRANCH   9  13
ATOM     13  C   UNL     1       6.028   3.699  14.247  0.00  0.00    +0.000 C 
BRANCH  13  14
ATOM     14  C   UNL     1       6.250   4.166  12.791  0.00  0.00    +0.000 C 
ATOM     15  C   UNL     1       7.238   3.288  12.008  0.00  0.00    +0.000 C 
ATOM     16  C   UNL     1       6.681   1.898  11.710  0.00  0.00    +0.000 C 
ATOM     17  C   UNL     1       5.344   1.973  10.978  0.00  0.00    +0.000 C 
ATOM     18  C   UNL     1       4.336   2.860  11.702  0.00  0.00    +0.000 C 
ATOM     19  C   UNL     1       4.911   4.237  12.029  0.00  0.00    +0.000 C 
ENDBRANCH  13  14
ENDBRANCH   9  13
ENDBRANCH   1   9
BRANCH   6  20
ATOM     20  C   UNL     1       3.054   4.971  20.126  0.00  0.00    +0.000 C 
BRANCH  20  21
ATOM     21  C   UNL     1       1.819   5.651  20.716  0.00  0.00    +0.000 C 
BRANCH  21  22
ATOM     22  C   UNL     1       1.779   7.136  20.385  0.00  0.00    +0.000 C 
BRANCH  22  23
ATOM     23  O   UNL     1       1.717   7.865  21.610  0.00  0.00    +0.000 OA
BRANCH  23  24
ATOM     24  C   UNL     1       0.860   8.932  21.613  0.00  0.00    +0.000 A 
ATOM     25  C   UNL     1       0.258   9.214  22.842  0.00  0.00    +0.000 A 
ATOM     26  C   UNL     1      -0.641  10.276  22.960  0.00  0.00    +0.000 A 
ATOM     27  C   UNL     1      -0.933  11.090  21.853  0.00  0.00    +0.000 A 
ATOM     28  C   UNL     1      -0.310  10.815  20.634  0.00  0.00    +0.000 A 
ATOM     29  C   UNL     1       0.577   9.742  20.514  0.00  0.00    +0.000 A 
BRANCH  27  30
ATOM     30  C   UNL     1      -1.904  12.208  22.033  0.00  0.00    +0.000 C 
ATOM     31  O   UNL     1      -2.806  12.121  22.861  0.00  0.00    +0.000 OA
BRANCH  30  32
ATOM     32  C   UNL     1      -1.741  13.463  21.233  0.00  0.00    +0.000 C 
ATOM     33  C   UNL     1      -2.700  14.619  21.391  0.00  0.00    +0.000 C 
ATOM     34  C   UNL     1      -1.310  14.724  21.946  0.00  0.00    +0.000 C 
ENDBRANCH  30  32
ENDBRANCH  27  30
ENDBRANCH  23  24
ENDBRANCH  22  23
ENDBRANCH  21  22
ENDBRANCH  20  21
ENDBRANCH   6  20
TORSDOF 11
ENDMDL
