MODEL 1
REMARK VINA RESULT:      -7.2      0.000      0.000
REMARK  Name = 
REMARK  13 active torsions:
REMARK  status: ('A' for Active; 'I' for Inactive)
REMARK    1  A    between atoms: C_1  and  O_2
REMARK    2  A    between atoms: O_2  and  C_3
REMARK    3  A    between atoms: C_8  and  O_9
REMARK    4  A    between atoms: O_9  and  C_10
REMARK    5  A    between atoms: N_14  and  C_15
REMARK    6  A    between atoms: C_15  and  C_16
REMARK    7  A    between atoms: C_16  and  C_17
REMARK    8  A    between atoms: C_17  and  N_18
REMARK    9  A    between atoms: N_18  and  C_19
REMARK   10  A    between atoms: N_18  and  C_20
REMARK   11  A    between atoms: C_20  and  C_21
REMARK   12  A    between atoms: C_21  and  C_22
REMARK   13  A    between atoms: C_25  and  O_26
REMARK                            x       y       z     vdW  Elec       q    Type
REMARK                         _______ _______ _______ _____ _____    ______ ____
ROOT
ATOM      1  C   UNL     1      -0.596  12.813  21.913  0.00  0.00    +0.000 A 
ATOM      2  C   UNL     1      -0.562  11.421  22.098  0.00  0.00    +0.000 A 
ATOM      3  C   UNL     1      -0.284  10.559  21.034  0.00  0.00    +0.000 A 
ATOM      4  C   UNL     1       0.001  11.091  19.769  0.00  0.00    +0.000 A 
ATOM      5  C   UNL     1      -0.065  12.478  19.570  0.00  0.00    +0.000 A 
ATOM      6  C   UNL     1      -0.376  13.345  20.634  0.00  0.00    +0.000 A 
ATOM      7  C   UNL     1       0.292  10.186  18.618  0.00  0.00    +0.000 C 
ATOM      8  C   UNL     1       1.446   9.210  18.721  0.00  0.00    +0.000 C 
ATOM      9  O   UNL     1       2.110   9.067  17.701  0.00  0.00    +0.000 OA
ATOM     10  N   UNL     1       1.627   8.344  19.778  0.00  0.00    +0.000 N 
ATOM     11  C   UNL     1       1.149   8.574  21.146  0.00  0.00    +0.000 C 
ATOM     12  C   UNL     1      -0.266   9.077  21.289  0.00  0.00    +0.000 C 
ENDROOT
BRANCH   1  14
ATOM     13  C   UNL     1      -2.079  13.989  23.432  0.00  0.00    +0.000 C 
ATOM     14  O   UNL     1      -0.826  13.658  22.950  0.00  0.00    +0.000 OA
ENDBRANCH   1  14
BRANCH   6  15
ATOM     15  O   UNL     1      -0.467  14.690  20.465  0.00  0.00    +0.000 OA
ATOM     16  C   UNL     1      -0.298  15.361  19.271  0.00  0.00    +0.000 C 
ENDBRANCH   6  15
BRANCH  10  17
ATOM     17  C   UNL     1       2.290   7.063  19.538  0.00  0.00    +0.000 C 
BRANCH  17  18
ATOM     18  C   UNL     1       1.969   6.015  20.606  0.00  0.00    +0.000 C 
BRANCH  18  19
ATOM     19  C   UNL     1       1.737   4.666  19.917  0.00  0.00    +0.000 C 
BRANCH  19  20
ATOM     20  N   UNL     1       2.849   3.713  20.123  0.00  0.00    +0.000 NA
ATOM     21  C   UNL     1       2.551   2.765  21.218  0.00  0.00    +0.000 C 
BRANCH  20  22
ATOM     22  C   UNL     1       3.123   2.940  18.885  0.00  0.00    +0.000 C 
BRANCH  22  23
ATOM     23  C   UNL     1       2.855   3.742  17.595  0.00  0.00    +0.000 C 
BRANCH  23  24
ATOM     24  C   UNL     1       4.122   4.356  17.052  0.00  0.00    +0.000 A 
ATOM     25  C   UNL     1       5.139   3.531  16.538  0.00  0.00    +0.000 A 
ATOM     26  C   UNL     1       6.322   4.090  16.044  0.00  0.00    +0.000 A 
ATOM     27  C   UNL     1       6.503   5.481  16.059  0.00  0.00    +0.000 A 
ATOM     28  C   UNL     1       5.494   6.306  16.565  0.00  0.00    +0.000 A 
ATOM     29  C   UNL     1       4.310   5.748  17.058  0.00  0.00    +0.000 A 
BRANCH  27  30
ATOM     30  O   UNL     1       7.640   6.031  15.587  0.00  0.00    +0.000 OA
ATOM     31  H   UNL     1       8.006   6.849  15.955  0.00  0.00    +0.000 HD
ENDBRANCH  27  30
ENDBRANCH  23  24
ENDBRANCH  22  23
ENDBRANCH  20  22
ENDBRANCH  19  20
ENDBRANCH  18  19
ENDBRANCH  17  18
ENDBRANCH  10  17
TORSDOF 10
ENDMDL
MODEL 2
REMARK VINA RESULT:      -7.1      2.368      4.284
REMARK  Name = 
REMARK  13 active torsions:
REMARK  status: ('A' for Active; 'I' for Inactive)
REMARK    1  A    between atoms: C_1  and  O_2
REMARK    2  A    between atoms: O_2  and  C_3
REMARK    3  A    between atoms: C_8  and  O_9
REMARK    4  A    between atoms: O_9  and  C_10
REMARK    5  A    between atoms: N_14  and  C_15
REMARK    6  A    between atoms: C_15  and  C_16
REMARK    7  A    between atoms: C_16  and  C_17
REMARK    8  A    between atoms: C_17  and  N_18
REMARK    9  A    between atoms: N_18  and  C_19
REMARK   10  A    between atoms: N_18  and  C_20
REMARK   11  A    between atoms: C_20  and  C_21
REMARK   12  A    between atoms: C_21  and  C_22
REMARK   13  A    between atoms: C_25  and  O_26
REMARK                            x       y       z     vdW  Elec       q    Type
REMARK                         _______ _______ _______ _____ _____    ______ ____
ROOT
ATOM      1  C   UNL     1       1.152   9.893  19.468  0.00  0.00    +0.000 A 
ATOM      2  C   UNL     1       1.757   8.936  18.639  0.00  0.00    +0.000 A 
ATOM      3  C   UNL     1       2.040   7.650  19.108  0.00  0.00    +0.000 A 
ATOM      4  C   UNL     1       1.683   7.297  20.416  0.00  0.00    +0.000 A 
ATOM      5  C   UNL     1       1.108   8.259  21.261  0.00  0.00    +0.000 A 
ATOM      6  C   UNL     1       0.852   9.564  20.799  0.00  0.00    +0.000 A 
ATOM      7  C   UNL     1       1.984   5.932  20.939  0.00  0.00    +0.000 C 
ATOM      8  C   UNL     1       1.422   4.725  20.215  0.00  0.00    +0.000 C 
ATOM      9  O   UNL     1       1.024   3.816  20.933  0.00  0.00    +0.000 OA
ATOM     10  N   UNL     1       1.554   4.514  18.859  0.00  0.00    +0.000 N 
ATOM     11  C   UNL     1       1.710   5.571  17.853  0.00  0.00    +0.000 C 
ATOM     12  C   UNL     1       2.695   6.667  18.177  0.00  0.00    +0.000 C 
ENDROOT
BRANCH   1  14
ATOM     13  C   UNL     1      -0.406  11.498  18.528  0.00  0.00    +0.000 C 
ATOM     14  O   UNL     1       0.838  11.131  19.008  0.00  0.00    +0.000 OA
ENDBRANCH   1  14
BRANCH   6  15
ATOM     15  O   UNL     1       0.317  10.520  21.601  0.00  0.00    +0.000 OA
ATOM     16  C   UNL     1      -0.420  10.288  22.744  0.00  0.00    +0.000 C 
ENDBRANCH   6  15
BRANCH  10  17
ATOM     17  C   UNL     1       1.604   3.141  18.358  0.00  0.00    +0.000 C 
BRANCH  17  18
ATOM     18  C   UNL     1       2.524   2.982  17.145  0.00  0.00    +0.000 C 
BRANCH  18  19
ATOM     19  C   UNL     1       3.968   2.838  17.639  0.00  0.00    +0.000 C 
BRANCH  19  20
ATOM     20  N   UNL     1       4.128   3.195  19.066  0.00  0.00    +0.000 NA
ATOM     21  C   UNL     1       4.496   2.017  19.879  0.00  0.00    +0.000 C 
BRANCH  20  22
ATOM     22  C   UNL     1       5.170   4.238  19.239  0.00  0.00    +0.000 C 
BRANCH  22  23
ATOM     23  C   UNL     1       6.038   4.446  17.980  0.00  0.00    +0.000 C 
BRANCH  23  24
ATOM     24  C   UNL     1       6.729   5.787  17.999  0.00  0.00    +0.000 A 
ATOM     25  C   UNL     1       7.806   6.010  18.876  0.00  0.00    +0.000 A 
ATOM     26  C   UNL     1       8.445   7.254  18.911  0.00  0.00    +0.000 A 
ATOM     27  C   UNL     1       8.014   8.290  18.069  0.00  0.00    +0.000 A 
ATOM     28  C   UNL     1       6.946   8.073  17.192  0.00  0.00    +0.000 A 
ATOM     29  C   UNL     1       6.308   6.828  17.156  0.00  0.00    +0.000 A 
BRANCH  27  30
ATOM     30  O   UNL     1       8.621   9.494  18.094  0.00  0.00    +0.000 OA
ATOM     31  H   UNL     1       8.152  10.300  18.355  0.00  0.00    +0.000 HD
ENDBRANCH  27  30
ENDBRANCH  23  24
ENDBRANCH  22  23
ENDBRANCH  20  22
ENDBRANCH  19  20
ENDBRANCH  18  19
ENDBRANCH  17  18
ENDBRANCH  10  17
TORSDOF 10
ENDMDL
MODEL 3
REMARK VINA RESULT:      -7.0      1.239      1.460
REMARK  Name = 
REMARK  13 active torsions:
REMARK  status: ('A' for Active; 'I' for Inactive)
REMARK    1  A    between atoms: C_1  and  O_2
REMARK    2  A    between atoms: O_2  and  C_3
REMARK    3  A    between atoms: C_8  and  O_9
REMARK    4  A    between atoms: O_9  and  C_10
REMARK    5  A    between atoms: N_14  and  C_15
REMARK    6  A    between atoms: C_15  and  C_16
REMARK    7  A    between atoms: C_16  and  C_17
REMARK    8  A    between atoms: C_17  and  N_18
REMARK    9  A    between atoms: N_18  and  C_19
REMARK   10  A    between atoms: N_18  and  C_20
REMARK   11  A    between atoms: C_20  and  C_21
REMARK   12  A    between atoms: C_21  and  C_22
REMARK   13  A    between atoms: C_25  and  O_26
REMARK                            x       y       z     vdW  Elec       q    Type
REMARK                         _______ _______ _______ _____ _____    ______ ____
ROOT
ATOM      1  C   UNL     1       0.188  12.747  21.080  0.00  0.00    +0.000 A 
ATOM      2  C   UNL     1       0.011  11.398  21.426  0.00  0.00    +0.000 A 
ATOM      3  C   UNL     1       0.282  10.377  20.511  0.00  0.00    +0.000 A 
ATOM      4  C   UNL     1       0.772  10.701  19.239  0.00  0.00    +0.000 A 
ATOM      5  C   UNL     1       0.919  12.048  18.875  0.00  0.00    +0.000 A 
ATOM      6  C   UNL     1       0.616  13.078  19.786  0.00  0.00    +0.000 A 
ATOM      7  C   UNL     1       1.060   9.625  18.244  0.00  0.00    +0.000 C 
ATOM      8  C   UNL     1       2.051   8.537  18.601  0.00  0.00    +0.000 C 
ATOM      9  O   UNL     1       2.796   8.182  17.696  0.00  0.00    +0.000 OA
ATOM     10  N   UNL     1       1.996   7.800  19.765  0.00  0.00    +0.000 N 
ATOM     11  C   UNL     1       1.409   8.263  21.028  0.00  0.00    +0.000 C 
ATOM     12  C   UNL     1       0.069   8.949  20.935  0.00  0.00    +0.000 C 
ENDROOT
BRANCH   1  14
ATOM     13  C   UNL     1      -0.952  13.679  23.008  0.00  0.00    +0.000 C 
ATOM     14  O   UNL     1      -0.035  13.742  21.976  0.00  0.00    +0.000 OA
ENDBRANCH   1  14
BRANCH   6  15
ATOM     15  O   UNL     1       0.730  14.390  19.453  0.00  0.00    +0.000 OA
ATOM     16  C   UNL     1       1.911  15.052  19.191  0.00  0.00    +0.000 C 
ENDBRANCH   6  15
BRANCH  10  17
ATOM     17  C   UNL     1       2.500   6.427  19.759  0.00  0.00    +0.000 C 
BRANCH  17  18
ATOM     18  C   UNL     1       1.594   5.462  18.989  0.00  0.00    +0.000 C 
BRANCH  18  19
ATOM     19  C   UNL     1       1.178   4.325  19.928  0.00  0.00    +0.000 C 
BRANCH  19  20
ATOM     20  N   UNL     1       2.282   3.383  20.220  0.00  0.00    +0.000 NA
ATOM     21  C   UNL     1       2.217   2.890  21.612  0.00  0.00    +0.000 C 
BRANCH  20  22
ATOM     22  C   UNL     1       2.246   2.219  19.299  0.00  0.00    +0.000 C 
BRANCH  22  23
ATOM     23  C   UNL     1       3.587   1.970  18.580  0.00  0.00    +0.000 C 
BRANCH  23  24
ATOM     24  C   UNL     1       4.273   3.266  18.225  0.00  0.00    +0.000 A 
ATOM     25  C   UNL     1       4.060   3.853  16.965  0.00  0.00    +0.000 A 
ATOM     26  C   UNL     1       4.702   5.048  16.622  0.00  0.00    +0.000 A 
ATOM     27  C   UNL     1       5.565   5.671  17.536  0.00  0.00    +0.000 A 
ATOM     28  C   UNL     1       5.778   5.094  18.792  0.00  0.00    +0.000 A 
ATOM     29  C   UNL     1       5.135   3.899  19.136  0.00  0.00    +0.000 A 
BRANCH  27  30
ATOM     30  O   UNL     1       6.190   6.822  17.216  0.00  0.00    +0.000 OA
ATOM     31  H   UNL     1       6.818   6.878  16.482  0.00  0.00    +0.000 HD
ENDBRANCH  27  30
ENDBRANCH  23  24
ENDBRANCH  22  23
ENDBRANCH  20  22
ENDBRANCH  19  20
ENDBRANCH  18  19
ENDBRANCH  17  18
ENDBRANCH  10  17
TORSDOF 10
ENDMDL
MODEL 4
REMARK VINA RESULT:      -6.9      1.171      1.629
REMARK  Name = 
REMARK  13 active torsions:
REMARK  status: ('A' for Active; 'I' for Inactive)
REMARK    1  A    between atoms: C_1  and  O_2
REMARK    2  A    between atoms: O_2  and  C_3
REMARK    3  A    between atoms: C_8  and  O_9
REMARK    4  A    between atoms: O_9  and  C_10
REMARK    5  A    between atoms: N_14  and  C_15
REMARK    6  A    between atoms: C_15  and  C_16
REMARK    7  A    between atoms: C_16  and  C_17
REMARK    8  A    between atoms: C_17  and  N_18
REMARK    9  A    between atoms: N_18  and  C_19
REMARK   10  A    between atoms: N_18  and  C_20
REMARK   11  A    between atoms: C_20  and  C_21
REMARK   12  A    between atoms: C_21  and  C_22
REMARK   13  A    between atoms: C_25  and  O_26
REMARK                            x       y       z     vdW  Elec       q    Type
REMARK                         _______ _______ _______ _____ _____    ______ ____
ROOT
ATOM      1  C   UNL     1      -0.453  12.366  21.776  0.00  0.00    +0.000 A 
ATOM      2  C   UNL     1      -0.283  10.984  21.956  0.00  0.00    +0.000 A 
ATOM      3  C   UNL     1      -0.008  10.143  20.875  0.00  0.00    +0.000 A 
ATOM      4  C   UNL     1       0.137  10.692  19.593  0.00  0.00    +0.000 A 
ATOM      5  C   UNL     1      -0.064  12.067  19.401  0.00  0.00    +0.000 A 
ATOM      6  C   UNL     1      -0.373  12.909  20.485  0.00  0.00    +0.000 A 
ATOM      7  C   UNL     1       0.423   9.810  18.423  0.00  0.00    +0.000 C 
ATOM      8  C   UNL     1       1.664   8.939  18.442  0.00  0.00    +0.000 C 
ATOM      9  O   UNL     1       2.262   8.849  17.377  0.00  0.00    +0.000 OA
ATOM     10  N   UNL     1       1.995   8.098  19.482  0.00  0.00    +0.000 N 
ATOM     11  C   UNL     1       1.598   8.292  20.881  0.00  0.00    +0.000 C 
ATOM     12  C   UNL     1       0.158   8.670  21.126  0.00  0.00    +0.000 C 
ENDROOT
BRANCH   1  14
ATOM     13  C   UNL     1      -1.891  13.314  23.485  0.00  0.00    +0.000 C 
ATOM     14  O   UNL     1      -0.681  13.194  22.828  0.00  0.00    +0.000 OA
ENDBRANCH   1  14
BRANCH   6  15
ATOM     15  O   UNL     1      -0.593  14.240  20.324  0.00  0.00    +0.000 OA
ATOM     16  C   UNL     1       0.377  15.189  20.074  0.00  0.00    +0.000 C 
ENDBRANCH   6  15
BRANCH  10  17
ATOM     17  C   UNL     1       2.749   6.878  19.194  0.00  0.00    +0.000 C 
BRANCH  17  18
ATOM     18  C   UNL     1       1.887   5.774  18.577  0.00  0.00    +0.000 C 
BRANCH  18  19
ATOM     19  C   UNL     1       2.293   4.432  19.195  0.00  0.00    +0.000 C 
BRANCH  19  20
ATOM     20  N   UNL     1       3.592   3.933  18.692  0.00  0.00    +0.000 NA
ATOM     21  C   UNL     1       4.027   2.725  19.426  0.00  0.00    +0.000 C 
BRANCH  20  22
ATOM     22  C   UNL     1       3.513   3.610  17.245  0.00  0.00    +0.000 C 
BRANCH  22  23
ATOM     23  C   UNL     1       4.888   3.613  16.546  0.00  0.00    +0.000 C 
BRANCH  23  24
ATOM     24  C   UNL     1       5.722   4.796  16.970  0.00  0.00    +0.000 A 
ATOM     25  C   UNL     1       5.301   6.102  16.659  0.00  0.00    +0.000 A 
ATOM     26  C   UNL     1       6.073   7.205  17.036  0.00  0.00    +0.000 A 
ATOM     27  C   UNL     1       7.277   7.017  17.730  0.00  0.00    +0.000 A 
ATOM     28  C   UNL     1       7.700   5.721  18.046  0.00  0.00    +0.000 A 
ATOM     29  C   UNL     1       6.927   4.617  17.670  0.00  0.00    +0.000 A 
BRANCH  27  30
ATOM     30  O   UNL     1       8.031   8.072  18.098  0.00  0.00    +0.000 OA
ATOM     31  H   UNL     1       8.469   8.642  17.449  0.00  0.00    +0.000 HD
ENDBRANCH  27  30
ENDBRANCH  23  24
ENDBRANCH  22  23
ENDBRANCH  20  22
ENDBRANCH  19  20
ENDBRANCH  18  19
ENDBRANCH  17  18
ENDBRANCH  10  17
TORSDOF 10
ENDMDL
MODEL 5
REMARK VINA RESULT:      -6.7      2.969      8.784
REMARK  Name = 
REMARK  13 active torsions:
REMARK  status: ('A' for Active; 'I' for Inactive)
REMARK    1  A    between atoms: C_1  and  O_2
REMARK    2  A    between atoms: O_2  and  C_3
REMARK    3  A    between atoms: C_8  and  O_9
REMARK    4  A    between atoms: O_9  and  C_10
REMARK    5  A    between atoms: N_14  and  C_15
REMARK    6  A    between atoms: C_15  and  C_16
REMARK    7  A    between atoms: C_16  and  C_17
REMARK    8  A    between atoms: C_17  and  N_18
REMARK    9  A    between atoms: N_18  and  C_19
REMARK   10  A    between atoms: N_18  and  C_20
REMARK   11  A    between atoms: C_20  and  C_21
REMARK   12  A    between atoms: C_21  and  C_22
REMARK   13  A    between atoms: C_25  and  O_26
REMARK                            x       y       z     vdW  Elec       q    Type
REMARK                         _______ _______ _______ _____ _____    ______ ____
ROOT
ATOM      1  C   UNL     1       3.109   6.604  18.448  0.00  0.00    +0.000 A 
ATOM      2  C   UNL     1       2.643   7.798  17.877  0.00  0.00    +0.000 A 
ATOM      3  C   UNL     1       1.796   8.655  18.586  0.00  0.00    +0.000 A 
ATOM      4  C   UNL     1       1.433   8.335  19.901  0.00  0.00    +0.000 A 
ATOM      5  C   UNL     1       1.868   7.127  20.466  0.00  0.00    +0.000 A 
ATOM      6  C   UNL     1       2.695   6.248  19.741  0.00  0.00    +0.000 A 
ATOM      7  C   UNL     1       0.522   9.232  20.672  0.00  0.00    +0.000 C 
ATOM      8  C   UNL     1       0.922  10.678  20.890  0.00  0.00    +0.000 C 
ATOM      9  O   UNL     1       0.668  11.136  21.997  0.00  0.00    +0.000 OA
ATOM     10  N   UNL     1       1.318  11.525  19.877  0.00  0.00    +0.000 N 
ATOM     11  C   UNL     1       1.948  11.100  18.622  0.00  0.00    +0.000 C 
ATOM     12  C   UNL     1       1.323   9.919  17.922  0.00  0.00    +0.000 C 
ENDROOT
BRANCH   1  14
ATOM     13  C   UNL     1       3.627   4.547  17.269  0.00  0.00    +0.000 C 
ATOM     14  O   UNL     1       3.964   5.787  17.781  0.00  0.00    +0.000 OA
ENDBRANCH   1  14
BRANCH   6  15
ATOM     15  O   UNL     1       3.113   5.062  20.256  0.00  0.00    +0.000 OA
ATOM     16  C   UNL     1       2.427   4.303  21.181  0.00  0.00    +0.000 C 
ENDBRANCH   6  15
BRANCH  10  17
ATOM     17  C   UNL     1       1.052  12.957  20.007  0.00  0.00    +0.000 C 
BRANCH  17  18
ATOM     18  C   UNL     1      -0.030  13.454  19.045  0.00  0.00    +0.000 C 
BRANCH  18  19
ATOM     19  C   UNL     1      -1.150  14.108  19.861  0.00  0.00    +0.000 C 
BRANCH  19  20
ATOM     20  N   UNL     1      -1.492  13.349  21.085  0.00  0.00    +0.000 NA
ATOM     21  C   UNL     1      -2.167  14.208  22.081  0.00  0.00    +0.000 C 
BRANCH  20  22
ATOM     22  C   UNL     1      -2.377  12.200  20.768  0.00  0.00    +0.000 C 
BRANCH  22  23
ATOM     23  C   UNL     1      -3.486  12.549  19.754  0.00  0.00    +0.000 C 
BRANCH  23  24
ATOM     24  C   UNL     1      -3.371  11.716  18.501  0.00  0.00    +0.000 A 
ATOM     25  C   UNL     1      -2.263  10.871  18.317  0.00  0.00    +0.000 A 
ATOM     26  C   UNL     1      -2.140  10.105  17.153  0.00  0.00    +0.000 A 
ATOM     27  C   UNL     1      -3.126  10.175  16.158  0.00  0.00    +0.000 A 
ATOM     28  C   UNL     1      -4.234  11.011  16.337  0.00  0.00    +0.000 A 
ATOM     29  C   UNL     1      -4.357  11.777  17.501  0.00  0.00    +0.000 A 
BRANCH  27  30
ATOM     30  O   UNL     1      -3.020   9.443  15.030  0.00  0.00    +0.000 OA
ATOM     31  H   UNL     1      -2.361   9.643  14.349  0.00  0.00    +0.000 HD
ENDBRANCH  27  30
ENDBRANCH  23  24
ENDBRANCH  22  23
ENDBRANCH  20  22
ENDBRANCH  19  20
ENDBRANCH  18  19
ENDBRANCH  17  18
ENDBRANCH  10  17
TORSDOF 10
ENDMDL
MODEL 6
REMARK VINA RESULT:      -6.6      1.528      1.889
REMARK  Name = 
REMARK  13 active torsions:
REMARK  status: ('A' for Active; 'I' for Inactive)
REMARK    1  A    between atoms: C_1  and  O_2
REMARK    2  A    between atoms: O_2  and  C_3
REMARK    3  A    between atoms: C_8  and  O_9
REMARK    4  A    between atoms: O_9  and  C_10
REMARK    5  A    between atoms: N_14  and  C_15
REMARK    6  A    between atoms: C_15  and  C_16
REMARK    7  A    between atoms: C_16  and  C_17
REMARK    8  A    between atoms: C_17  and  N_18
REMARK    9  A    between atoms: N_18  and  C_19
REMARK   10  A    between atoms: N_18  and  C_20
REMARK   11  A    between atoms: C_20  and  C_21
REMARK   12  A    between atoms: C_21  and  C_22
REMARK   13  A    between atoms: C_25  and  O_26
REMARK                            x       y       z     vdW  Elec       q    Type
REMARK                         _______ _______ _______ _____ _____    ______ ____
ROOT
ATOM      1  C   UNL     1       0.425  12.673  20.049  0.00  0.00    +0.000 A 
ATOM      2  C   UNL     1       0.006  11.462  20.621  0.00  0.00    +0.000 A 
ATOM      3  C   UNL     1       0.351  10.235  20.049  0.00  0.00    +0.000 A 
ATOM      4  C   UNL     1       1.159  10.210  18.904  0.00  0.00    +0.000 A 
ATOM      5  C   UNL     1       1.554  11.416  18.307  0.00  0.00    +0.000 A 
ATOM      6  C   UNL     1       1.180  12.653  18.866  0.00  0.00    +0.000 A 
ATOM      7  C   UNL     1       1.532   8.909  18.272  0.00  0.00    +0.000 C 
ATOM      8  C   UNL     1       2.270   7.874  19.097  0.00  0.00    +0.000 C 
ATOM      9  O   UNL     1       3.153   7.262  18.509  0.00  0.00    +0.000 OA
ATOM     10  N   UNL     1       1.854   7.444  20.339  0.00  0.00    +0.000 N 
ATOM     11  C   UNL     1       1.054   8.236  21.280  0.00  0.00    +0.000 C 
ATOM     12  C   UNL     1      -0.132   8.969  20.702  0.00  0.00    +0.000 C 
ENDROOT
BRANCH   1  14
ATOM     13  C   UNL     1       0.753  14.378  21.744  0.00  0.00    +0.000 C 
ATOM     14  O   UNL     1       0.128  13.867  20.622  0.00  0.00    +0.000 OA
ENDBRANCH   1  14
BRANCH   6  15
ATOM     15  O   UNL     1       1.531  13.836  18.297  0.00  0.00    +0.000 OA
ATOM     16  C   UNL     1       2.787  14.404  18.338  0.00  0.00    +0.000 C 
ENDBRANCH   6  15
BRANCH  10  17
ATOM     17  C   UNL     1       2.170   6.079  20.758  0.00  0.00    +0.000 C 
BRANCH  17  18
ATOM     18  C   UNL     1       1.070   5.076  20.403  0.00  0.00    +0.000 C 
BRANCH  18  19
ATOM     19  C   UNL     1       1.521   4.263  19.185  0.00  0.00    +0.000 C 
BRANCH  19  20
ATOM     20  N   UNL     1       2.525   3.229  19.519  0.00  0.00    +0.000 NA
ATOM     21  C   UNL     1       2.068   1.882  19.116  0.00  0.00    +0.000 C 
BRANCH  20  22
ATOM     22  C   UNL     1       3.822   3.512  18.854  0.00  0.00    +0.000 C 
BRANCH  22  23
ATOM     23  C   UNL     1       3.862   3.054  17.381  0.00  0.00    +0.000 C 
BRANCH  23  24
ATOM     24  C   UNL     1       4.955   3.755  16.614  0.00  0.00    +0.000 A 
ATOM     25  C   UNL     1       4.788   4.033  15.246  0.00  0.00    +0.000 A 
ATOM     26  C   UNL     1       5.801   4.671  14.522  0.00  0.00    +0.000 A 
ATOM     27  C   UNL     1       6.996   5.038  15.159  0.00  0.00    +0.000 A 
ATOM     28  C   UNL     1       7.167   4.768  16.521  0.00  0.00    +0.000 A 
ATOM     29  C   UNL     1       6.153   4.131  17.245  0.00  0.00    +0.000 A 
BRANCH  27  30
ATOM     30  O   UNL     1       7.981   5.652  14.473  0.00  0.00    +0.000 OA
ATOM     31  H   UNL     1       8.251   5.359  13.591  0.00  0.00    +0.000 HD
ENDBRANCH  27  30
ENDBRANCH  23  24
ENDBRANCH  22  23
ENDBRANCH  20  22
ENDBRANCH  19  20
ENDBRANCH  18  19
ENDBRANCH  17  18
ENDBRANCH  10  17
TORSDOF 10
ENDMDL
MODEL 7
REMARK VINA RESULT:      -6.6      1.581      2.744
REMARK  Name = 
REMARK  13 active torsions:
REMARK  status: ('A' for Active; 'I' for Inactive)
REMARK    1  A    between atoms: C_1  and  O_2
REMARK    2  A    between atoms: O_2  and  C_3
REMARK    3  A    between atoms: C_8  and  O_9
REMARK    4  A    between atoms: O_9  and  C_10
REMARK    5  A    between atoms: N_14  and  C_15
REMARK    6  A    between atoms: C_15  and  C_16
REMARK    7  A    between atoms: C_16  and  C_17
REMARK    8  A    between atoms: C_17  and  N_18
REMARK    9  A    between atoms: N_18  and  C_19
REMARK   10  A    between atoms: N_18  and  C_20
REMARK   11  A    between atoms: C_20  and  C_21
REMARK   12  A    between atoms: C_21  and  C_22
REMARK   13  A    between atoms: C_25  and  O_26
REMARK                            x       y       z     vdW  Elec       q    Type
REMARK                         _______ _______ _______ _____ _____    ______ ____
ROOT
ATOM      1  C   UNL     1      -0.484  11.838  19.542  0.00  0.00    +0.000 A 
ATOM      2  C   UNL     1       0.522  11.200  18.799  0.00  0.00    +0.000 A 
ATOM      3  C   UNL     1       1.193  10.083  19.303  0.00  0.00    +0.000 A 
ATOM      4  C   UNL     1       0.832   9.567  20.555  0.00  0.00    +0.000 A 
ATOM      5  C   UNL     1      -0.149  10.220  21.317  0.00  0.00    +0.000 A 
ATOM      6  C   UNL     1      -0.802  11.364  20.823  0.00  0.00    +0.000 A 
ATOM      7  C   UNL     1       1.542   8.379  21.116  0.00  0.00    +0.000 C 
ATOM      8  C   UNL     1       1.547   7.085  20.328  0.00  0.00    +0.000 C 
ATOM      9  O   UNL     1       1.422   6.062  20.991  0.00  0.00    +0.000 OA
ATOM     10  N   UNL     1       1.909   6.995  19.001  0.00  0.00    +0.000 N 
ATOM     11  C   UNL     1       1.790   8.081  18.021  0.00  0.00    +0.000 C 
ATOM     12  C   UNL     1       2.265   9.443  18.465  0.00  0.00    +0.000 C 
ENDROOT
BRANCH   1  14
ATOM     13  C   UNL     1      -0.588  14.090  18.643  0.00  0.00    +0.000 C 
ATOM     14  O   UNL     1      -1.167  12.899  19.042  0.00  0.00    +0.000 OA
ENDBRANCH   1  14
BRANCH   6  15
ATOM     15  O   UNL     1      -1.740  12.028  21.549  0.00  0.00    +0.000 OA
ATOM     16  C   UNL     1      -1.785  12.101  22.925  0.00  0.00    +0.000 C 
ENDBRANCH   6  15
BRANCH  10  17
ATOM     17  C   UNL     1       2.513   5.756  18.513  0.00  0.00    +0.000 C 
BRANCH  17  18
ATOM     18  C   UNL     1       1.531   4.883  17.726  0.00  0.00    +0.000 C 
BRANCH  18  19
ATOM     19  C   UNL     1       1.630   3.444  18.245  0.00  0.00    +0.000 C 
BRANCH  19  20
ATOM     20  N   UNL     1       2.549   3.307  19.397  0.00  0.00    +0.000 NA
ATOM     21  C   UNL     1       1.908   2.582  20.515  0.00  0.00    +0.000 C 
BRANCH  20  22
ATOM     22  C   UNL     1       3.786   2.585  19.007  0.00  0.00    +0.000 C 
BRANCH  22  23
ATOM     23  C   UNL     1       4.104   2.692  17.502  0.00  0.00    +0.000 C 
BRANCH  23  24
ATOM     24  C   UNL     1       5.075   3.812  17.220  0.00  0.00    +0.000 A 
ATOM     25  C   UNL     1       5.750   4.442  18.282  0.00  0.00    +0.000 A 
ATOM     26  C   UNL     1       6.642   5.490  18.032  0.00  0.00    +0.000 A 
ATOM     27  C   UNL     1       6.871   5.921  16.717  0.00  0.00    +0.000 A 
ATOM     28  C   UNL     1       6.207   5.296  15.657  0.00  0.00    +0.000 A 
ATOM     29  C   UNL     1       5.315   4.247  15.906  0.00  0.00    +0.000 A 
BRANCH  27  30
ATOM     30  O   UNL     1       7.728   6.931  16.464  0.00  0.00    +0.000 OA
ATOM     31  H   UNL     1       8.688   6.817  16.523  0.00  0.00    +0.000 HD
ENDBRANCH  27  30
ENDBRANCH  23  24
ENDBRANCH  22  23
ENDBRANCH  20  22
ENDBRANCH  19  20
ENDBRANCH  18  19
ENDBRANCH  17  18
ENDBRANCH  10  17
TORSDOF 10
ENDMDL
MODEL 8
REMARK VINA RESULT:      -6.6      3.008      4.156
REMARK  Name = 
REMARK  13 active torsions:
REMARK  status: ('A' for Active; 'I' for Inactive)
REMARK    1  A    between atoms: C_1  and  O_2
REMARK    2  A    between atoms: O_2  and  C_3
REMARK    3  A    between atoms: C_8  and  O_9
REMARK    4  A    between atoms: O_9  and  C_10
REMARK    5  A    between atoms: N_14  and  C_15
REMARK    6  A    between atoms: C_15  and  C_16
REMARK    7  A    between atoms: C_16  and  C_17
REMARK    8  A    between atoms: C_17  and  N_18
REMARK    9  A    between atoms: N_18  and  C_19
REMARK   10  A    between atoms: N_18  and  C_20
REMARK   11  A    between atoms: C_20  and  C_21
REMARK   12  A    between atoms: C_21  and  C_22
REMARK   13  A    between atoms: C_25  and  O_26
REMARK                            x       y       z     vdW  Elec       q    Type
REMARK                         _______ _______ _______ _____ _____    ______ ____
ROOT
ATOM      1  C   UNL     1      -3.353  10.831  16.573  0.00  0.00    +0.000 A 
ATOM      2  C   UNL     1      -2.012  10.437  16.701  0.00  0.00    +0.000 A 
ATOM      3  C   UNL     1      -1.295  10.686  17.874  0.00  0.00    +0.000 A 
ATOM      4  C   UNL     1      -1.934  11.308  18.955  0.00  0.00    +0.000 A 
ATOM      5  C   UNL     1      -3.264  11.735  18.822  0.00  0.00    +0.000 A 
ATOM      6  C   UNL     1      -3.976  11.512  17.629  0.00  0.00    +0.000 A 
ATOM      7  C   UNL     1      -1.183  11.591  20.215  0.00  0.00    +0.000 C 
ATOM      8  C   UNL     1      -0.536  10.442  20.961  0.00  0.00    +0.000 C 
ATOM      9  O   UNL     1      -0.612  10.496  22.182  0.00  0.00    +0.000 OA
ATOM     10  N   UNL     1       0.296   9.516  20.371  0.00  0.00    +0.000 N 
ATOM     11  C   UNL     1       0.253   9.125  18.957  0.00  0.00    +0.000 C 
ATOM     12  C   UNL     1       0.141  10.246  17.953  0.00  0.00    +0.000 C 
ENDROOT
BRANCH   1  14
ATOM     13  C   UNL     1      -3.516  10.166  14.245  0.00  0.00    +0.000 C 
ATOM     14  O   UNL     1      -4.067  10.556  15.452  0.00  0.00    +0.000 OA
ENDBRANCH   1  14
BRANCH   6  15
ATOM     15  O   UNL     1      -5.258  11.934  17.466  0.00  0.00    +0.000 OA
ATOM     16  C   UNL     1      -6.373  11.344  18.024  0.00  0.00    +0.000 C 
ENDBRANCH   6  15
BRANCH  10  17
ATOM     17  C   UNL     1       1.350   8.897  21.174  0.00  0.00    +0.000 C 
BRANCH  17  18
ATOM     18  C   UNL     1       1.230   7.373  21.246  0.00  0.00    +0.000 C 
BRANCH  18  19
ATOM     19  C   UNL     1       2.168   6.758  20.202  0.00  0.00    +0.000 C 
BRANCH  19  20
ATOM     20  N   UNL     1       2.421   5.318  20.430  0.00  0.00    +0.000 NA
ATOM     21  C   UNL     1       1.166   4.538  20.397  0.00  0.00    +0.000 C 
BRANCH  20  22
ATOM     22  C   UNL     1       3.348   4.772  19.406  0.00  0.00    +0.000 C 
BRANCH  22  23
ATOM     23  C   UNL     1       4.777   5.345  19.513  0.00  0.00    +0.000 C 
BRANCH  23  24
ATOM     24  C   UNL     1       5.488   5.309  18.183  0.00  0.00    +0.000 A 
ATOM     25  C   UNL     1       5.085   4.394  17.194  0.00  0.00    +0.000 A 
ATOM     26  C   UNL     1       5.746   4.344  15.962  0.00  0.00    +0.000 A 
ATOM     27  C   UNL     1       6.819   5.210  15.704  0.00  0.00    +0.000 A 
ATOM     28  C   UNL     1       7.222   6.125  16.682  0.00  0.00    +0.000 A 
ATOM     29  C   UNL     1       6.560   6.176  17.914  0.00  0.00    +0.000 A 
BRANCH  27  30
ATOM     30  O   UNL     1       7.465   5.171  14.521  0.00  0.00    +0.000 OA
ATOM     31  H   UNL     1       6.995   5.232  13.677  0.00  0.00    +0.000 HD
ENDBRANCH  27  30
ENDBRANCH  23  24
ENDBRANCH  22  23
ENDBRANCH  20  22
ENDBRANCH  19  20
ENDBRANCH  18  19
ENDBRANCH  17  18
ENDBRANCH  10  17
TORSDOF 10
ENDMDL
MODEL 9
REMARK VINA RESULT:      -6.5      2.680      3.721
REMARK  Name = 
REMARK  13 active torsions:
REMARK  status: ('A' for Active; 'I' for Inactive)
REMARK    1  A    between atoms: C_1  and  O_2
REMARK    2  A    between atoms: O_2  and  C_3
REMARK    3  A    between atoms: C_8  and  O_9
REMARK    4  A    between atoms: O_9  and  C_10
REMARK    5  A    between atoms: N_14  and  C_15
REMARK    6  A    between atoms: C_15  and  C_16
REMARK    7  A    between atoms: C_16  and  C_17
REMARK    8  A    between atoms: C_17  and  N_18
REMARK    9  A    between atoms: N_18  and  C_19
REMARK   10  A    between atoms: N_18  and  C_20
REMARK   11  A    between atoms: C_20  and  C_21
REMARK   12  A    between atoms: C_21  and  C_22
REMARK   13  A    between atoms: C_25  and  O_26
REMARK                            x       y       z     vdW  Elec       q    Type
REMARK                         _______ _______ _______ _____ _____    ______ ____
ROOT
ATOM      1  C   UNL     1      -3.157  11.388  17.217  0.00  0.00    +0.000 A 
ATOM      2  C   UNL     1      -1.834  10.921  17.217  0.00  0.00    +0.000 A 
ATOM      3  C   UNL     1      -1.075  10.899  18.390  0.00  0.00    +0.000 A 
ATOM      4  C   UNL     1      -1.656  11.317  19.596  0.00  0.00    +0.000 A 
ATOM      5  C   UNL     1      -2.967  11.816  19.597  0.00  0.00    +0.000 A 
ATOM      6  C   UNL     1      -3.720  11.868  18.409  0.00  0.00    +0.000 A 
ATOM      7  C   UNL     1      -0.861  11.309  20.859  0.00  0.00    +0.000 C 
ATOM      8  C   UNL     1      -0.250  10.007  21.338  0.00  0.00    +0.000 C 
ATOM      9  O   UNL     1      -0.291   9.817  22.547  0.00  0.00    +0.000 OA
ATOM     10  N   UNL     1       0.522   9.185  20.545  0.00  0.00    +0.000 N 
ATOM     11  C   UNL     1       0.424   9.089  19.084  0.00  0.00    +0.000 C 
ATOM     12  C   UNL     1       0.340  10.393  18.329  0.00  0.00    +0.000 C 
ENDROOT
BRANCH   1  14
ATOM     13  C   UNL     1      -3.715  10.519  15.021  0.00  0.00    +0.000 C 
ATOM     14  O   UNL     1      -3.913  11.375  16.089  0.00  0.00    +0.000 OA
ENDBRANCH   1  14
BRANCH   6  15
ATOM     15  O   UNL     1      -4.984  12.367  18.378  0.00  0.00    +0.000 OA
ATOM     16  C   UNL     1      -5.770  12.628  19.481  0.00  0.00    +0.000 C 
ENDBRANCH   6  15
BRANCH  10  17
ATOM     17  C   UNL     1       1.566   8.374  21.171  0.00  0.00    +0.000 C 
BRANCH  17  18
ATOM     18  C   UNL     1       1.295   6.871  21.073  0.00  0.00    +0.000 C 
BRANCH  18  19
ATOM     19  C   UNL     1       2.365   6.237  20.178  0.00  0.00    +0.000 C 
BRANCH  19  20
ATOM     20  N   UNL     1       2.669   4.836  20.545  0.00  0.00    +0.000 NA
ATOM     21  C   UNL     1       1.436   4.077  20.846  0.00  0.00    +0.000 C 
BRANCH  20  22
ATOM     22  C   UNL     1       3.398   4.146  19.451  0.00  0.00    +0.000 C 
BRANCH  22  23
ATOM     23  C   UNL     1       3.066   4.704  18.052  0.00  0.00    +0.000 C 
BRANCH  23  24
ATOM     24  C   UNL     1       4.313   4.909  17.228  0.00  0.00    +0.000 A 
ATOM     25  C   UNL     1       5.087   6.071  17.398  0.00  0.00    +0.000 A 
ATOM     26  C   UNL     1       6.238   6.276  16.630  0.00  0.00    +0.000 A 
ATOM     27  C   UNL     1       6.629   5.321  15.681  0.00  0.00    +0.000 A 
ATOM     28  C   UNL     1       5.866   4.161  15.509  0.00  0.00    +0.000 A 
ATOM     29  C   UNL     1       4.716   3.955  16.278  0.00  0.00    +0.000 A 
BRANCH  27  30
ATOM     30  O   UNL     1       7.735   5.507  14.933  0.00  0.00    +0.000 OA
ATOM     31  H   UNL     1       8.625   5.447  15.309  0.00  0.00    +0.000 HD
ENDBRANCH  27  30
ENDBRANCH  23  24
ENDBRANCH  22  23
ENDBRANCH  20  22
ENDBRANCH  19  20
ENDBRANCH  18  19
ENDBRANCH  17  18
ENDBRANCH  10  17
TORSDOF 10
ENDMDL
