MODEL 1
REMARK VINA RESULT:      -7.6      0.000      0.000
REMARK  Name = 
REMARK  7 active torsions:
REMARK  status: ('A' for Active; 'I' for Inactive)
REMARK    1  A    between atoms: C_1  and  C_2
REMARK    2  A    between atoms: C_4  and  C_5
REMARK    3  A    between atoms: N_7  and  C_8
REMARK    4  A    between atoms: C_11  and  C_12
REMARK    5  A    between atoms: C_13  and  C_14
REMARK    6  A    between atoms: C_14  and  C_15
REMARK    7  A    between atoms: C_18  and  C_19
REMARK                            x       y       z     vdW  Elec       q    Type
REMARK                         _______ _______ _______ _____ _____    ______ ____
ROOT
ATOM      1  C   UNL     1       0.149   9.711  22.114  0.00  0.00    +0.000 C 
ATOM      2  C   UNL     1       0.915   9.061  21.015  0.00  0.00    +0.000 A 
ATOM      3  N   UNL     1       1.383   7.784  21.168  0.00  0.00    +0.000 N 
ATOM      4  C   UNL     1       2.025   7.348  20.032  0.00  0.00    +0.000 A 
ATOM      5  C   UNL     1       1.927   8.371  19.096  0.00  0.00    +0.000 A 
ATOM      6  C   UNL     1       2.332   8.359  17.660  0.00  0.00    +0.000 C 
ATOM      7  C   UNL     1       1.259   9.482  19.739  0.00  0.00    +0.000 A 
ATOM      8  H   UNL     1       1.259   7.199  21.986  0.00  0.00    +0.000 HD
ENDROOT
BRANCH   4   9
ATOM      9  C   UNL     1       2.554   5.998  19.992  0.00  0.00    +0.000 C 
ATOM     10  O   UNL     1       3.537   5.714  19.310  0.00  0.00    +0.000 OA
ATOM     11  N   UNL     1       1.852   5.048  20.705  0.00  0.00    +0.000 N 
ATOM     12  H   UNL     1       0.946   5.295  21.080  0.00  0.00    +0.000 HD
BRANCH  11  13
ATOM     13  C   UNL     1       2.305   3.697  20.785  0.00  0.00    +0.000 C 
ATOM     14  C   UNL     1       1.493   2.706  21.577  0.00  0.00    +0.000 C 
ATOM     15  C   UNL     1       1.620   2.556  20.090  0.00  0.00    +0.000 C 
ENDBRANCH  11  13
ENDBRANCH   4   9
BRANCH   7  16
ATOM     16  C   UNL     1       0.901  10.786  19.082  0.00  0.00    +0.000 C 
BRANCH  16  17
ATOM     17  C   UNL     1      -0.569  10.759  18.729  0.00  0.00    +0.000 A 
ATOM     18  C   UNL     1      -1.050   9.932  17.715  0.00  0.00    +0.000 A 
ATOM     19  C   UNL     1      -2.377  10.045  17.308  0.00  0.00    +0.000 A 
ATOM     20  C   UNL     1      -3.207  10.988  17.913  0.00  0.00    +0.000 A 
ATOM     21  C   UNL     1      -2.664  11.753  18.934  0.00  0.00    +0.000 A 
ATOM     22  N   UNL     1      -1.376  11.662  19.348  0.00  0.00    +0.000 NA
BRANCH  20  23
ATOM     23  C   UNL     1      -4.621  11.213  17.477  0.00  0.00    +0.000 C 
ATOM     24  F   UNL     1      -5.054  12.490  17.679  0.00  0.00    +0.000 F 
ATOM     25  F   UNL     1      -4.812  10.961  16.153  0.00  0.00    +0.000 F 
ATOM     26  F   UNL     1      -5.503  10.417  18.140  0.00  0.00    +0.000 F 
ENDBRANCH  20  23
ENDBRANCH  16  17
ENDBRANCH   7  16
TORSDOF 5
ENDMDL
MODEL 2
REMARK VINA RESULT:      -7.5      6.401      8.754
REMARK  Name = 
REMARK  7 active torsions:
REMARK  status: ('A' for Active; 'I' for Inactive)
REMARK    1  A    between atoms: C_1  and  C_2
REMARK    2  A    between atoms: C_4  and  C_5
REMARK    3  A    between atoms: N_7  and  C_8
REMARK    4  A    between atoms: C_11  and  C_12
REMARK    5  A    between atoms: C_13  and  C_14
REMARK    6  A    between atoms: C_14  and  C_15
REMARK    7  A    between atoms: C_18  and  C_19
REMARK                            x       y       z     vdW  Elec       q    Type
REMARK                         _______ _______ _______ _____ _____    ______ ____
ROOT
ATOM      1  C   UNL     1       8.400   4.367  18.637  0.00  0.00    +0.000 C 
ATOM      2  C   UNL     1       7.539   4.907  17.548  0.00  0.00    +0.000 A 
ATOM      3  N   UNL     1       7.777   4.555  16.247  0.00  0.00    +0.000 N 
ATOM      4  C   UNL     1       6.853   5.121  15.399  0.00  0.00    +0.000 A 
ATOM      5  C   UNL     1       5.959   5.830  16.193  0.00  0.00    +0.000 A 
ATOM      6  C   UNL     1       4.694   6.511  15.789  0.00  0.00    +0.000 C 
ATOM      7  C   UNL     1       6.424   5.732  17.560  0.00  0.00    +0.000 A 
ATOM      8  H   UNL     1       8.509   3.934  15.923  0.00  0.00    +0.000 HD
ENDROOT
BRANCH   4   9
ATOM      9  C   UNL     1       6.921   4.827  13.981  0.00  0.00    +0.000 C 
ATOM     10  O   UNL     1       7.729   5.392  13.246  0.00  0.00    +0.000 OA
ATOM     11  N   UNL     1       5.986   3.934  13.499  0.00  0.00    +0.000 N 
ATOM     12  H   UNL     1       5.225   3.656  14.104  0.00  0.00    +0.000 HD
BRANCH  11  13
ATOM     13  C   UNL     1       5.986   3.525  12.132  0.00  0.00    +0.000 C 
ATOM     14  C   UNL     1       5.739   2.075  11.808  0.00  0.00    +0.000 C 
ATOM     15  C   UNL     1       4.745   3.119  11.392  0.00  0.00    +0.000 C 
ENDBRANCH  11  13
ENDBRANCH   4   9
BRANCH   7  16
ATOM     16  C   UNL     1       5.734   6.314  18.762  0.00  0.00    +0.000 C 
BRANCH  16  17
ATOM     17  C   UNL     1       4.533   5.455  19.090  0.00  0.00    +0.000 A 
ATOM     18  C   UNL     1       3.289   6.027  19.350  0.00  0.00    +0.000 A 
ATOM     19  C   UNL     1       2.245   5.224  19.802  0.00  0.00    +0.000 A 
ATOM     20  C   UNL     1       2.457   3.860  19.999  0.00  0.00    +0.000 A 
ATOM     21  C   UNL     1       3.713   3.361  19.691  0.00  0.00    +0.000 A 
ATOM     22  N   UNL     1       4.745   4.120  19.249  0.00  0.00    +0.000 NA
BRANCH  20  23
ATOM     23  C   UNL     1       1.403   2.953  20.550  0.00  0.00    +0.000 C 
ATOM     24  F   UNL     1       1.399   2.890  21.912  0.00  0.00    +0.000 F 
ATOM     25  F   UNL     1       0.143   3.327  20.192  0.00  0.00    +0.000 F 
ATOM     26  F   UNL     1       1.546   1.669  20.123  0.00  0.00    +0.000 F 
ENDBRANCH  20  23
ENDBRANCH  16  17
ENDBRANCH   7  16
TORSDOF 5
ENDMDL
MODEL 3
REMARK VINA RESULT:      -7.5      6.581      9.256
REMARK  Name = 
REMARK  7 active torsions:
REMARK  status: ('A' for Active; 'I' for Inactive)
REMARK    1  A    between atoms: C_1  and  C_2
REMARK    2  A    between atoms: C_4  and  C_5
REMARK    3  A    between atoms: N_7  and  C_8
REMARK    4  A    between atoms: C_11  and  C_12
REMARK    5  A    between atoms: C_13  and  C_14
REMARK    6  A    between atoms: C_14  and  C_15
REMARK    7  A    between atoms: C_18  and  C_19
REMARK                            x       y       z     vdW  Elec       q    Type
REMARK                         _______ _______ _______ _____ _____    ______ ____
ROOT
ATOM      1  C   UNL     1       4.324   2.908  19.804  0.00  0.00    +0.000 C 
ATOM      2  C   UNL     1       4.278   4.262  19.186  0.00  0.00    +0.000 A 
ATOM      3  N   UNL     1       3.243   5.111  19.471  0.00  0.00    +0.000 N 
ATOM      4  C   UNL     1       3.401   6.322  18.839  0.00  0.00    +0.000 A 
ATOM      5  C   UNL     1       4.610   6.265  18.155  0.00  0.00    +0.000 A 
ATOM      6  C   UNL     1       5.319   7.357  17.426  0.00  0.00    +0.000 C 
ATOM      7  C   UNL     1       5.146   4.933  18.338  0.00  0.00    +0.000 A 
ATOM      8  H   UNL     1       2.465   4.914  20.090  0.00  0.00    +0.000 HD
ENDROOT
BRANCH   4   9
ATOM      9  C   UNL     1       2.420   7.368  19.057  0.00  0.00    +0.000 C 
ATOM     10  O   UNL     1       1.967   8.027  18.123  0.00  0.00    +0.000 OA
ATOM     11  N   UNL     1       2.081   7.620  20.370  0.00  0.00    +0.000 N 
ATOM     12  H   UNL     1       2.627   7.189  21.103  0.00  0.00    +0.000 HD
BRANCH  11  13
ATOM     13  C   UNL     1       1.087   8.588  20.707  0.00  0.00    +0.000 C 
ATOM     14  C   UNL     1      -0.042   8.182  21.616  0.00  0.00    +0.000 C 
ATOM     15  C   UNL     1       0.961   9.200  22.072  0.00  0.00    +0.000 C 
ENDBRANCH  11  13
ENDBRANCH   4   9
BRANCH   7  16
ATOM     16  C   UNL     1       6.464   4.441  17.808  0.00  0.00    +0.000 C 
BRANCH  16  17
ATOM     17  C   UNL     1       6.384   4.382  16.299  0.00  0.00    +0.000 A 
ATOM     18  C   UNL     1       5.321   3.745  15.660  0.00  0.00    +0.000 A 
ATOM     19  C   UNL     1       5.355   3.570  14.279  0.00  0.00    +0.000 A 
ATOM     20  C   UNL     1       6.455   4.025  13.552  0.00  0.00    +0.000 A 
ATOM     21  C   UNL     1       7.459   4.674  14.255  0.00  0.00    +0.000 A 
ATOM     22  N   UNL     1       7.449   4.857  15.598  0.00  0.00    +0.000 NA
BRANCH  20  23
ATOM     23  C   UNL     1       6.592   3.807  12.078  0.00  0.00    +0.000 C 
ATOM     24  F   UNL     1       7.182   2.621  11.757  0.00  0.00    +0.000 F 
ATOM     25  F   UNL     1       5.394   3.812  11.430  0.00  0.00    +0.000 F 
ATOM     26  F   UNL     1       7.346   4.768  11.477  0.00  0.00    +0.000 F 
ENDBRANCH  20  23
ENDBRANCH  16  17
ENDBRANCH   7  16
TORSDOF 5
ENDMDL
MODEL 4
REMARK VINA RESULT:      -7.4      4.479      7.570
REMARK  Name = 
REMARK  7 active torsions:
REMARK  status: ('A' for Active; 'I' for Inactive)
REMARK    1  A    between atoms: C_1  and  C_2
REMARK    2  A    between atoms: C_4  and  C_5
REMARK    3  A    between atoms: N_7  and  C_8
REMARK    4  A    between atoms: C_11  and  C_12
REMARK    5  A    between atoms: C_13  and  C_14
REMARK    6  A    between atoms: C_14  and  C_15
REMARK    7  A    between atoms: C_18  and  C_19
REMARK                            x       y       z     vdW  Elec       q    Type
REMARK                         _______ _______ _______ _____ _____    ______ ____
ROOT
ATOM      1  C   UNL     1       0.012   9.210  22.562  0.00  0.00    +0.000 C 
ATOM      2  C   UNL     1       0.173   9.356  21.089  0.00  0.00    +0.000 A 
ATOM      3  N   UNL     1      -0.668  10.176  20.386  0.00  0.00    +0.000 N 
ATOM      4  C   UNL     1      -0.333  10.210  19.052  0.00  0.00    +0.000 A 
ATOM      5  C   UNL     1       0.795   9.413  18.899  0.00  0.00    +0.000 A 
ATOM      6  C   UNL     1       1.641   9.220  17.685  0.00  0.00    +0.000 C 
ATOM      7  C   UNL     1       1.090   8.831  20.191  0.00  0.00    +0.000 A 
ATOM      8  H   UNL     1      -1.425  10.727  20.774  0.00  0.00    +0.000 HD
ENDROOT
BRANCH   4   9
ATOM      9  C   UNL     1      -1.089  11.060  18.153  0.00  0.00    +0.000 C 
ATOM     10  O   UNL     1      -1.144  12.278  18.316  0.00  0.00    +0.000 OA
ATOM     11  N   UNL     1      -1.792  10.419  17.154  0.00  0.00    +0.000 N 
ATOM     12  H   UNL     1      -1.871   9.411  17.188  0.00  0.00    +0.000 HD
BRANCH  11  13
ATOM     13  C   UNL     1      -2.529  11.153  16.177  0.00  0.00    +0.000 C 
ATOM     14  C   UNL     1      -3.036  10.429  14.958  0.00  0.00    +0.000 C 
ATOM     15  C   UNL     1      -4.005  10.984  15.960  0.00  0.00    +0.000 C 
ENDBRANCH  11  13
ENDBRANCH   4   9
BRANCH   7  16
ATOM     16  C   UNL     1       2.256   7.934  20.501  0.00  0.00    +0.000 C 
BRANCH  16  17
ATOM     17  C   UNL     1       1.943   6.544  19.995  0.00  0.00    +0.000 A 
ATOM     18  C   UNL     1       1.316   5.606  20.814  0.00  0.00    +0.000 A 
ATOM     19  C   UNL     1       1.183   4.291  20.375  0.00  0.00    +0.000 A 
ATOM     20  C   UNL     1       1.685   3.925  19.127  0.00  0.00    +0.000 A 
ATOM     21  C   UNL     1       2.269   4.921  18.359  0.00  0.00    +0.000 A 
ATOM     22  N   UNL     1       2.410   6.208  18.763  0.00  0.00    +0.000 NA
BRANCH  20  23
ATOM     23  C   UNL     1       1.642   2.517  18.622  0.00  0.00    +0.000 C 
ATOM     24  F   UNL     1       0.385   1.991  18.588  0.00  0.00    +0.000 F 
ATOM     25  F   UNL     1       2.131   2.394  17.357  0.00  0.00    +0.000 F 
ATOM     26  F   UNL     1       2.376   1.666  19.391  0.00  0.00    +0.000 F 
ENDBRANCH  20  23
ENDBRANCH  16  17
ENDBRANCH   7  16
TORSDOF 5
ENDMDL
MODEL 5
REMARK VINA RESULT:      -7.4      6.463      8.739
REMARK  Name = 
REMARK  7 active torsions:
REMARK  status: ('A' for Active; 'I' for Inactive)
REMARK    1  A    between atoms: C_1  and  C_2
REMARK    2  A    between atoms: C_4  and  C_5
REMARK    3  A    between atoms: N_7  and  C_8
REMARK    4  A    between atoms: C_11  and  C_12
REMARK    5  A    between atoms: C_13  and  C_14
REMARK    6  A    between atoms: C_14  and  C_15
REMARK    7  A    between atoms: C_18  and  C_19
REMARK                            x       y       z     vdW  Elec       q    Type
REMARK                         _______ _______ _______ _____ _____    ______ ____
ROOT
ATOM      1  C   UNL     1       8.220   7.420  18.113  0.00  0.00    +0.000 C 
ATOM      2  C   UNL     1       7.495   6.349  17.376  0.00  0.00    +0.000 A 
ATOM      3  N   UNL     1       7.587   6.272  16.013  0.00  0.00    +0.000 N 
ATOM      4  C   UNL     1       6.883   5.195  15.524  0.00  0.00    +0.000 A 
ATOM      5  C   UNL     1       6.354   4.528  16.623  0.00  0.00    +0.000 A 
ATOM      6  C   UNL     1       5.629   3.224  16.659  0.00  0.00    +0.000 C 
ATOM      7  C   UNL     1       6.705   5.291  17.801  0.00  0.00    +0.000 A 
ATOM      8  H   UNL     1       8.123   6.891  15.416  0.00  0.00    +0.000 HD
ENDROOT
BRANCH   4   9
ATOM      9  C   UNL     1       6.899   4.926  14.100  0.00  0.00    +0.000 C 
ATOM     10  O   UNL     1       7.443   5.693  13.308  0.00  0.00    +0.000 OA
ATOM     11  N   UNL     1       6.212   3.803  13.684  0.00  0.00    +0.000 N 
ATOM     12  H   UNL     1       5.621   3.324  14.349  0.00  0.00    +0.000 HD
BRANCH  11  13
ATOM     13  C   UNL     1       6.201   3.406  12.313  0.00  0.00    +0.000 C 
ATOM     14  C   UNL     1       5.675   2.040  11.959  0.00  0.00    +0.000 C 
ATOM     15  C   UNL     1       4.943   3.269  11.506  0.00  0.00    +0.000 C 
ENDBRANCH  11  13
ENDBRANCH   4   9
BRANCH   7  16
ATOM     16  C   UNL     1       6.376   4.912  19.219  0.00  0.00    +0.000 C 
BRANCH  16  17
ATOM     17  C   UNL     1       4.934   4.458  19.273  0.00  0.00    +0.000 A 
ATOM     18  C   UNL     1       3.890   5.354  19.049  0.00  0.00    +0.000 A 
ATOM     19  C   UNL     1       2.576   4.943  19.261  0.00  0.00    +0.000 A 
ATOM     20  C   UNL     1       2.320   3.646  19.702  0.00  0.00    +0.000 A 
ATOM     21  C   UNL     1       3.410   2.805  19.874  0.00  0.00    +0.000 A 
ATOM     22  N   UNL     1       4.697   3.180  19.675  0.00  0.00    +0.000 NA
BRANCH  20  23
ATOM     23  C   UNL     1       0.941   3.160  20.019  0.00  0.00    +0.000 C 
ATOM     24  F   UNL     1       0.005   4.151  20.025  0.00  0.00    +0.000 F 
ATOM     25  F   UNL     1       0.492   2.230  19.131  0.00  0.00    +0.000 F 
ATOM     26  F   UNL     1       0.864   2.574  21.245  0.00  0.00    +0.000 F 
ENDBRANCH  20  23
ENDBRANCH  16  17
ENDBRANCH   7  16
TORSDOF 5
ENDMDL
MODEL 6
REMARK VINA RESULT:      -7.3      6.532      8.679
REMARK  Name = 
REMARK  7 active torsions:
REMARK  status: ('A' for Active; 'I' for Inactive)
REMARK    1  A    between atoms: C_1  and  C_2
REMARK    2  A    between atoms: C_4  and  C_5
REMARK    3  A    between atoms: N_7  and  C_8
REMARK    4  A    between atoms: C_11  and  C_12
REMARK    5  A    between atoms: C_13  and  C_14
REMARK    6  A    between atoms: C_14  and  C_15
REMARK    7  A    between atoms: C_18  and  C_19
REMARK                            x       y       z     vdW  Elec       q    Type
REMARK                         _______ _______ _______ _____ _____    ______ ____
ROOT
ATOM      1  C   UNL     1       8.099   4.443  18.362  0.00  0.00    +0.000 C 
ATOM      2  C   UNL     1       7.371   4.969  17.175  0.00  0.00    +0.000 A 
ATOM      3  N   UNL     1       7.707   4.540  15.919  0.00  0.00    +0.000 N 
ATOM      4  C   UNL     1       6.896   5.106  14.963  0.00  0.00    +0.000 A 
ATOM      5  C   UNL     1       5.973   5.898  15.636  0.00  0.00    +0.000 A 
ATOM      6  C   UNL     1       4.788   6.619  15.085  0.00  0.00    +0.000 C 
ATOM      7  C   UNL     1       6.306   5.848  17.044  0.00  0.00    +0.000 A 
ATOM      8  H   UNL     1       8.431   3.867  15.694  0.00  0.00    +0.000 HD
ENDROOT
BRANCH   4   9
ATOM      9  C   UNL     1       7.076   4.737  13.573  0.00  0.00    +0.000 C 
ATOM     10  O   UNL     1       7.804   5.387  12.825  0.00  0.00    +0.000 OA
ATOM     11  N   UNL     1       6.334   3.662  13.128  0.00  0.00    +0.000 N 
ATOM     12  H   UNL     1       5.608   3.293  13.727  0.00  0.00    +0.000 HD
BRANCH  11  13
ATOM     13  C   UNL     1       6.466   3.171  11.794  0.00  0.00    +0.000 C 
ATOM     14  C   UNL     1       7.210   1.883  11.566  0.00  0.00    +0.000 C 
ATOM     15  C   UNL     1       5.739   1.961  11.285  0.00  0.00    +0.000 C 
ENDBRANCH  11  13
ENDBRANCH   4   9
BRANCH   7  16
ATOM     16  C   UNL     1       5.542   6.523  18.148  0.00  0.00    +0.000 C 
BRANCH  16  17
ATOM     17  C   UNL     1       4.359   5.656  18.516  0.00  0.00    +0.000 A 
ATOM     18  C   UNL     1       3.066   6.000  18.122  0.00  0.00    +0.000 A 
ATOM     19  C   UNL     1       1.984   5.270  18.608  0.00  0.00    +0.000 A 
ATOM     20  C   UNL     1       2.203   4.210  19.487  0.00  0.00    +0.000 A 
ATOM     21  C   UNL     1       3.519   3.912  19.808  0.00  0.00    +0.000 A 
ATOM     22  N   UNL     1       4.589   4.606  19.349  0.00  0.00    +0.000 NA
BRANCH  20  23
ATOM     23  C   UNL     1       1.085   3.430  20.103  0.00  0.00    +0.000 C 
ATOM     24  F   UNL     1       0.499   2.551  19.242  0.00  0.00    +0.000 F 
ATOM     25  F   UNL     1       1.485   2.690  21.173  0.00  0.00    +0.000 F 
ATOM     26  F   UNL     1       0.080   4.229  20.555  0.00  0.00    +0.000 F 
ENDBRANCH  20  23
ENDBRANCH  16  17
ENDBRANCH   7  16
TORSDOF 5
ENDMDL
MODEL 7
REMARK VINA RESULT:      -7.2      4.806      6.501
REMARK  Name = 
REMARK  7 active torsions:
REMARK  status: ('A' for Active; 'I' for Inactive)
REMARK    1  A    between atoms: C_1  and  C_2
REMARK    2  A    between atoms: C_4  and  C_5
REMARK    3  A    between atoms: N_7  and  C_8
REMARK    4  A    between atoms: C_11  and  C_12
REMARK    5  A    between atoms: C_13  and  C_14
REMARK    6  A    between atoms: C_14  and  C_15
REMARK    7  A    between atoms: C_18  and  C_19
REMARK                            x       y       z     vdW  Elec       q    Type
REMARK                         _______ _______ _______ _____ _____    ______ ____
ROOT
ATOM      1  C   UNL     1       2.084   3.582  17.621  0.00  0.00    +0.000 C 
ATOM      2  C   UNL     1       3.470   4.118  17.527  0.00  0.00    +0.000 A 
ATOM      3  N   UNL     1       4.244   3.830  16.436  0.00  0.00    +0.000 N 
ATOM      4  C   UNL     1       5.471   4.448  16.515  0.00  0.00    +0.000 A 
ATOM      5  C   UNL     1       5.467   5.199  17.685  0.00  0.00    +0.000 A 
ATOM      6  C   UNL     1       6.495   6.165  18.173  0.00  0.00    +0.000 C 
ATOM      7  C   UNL     1       4.208   4.951  18.354  0.00  0.00    +0.000 A 
ATOM      8  H   UNL     1       3.966   3.267  15.641  0.00  0.00    +0.000 HD
ENDROOT
BRANCH   4   9
ATOM      9  C   UNL     1       6.414   4.292  15.426  0.00  0.00    +0.000 C 
ATOM     10  O   UNL     1       7.559   4.735  15.499  0.00  0.00    +0.000 OA
ATOM     11  N   UNL     1       5.932   3.681  14.286  0.00  0.00    +0.000 N 
ATOM     12  H   UNL     1       4.937   3.518  14.207  0.00  0.00    +0.000 HD
BRANCH  11  13
ATOM     13  C   UNL     1       6.781   3.423  13.167  0.00  0.00    +0.000 C 
ATOM     14  C   UNL     1       6.151   3.122  11.834  0.00  0.00    +0.000 C 
ATOM     15  C   UNL     1       6.948   4.379  12.022  0.00  0.00    +0.000 C 
ENDBRANCH  11  13
ENDBRANCH   4   9
BRANCH   7  16
ATOM     16  C   UNL     1       3.758   5.594  19.636  0.00  0.00    +0.000 C 
BRANCH  16  17
ATOM     17  C   UNL     1       2.855   6.760  19.299  0.00  0.00    +0.000 A 
ATOM     18  C   UNL     1       2.921   7.383  18.054  0.00  0.00    +0.000 A 
ATOM     19  C   UNL     1       2.193   8.549  17.830  0.00  0.00    +0.000 A 
ATOM     20  C   UNL     1       1.413   9.084  18.855  0.00  0.00    +0.000 A 
ATOM     21  C   UNL     1       1.376   8.390  20.055  0.00  0.00    +0.000 A 
ATOM     22  N   UNL     1       2.075   7.254  20.298  0.00  0.00    +0.000 NA
BRANCH  20  23
ATOM     23  C   UNL     1       0.662  10.370  18.708  0.00  0.00    +0.000 C 
ATOM     24  F   UNL     1       0.088  10.798  19.867  0.00  0.00    +0.000 F 
ATOM     25  F   UNL     1       1.451  11.396  18.283  0.00  0.00    +0.000 F 
ATOM     26  F   UNL     1      -0.353  10.280  17.806  0.00  0.00    +0.000 F 
ENDBRANCH  20  23
ENDBRANCH  16  17
ENDBRANCH   7  16
TORSDOF 5
ENDMDL
MODEL 8
REMARK VINA RESULT:      -7.2      6.589      8.779
REMARK  Name = 
REMARK  7 active torsions:
REMARK  status: ('A' for Active; 'I' for Inactive)
REMARK    1  A    between atoms: C_1  and  C_2
REMARK    2  A    between atoms: C_4  and  C_5
REMARK    3  A    between atoms: N_7  and  C_8
REMARK    4  A    between atoms: C_11  and  C_12
REMARK    5  A    between atoms: C_13  and  C_14
REMARK    6  A    between atoms: C_14  and  C_15
REMARK    7  A    between atoms: C_18  and  C_19
REMARK                            x       y       z     vdW  Elec       q    Type
REMARK                         _______ _______ _______ _____ _____    ______ ____
ROOT
ATOM      1  C   UNL     1       8.218   4.391  18.358  0.00  0.00    +0.000 C 
ATOM      2  C   UNL     1       7.439   4.925  17.208  0.00  0.00    +0.000 A 
ATOM      3  N   UNL     1       7.720   4.507  15.935  0.00  0.00    +0.000 N 
ATOM      4  C   UNL     1       6.869   5.081  15.020  0.00  0.00    +0.000 A 
ATOM      5  C   UNL     1       5.975   5.866  15.739  0.00  0.00    +0.000 A 
ATOM      6  C   UNL     1       4.767   6.590  15.246  0.00  0.00    +0.000 C 
ATOM      7  C   UNL     1       6.369   5.804  17.130  0.00  0.00    +0.000 A 
ATOM      8  H   UNL     1       8.434   3.837  15.673  0.00  0.00    +0.000 HD
ENDROOT
BRANCH   4   9
ATOM      9  C   UNL     1       6.988   4.724  13.620  0.00  0.00    +0.000 C 
ATOM     10  O   UNL     1       7.710   5.360  12.855  0.00  0.00    +0.000 OA
ATOM     11  N   UNL     1       6.197   3.678  13.189  0.00  0.00    +0.000 N 
ATOM     12  H   UNL     1       5.481   3.325  13.809  0.00  0.00    +0.000 HD
BRANCH  11  13
ATOM     13  C   UNL     1       6.267   3.200  11.846  0.00  0.00    +0.000 C 
ATOM     14  C   UNL     1       7.229   2.089  11.521  0.00  0.00    +0.000 C 
ATOM     15  C   UNL     1       5.750   1.856  11.421  0.00  0.00    +0.000 C 
ENDBRANCH  11  13
ENDBRANCH   4   9
BRANCH   7  16
ATOM     16  C   UNL     1       5.653   6.470  18.272  0.00  0.00    +0.000 C 
BRANCH  16  17
ATOM     17  C   UNL     1       4.521   5.572  18.720  0.00  0.00    +0.000 A 
ATOM     18  C   UNL     1       4.776   4.344  19.327  0.00  0.00    +0.000 A 
ATOM     19  C   UNL     1       3.719   3.473  19.584  0.00  0.00    +0.000 A 
ATOM     20  C   UNL     1       2.422   3.835  19.223  0.00  0.00    +0.000 A 
ATOM     21  C   UNL     1       2.246   5.085  18.650  0.00  0.00    +0.000 A 
ATOM     22  N   UNL     1       3.257   5.951  18.390  0.00  0.00    +0.000 NA
BRANCH  20  23
ATOM     23  C   UNL     1       1.251   2.920  19.402  0.00  0.00    +0.000 C 
ATOM     24  F   UNL     1       0.515   2.753  18.268  0.00  0.00    +0.000 F 
ATOM     25  F   UNL     1       1.615   1.669  19.797  0.00  0.00    +0.000 F 
ATOM     26  F   UNL     1       0.378   3.371  20.344  0.00  0.00    +0.000 F 
ENDBRANCH  20  23
ENDBRANCH  16  17
ENDBRANCH   7  16
TORSDOF 5
ENDMDL
MODEL 9
REMARK VINA RESULT:      -7.1      6.378      8.651
REMARK  Name = 
REMARK  7 active torsions:
REMARK  status: ('A' for Active; 'I' for Inactive)
REMARK    1  A    between atoms: C_1  and  C_2
REMARK    2  A    between atoms: C_4  and  C_5
REMARK    3  A    between atoms: N_7  and  C_8
REMARK    4  A    between atoms: C_11  and  C_12
REMARK    5  A    between atoms: C_13  and  C_14
REMARK    6  A    between atoms: C_14  and  C_15
REMARK    7  A    between atoms: C_18  and  C_19
REMARK                            x       y       z     vdW  Elec       q    Type
REMARK                         _______ _______ _______ _____ _____    ______ ____
ROOT
ATOM      1  C   UNL     1       7.967   7.658  17.962  0.00  0.00    +0.000 C 
ATOM      2  C   UNL     1       7.352   6.498  17.260  0.00  0.00    +0.000 A 
ATOM      3  N   UNL     1       7.449   6.390  15.899  0.00  0.00    +0.000 N 
ATOM      4  C   UNL     1       6.856   5.234  15.446  0.00  0.00    +0.000 A 
ATOM      5  C   UNL     1       6.398   4.550  16.566  0.00  0.00    +0.000 A 
ATOM      6  C   UNL     1       5.808   3.182  16.644  0.00  0.00    +0.000 C 
ATOM      7  C   UNL     1       6.673   5.380  17.720  0.00  0.00    +0.000 A 
ATOM      8  H   UNL     1       7.919   7.042  15.282  0.00  0.00    +0.000 HD
ENDROOT
BRANCH   4   9
ATOM      9  C   UNL     1       6.896   4.926  14.030  0.00  0.00    +0.000 C 
ATOM     10  O   UNL     1       7.716   5.454  13.281  0.00  0.00    +0.000 OA
ATOM     11  N   UNL     1       5.922   4.064  13.566  0.00  0.00    +0.000 N 
ATOM     12  H   UNL     1       5.159   3.820  14.183  0.00  0.00    +0.000 HD
BRANCH  11  13
ATOM     13  C   UNL     1       5.892   3.645  12.203  0.00  0.00    +0.000 C 
ATOM     14  C   UNL     1       5.692   2.184  11.898  0.00  0.00    +0.000 C 
ATOM     15  C   UNL     1       4.642   3.183  11.510  0.00  0.00    +0.000 C 
ENDBRANCH  11  13
ENDBRANCH   4   9
BRANCH   7  16
ATOM     16  C   UNL     1       6.386   5.012  19.149  0.00  0.00    +0.000 C 
BRANCH  16  17
ATOM     17  C   UNL     1       4.957   4.524  19.243  0.00  0.00    +0.000 A 
ATOM     18  C   UNL     1       4.671   3.205  19.593  0.00  0.00    +0.000 A 
ATOM     19  C   UNL     1       3.358   2.745  19.517  0.00  0.00    +0.000 A 
ATOM     20  C   UNL     1       2.348   3.604  19.085  0.00  0.00    +0.000 A 
ATOM     21  C   UNL     1       2.709   4.909  18.784  0.00  0.00    +0.000 A 
ATOM     22  N   UNL     1       3.978   5.381  18.849  0.00  0.00    +0.000 NA
BRANCH  20  23
ATOM     23  C   UNL     1       0.931   3.158  18.911  0.00  0.00    +0.000 C 
ATOM     24  F   UNL     1       0.322   3.700  17.819  0.00  0.00    +0.000 F 
ATOM     25  F   UNL     1       0.816   1.809  18.769  0.00  0.00    +0.000 F 
ATOM     26  F   UNL     1       0.147   3.490  19.973  0.00  0.00    +0.000 F 
ENDBRANCH  20  23
ENDBRANCH  16  17
ENDBRANCH   7  16
TORSDOF 5
ENDMDL
