MODEL 1
REMARK VINA RESULT:      -8.0      0.000      0.000
REMARK  Name = 
REMARK  7 active torsions:
REMARK  status: ('A' for Active; 'I' for Inactive)
REMARK    1  A    between atoms: C_1  and  C_2
REMARK    2  A    between atoms: C_2  and  C_3
REMARK    3  A    between atoms: C_2  and  S_4
REMARK    4  A    between atoms: S_4  and  N_7
REMARK    5  A    between atoms: N_13  and  C_14
REMARK    6  A    between atoms: C_17  and  C_18
REMARK    7  A    between atoms: C_26  and  N_27
REMARK                            x       y       z     vdW  Elec       q    Type
REMARK                         _______ _______ _______ _____ _____    ______ ____
ROOT
ATOM      1  C   UNL     1       1.425   8.992  19.692  0.00  0.00    +0.000 C 
ATOM      2  C   UNL     1       0.321   9.923  19.152  0.00  0.00    +0.000 C 
ATOM      3  O   UNL     1       0.246  11.118  19.927  0.00  0.00    +0.000 OA
ATOM      4  C   UNL     1      -0.140  10.879  21.290  0.00  0.00    +0.000 C 
ATOM      5  C   UNL     1       0.906   9.970  22.003  0.00  0.00    +0.000 C 
ATOM      6  C   UNL     1       1.152   8.691  21.184  0.00  0.00    +0.000 C 
ENDROOT
BRANCH   1  13
ATOM      7  N   UNL     1       5.406   6.101  17.838  0.00  0.00    +0.000 N 
ATOM      8  C   UNL     1       4.674   6.916  16.992  0.00  0.00    +0.000 A 
ATOM      9  C   UNL     1       3.524   7.177  17.673  0.00  0.00    +0.000 A 
ATOM     10  C   UNL     1       3.609   6.475  18.860  0.00  0.00    +0.000 A 
ATOM     11  N   UNL     1       4.743   5.795  19.007  0.00  0.00    +0.000 NA
ATOM     12  C   UNL     1       2.419   6.696  19.705  0.00  0.00    +0.000 C 
ATOM     13  N   UNL     1       1.657   7.747  18.928  0.00  0.00    +0.000 NA
ATOM     14  C   UNL     1       2.289   7.951  17.582  0.00  0.00    +0.000 C 
BRANCH   7  15
ATOM     15  S   UNL     1       6.969   5.525  17.378  0.00  0.00    +0.000 S 
ATOM     16  O   UNL     1       7.483   4.871  18.570  0.00  0.00    +0.000 OA
ATOM     17  O   UNL     1       7.631   6.689  16.820  0.00  0.00    +0.000 OA
BRANCH  15  19
ATOM     18  C   UNL     1       5.364   3.678  16.208  0.00  0.00    +0.000 C 
ATOM     19  C   UNL     1       6.759   4.290  16.093  0.00  0.00    +0.000 C 
ATOM     20  C   UNL     1       6.964   4.878  14.703  0.00  0.00    +0.000 C 
ENDBRANCH  15  19
ENDBRANCH   7  15
ENDBRANCH   1  13
BRANCH   4  21
ATOM     21  C   UNL     1      -0.317  12.233  21.949  0.00  0.00    +0.000 A 
ATOM     22  C   UNL     1       0.462  13.343  21.582  0.00  0.00    +0.000 A 
ATOM     23  C   UNL     1       0.223  14.590  22.155  0.00  0.00    +0.000 A 
ATOM     24  F   UNL     1       0.954  15.644  21.768  0.00  0.00    +0.000 F 
ATOM     25  C   UNL     1      -0.774  14.762  23.109  0.00  0.00    +0.000 A 
ATOM     26  C   UNL     1      -1.534  13.665  23.507  0.00  0.00    +0.000 A 
ATOM     27  C   UNL     1      -1.299  12.416  22.929  0.00  0.00    +0.000 A 
ATOM     28  F   UNL     1      -2.046  11.375  23.326  0.00  0.00    +0.000 F 
ENDBRANCH   4  21
BRANCH   5  29
ATOM     29  N   UNL     1       0.528   9.552  23.366  0.00  0.00    +0.000 NA
ATOM     30  H   UNL     1       0.274   8.562  23.368  0.00  0.00    +0.000 HD
ATOM     31  H   UNL     1      -0.319  10.043  23.654  0.00  0.00    +0.000 HD
ENDBRANCH   5  29
TORSDOF 5
ENDMDL
MODEL 2
REMARK VINA RESULT:      -7.9      4.735     10.251
REMARK  Name = 
REMARK  7 active torsions:
REMARK  status: ('A' for Active; 'I' for Inactive)
REMARK    1  A    between atoms: C_1  and  C_2
REMARK    2  A    between atoms: C_2  and  C_3
REMARK    3  A    between atoms: C_2  and  S_4
REMARK    4  A    between atoms: S_4  and  N_7
REMARK    5  A    between atoms: N_13  and  C_14
REMARK    6  A    between atoms: C_17  and  C_18
REMARK    7  A    between atoms: C_26  and  N_27
REMARK                            x       y       z     vdW  Elec       q    Type
REMARK                         _______ _______ _______ _____ _____    ______ ____
ROOT
ATOM      1  C   UNL     1       0.929   9.749  18.940  0.00  0.00    +0.000 C 
ATOM      2  C   UNL     1       2.027   9.506  17.885  0.00  0.00    +0.000 C 
ATOM      3  O   UNL     1       2.140   8.117  17.585  0.00  0.00    +0.000 OA
ATOM      4  C   UNL     1       2.565   7.332  18.712  0.00  0.00    +0.000 C 
ATOM      5  C   UNL     1       1.529   7.437  19.872  0.00  0.00    +0.000 C 
ATOM      6  C   UNL     1       1.243   8.913  20.202  0.00  0.00    +0.000 C 
ENDROOT
BRANCH   1  13
ATOM      7  N   UNL     1      -2.624  12.643  21.517  0.00  0.00    +0.000 N 
ATOM      8  C   UNL     1      -2.619  12.601  20.133  0.00  0.00    +0.000 A 
ATOM      9  C   UNL     1      -1.384  12.130  19.805  0.00  0.00    +0.000 A 
ATOM     10  C   UNL     1      -0.706  11.959  20.997  0.00  0.00    +0.000 A 
ATOM     11  N   UNL     1      -1.422  12.265  22.076  0.00  0.00    +0.000 NA
ATOM     12  C   UNL     1       0.652  11.427  20.774  0.00  0.00    +0.000 C 
ATOM     13  N   UNL     1       0.658  11.161  19.285  0.00  0.00    +0.000 NA
ATOM     14  C   UNL     1      -0.579  11.730  18.655  0.00  0.00    +0.000 C 
BRANCH   7  15
ATOM     15  S   UNL     1      -4.021  13.178  22.381  0.00  0.00    +0.000 S 
ATOM     16  O   UNL     1      -5.056  12.216  22.035  0.00  0.00    +0.000 OA
ATOM     17  O   UNL     1      -4.152  14.578  22.019  0.00  0.00    +0.000 OA
BRANCH  15  19
ATOM     18  C   UNL     1      -3.473  14.447  24.715  0.00  0.00    +0.000 C 
ATOM     19  C   UNL     1      -3.683  13.048  24.138  0.00  0.00    +0.000 C 
ATOM     20  C   UNL     1      -4.806  12.335  24.880  0.00  0.00    +0.000 C 
ENDBRANCH  15  19
ENDBRANCH   7  15
ENDBRANCH   1  13
BRANCH   4  21
ATOM     21  C   UNL     1       2.778   5.915  18.216  0.00  0.00    +0.000 A 
ATOM     22  C   UNL     1       1.817   4.909  18.413  0.00  0.00    +0.000 A 
ATOM     23  C   UNL     1       2.013   3.637  17.879  0.00  0.00    +0.000 A 
ATOM     24  F   UNL     1       1.071   2.700  18.049  0.00  0.00    +0.000 F 
ATOM     25  C   UNL     1       3.162   3.329  17.159  0.00  0.00    +0.000 A 
ATOM     26  C   UNL     1       4.138   4.307  16.982  0.00  0.00    +0.000 A 
ATOM     27  C   UNL     1       3.940   5.584  17.510  0.00  0.00    +0.000 A 
ATOM     28  F   UNL     1       4.893   6.510  17.323  0.00  0.00    +0.000 F 
ENDBRANCH   4  21
BRANCH   5  29
ATOM     29  N   UNL     1       1.943   6.780  21.125  0.00  0.00    +0.000 NA
ATOM     30  H   UNL     1       2.049   5.775  20.973  0.00  0.00    +0.000 HD
ATOM     31  H   UNL     1       1.200   6.866  21.820  0.00  0.00    +0.000 HD
ENDBRANCH   5  29
TORSDOF 5
ENDMDL
MODEL 3
REMARK VINA RESULT:      -7.9      4.685     10.202
REMARK  Name = 
REMARK  7 active torsions:
REMARK  status: ('A' for Active; 'I' for Inactive)
REMARK    1  A    between atoms: C_1  and  C_2
REMARK    2  A    between atoms: C_2  and  C_3
REMARK    3  A    between atoms: C_2  and  S_4
REMARK    4  A    between atoms: S_4  and  N_7
REMARK    5  A    between atoms: N_13  and  C_14
REMARK    6  A    between atoms: C_17  and  C_18
REMARK    7  A    between atoms: C_26  and  N_27
REMARK                            x       y       z     vdW  Elec       q    Type
REMARK                         _______ _______ _______ _____ _____    ______ ____
ROOT
ATOM      1  C   UNL     1       0.772   9.957  18.892  0.00  0.00    +0.000 C 
ATOM      2  C   UNL     1       1.920   9.848  17.869  0.00  0.00    +0.000 C 
ATOM      3  O   UNL     1       2.167   8.485  17.531  0.00  0.00    +0.000 OA
ATOM      4  C   UNL     1       2.624   7.704  18.647  0.00  0.00    +0.000 C 
ATOM      5  C   UNL     1       1.547   7.679  19.774  0.00  0.00    +0.000 C 
ATOM      6  C   UNL     1       1.120   9.111  20.139  0.00  0.00    +0.000 C 
ENDROOT
BRANCH   1  13
ATOM      7  N   UNL     1      -2.775  12.407  21.900  0.00  0.00    +0.000 N 
ATOM      8  C   UNL     1      -2.939  12.345  20.527  0.00  0.00    +0.000 A 
ATOM      9  C   UNL     1      -1.704  12.033  20.046  0.00  0.00    +0.000 A 
ATOM     10  C   UNL     1      -0.865  11.970  21.142  0.00  0.00    +0.000 A 
ATOM     11  N   UNL     1      -1.474  12.197  22.303  0.00  0.00    +0.000 NA
ATOM     12  C   UNL     1       0.512  11.614  20.748  0.00  0.00    +0.000 C 
ATOM     13  N   UNL     1       0.366  11.328  19.270  0.00  0.00    +0.000 NA
ATOM     14  C   UNL     1      -1.005  11.722  18.802  0.00  0.00    +0.000 C 
BRANCH   7  15
ATOM     15  S   UNL     1      -4.111  12.771  22.935  0.00  0.00    +0.000 S 
ATOM     16  O   UNL     1      -3.894  11.949  24.115  0.00  0.00    +0.000 OA
ATOM     17  O   UNL     1      -5.278  12.578  22.095  0.00  0.00    +0.000 OA
BRANCH  15  19
ATOM     18  C   UNL     1      -3.188  14.612  24.700  0.00  0.00    +0.000 C 
ATOM     19  C   UNL     1      -4.002  14.497  23.412  0.00  0.00    +0.000 C 
ATOM     20  C   UNL     1      -3.377  15.350  22.315  0.00  0.00    +0.000 C 
ENDBRANCH  15  19
ENDBRANCH   7  15
ENDBRANCH   1  13
BRANCH   4  21
ATOM     21  C   UNL     1       2.979   6.329  18.117  0.00  0.00    +0.000 A 
ATOM     22  C   UNL     1       2.085   5.248  18.203  0.00  0.00    +0.000 A 
ATOM     23  C   UNL     1       2.414   4.017  17.639  0.00  0.00    +0.000 A 
ATOM     24  F   UNL     1       1.536   3.008  17.702  0.00  0.00    +0.000 F 
ATOM     25  C   UNL     1       3.631   3.825  16.996  0.00  0.00    +0.000 A 
ATOM     26  C   UNL     1       4.541   4.877  16.929  0.00  0.00    +0.000 A 
ATOM     27  C   UNL     1       4.211   6.113  17.489  0.00  0.00    +0.000 A 
ATOM     28  F   UNL     1       5.102   7.112  17.409  0.00  0.00    +0.000 F 
ENDBRANCH   4  21
BRANCH   5  29
ATOM     29  N   UNL     1       1.979   7.020  21.021  0.00  0.00    +0.000 NA
ATOM     30  H   UNL     1       2.431   6.129  20.805  0.00  0.00    +0.000 HD
ATOM     31  H   UNL     1       1.162   6.773  21.580  0.00  0.00    +0.000 HD
ENDBRANCH   5  29
TORSDOF 5
ENDMDL
MODEL 4
REMARK VINA RESULT:      -7.8      5.036     10.264
REMARK  Name = 
REMARK  7 active torsions:
REMARK  status: ('A' for Active; 'I' for Inactive)
REMARK    1  A    between atoms: C_1  and  C_2
REMARK    2  A    between atoms: C_2  and  C_3
REMARK    3  A    between atoms: C_2  and  S_4
REMARK    4  A    between atoms: S_4  and  N_7
REMARK    5  A    between atoms: N_13  and  C_14
REMARK    6  A    between atoms: C_17  and  C_18
REMARK    7  A    between atoms: C_26  and  N_27
REMARK                            x       y       z     vdW  Elec       q    Type
REMARK                         _______ _______ _______ _____ _____    ______ ____
ROOT
ATOM      1  C   UNL     1       0.715  10.016  18.871  0.00  0.00    +0.000 C 
ATOM      2  C   UNL     1       1.847   9.858  17.837  0.00  0.00    +0.000 C 
ATOM      3  O   UNL     1       2.073   8.480  17.542  0.00  0.00    +0.000 OA
ATOM      4  C   UNL     1       2.536   7.732  18.679  0.00  0.00    +0.000 C 
ATOM      5  C   UNL     1       1.475   7.759  19.820  0.00  0.00    +0.000 C 
ATOM      6  C   UNL     1       1.070   9.208  20.141  0.00  0.00    +0.000 C 
ENDROOT
BRANCH   1  13
ATOM      7  N   UNL     1      -3.132  12.635  21.316  0.00  0.00    +0.000 N 
ATOM      8  C   UNL     1      -3.073  12.599  19.934  0.00  0.00    +0.000 A 
ATOM      9  C   UNL     1      -1.795  12.220  19.652  0.00  0.00    +0.000 A 
ATOM     10  C   UNL     1      -1.151  12.094  20.868  0.00  0.00    +0.000 A 
ATOM     11  N   UNL     1      -1.928  12.343  21.920  0.00  0.00    +0.000 NA
ATOM     12  C   UNL     1       0.249  11.662  20.696  0.00  0.00    +0.000 C 
ATOM     13  N   UNL     1       0.330  11.403  19.207  0.00  0.00    +0.000 NA
ATOM     14  C   UNL     1      -0.921  11.883  18.532  0.00  0.00    +0.000 C 
BRANCH   7  15
ATOM     15  S   UNL     1      -4.596  13.065  22.128  0.00  0.00    +0.000 S 
ATOM     16  O   UNL     1      -4.505  14.505  22.307  0.00  0.00    +0.000 OA
ATOM     17  O   UNL     1      -4.648  12.172  23.271  0.00  0.00    +0.000 OA
BRANCH  15  19
ATOM     18  C   UNL     1      -7.145  12.179  21.857  0.00  0.00    +0.000 C 
ATOM     19  C   UNL     1      -5.973  12.710  21.034  0.00  0.00    +0.000 C 
ATOM     20  C   UNL     1      -6.399  13.940  20.242  0.00  0.00    +0.000 C 
ENDBRANCH  15  19
ENDBRANCH   7  15
ENDBRANCH   1  13
BRANCH   4  21
ATOM     21  C   UNL     1       2.867   6.336  18.190  0.00  0.00    +0.000 A 
ATOM     22  C   UNL     1       1.950   5.276  18.299  0.00  0.00    +0.000 A 
ATOM     23  C   UNL     1       2.259   4.024  17.773  0.00  0.00    +0.000 A 
ATOM     24  F   UNL     1       1.359   3.035  17.857  0.00  0.00    +0.000 F 
ATOM     25  C   UNL     1       3.477   3.788  17.147  0.00  0.00    +0.000 A 
ATOM     26  C   UNL     1       4.409   4.819  17.059  0.00  0.00    +0.000 A 
ATOM     27  C   UNL     1       4.099   6.077  17.580  0.00  0.00    +0.000 A 
ATOM     28  F   UNL     1       5.012   7.055  17.481  0.00  0.00    +0.000 F 
ENDBRANCH   4  21
BRANCH   5  29
ATOM     29  N   UNL     1       1.915   7.137  21.082  0.00  0.00    +0.000 NA
ATOM     30  H   UNL     1       2.625   6.427  20.892  0.00  0.00    +0.000 HD
ATOM     31  H   UNL     1       1.138   6.628  21.504  0.00  0.00    +0.000 HD
ENDBRANCH   5  29
TORSDOF 5
ENDMDL
MODEL 5
REMARK VINA RESULT:      -7.8      4.280      5.364
REMARK  Name = 
REMARK  7 active torsions:
REMARK  status: ('A' for Active; 'I' for Inactive)
REMARK    1  A    between atoms: C_1  and  C_2
REMARK    2  A    between atoms: C_2  and  C_3
REMARK    3  A    between atoms: C_2  and  S_4
REMARK    4  A    between atoms: S_4  and  N_7
REMARK    5  A    between atoms: N_13  and  C_14
REMARK    6  A    between atoms: C_17  and  C_18
REMARK    7  A    between atoms: C_26  and  N_27
REMARK                            x       y       z     vdW  Elec       q    Type
REMARK                         _______ _______ _______ _____ _____    ______ ____
ROOT
ATOM      1  C   UNL     1      -0.860  10.499  19.434  0.00  0.00    +0.000 C 
ATOM      2  C   UNL     1      -1.358  11.932  19.708  0.00  0.00    +0.000 C 
ATOM      3  O   UNL     1      -2.782  11.989  19.662  0.00  0.00    +0.000 OA
ATOM      4  C   UNL     1      -3.314  11.680  18.363  0.00  0.00    +0.000 C 
ATOM      5  C   UNL     1      -2.929  10.229  17.945  0.00  0.00    +0.000 C 
ATOM      6  C   UNL     1      -1.409  10.021  18.070  0.00  0.00    +0.000 C 
ENDROOT
BRANCH   1  13
ATOM      7  N   UNL     1       2.720   6.745  18.577  0.00  0.00    +0.000 N 
ATOM      8  C   UNL     1       2.313   7.049  19.864  0.00  0.00    +0.000 A 
ATOM      9  C   UNL     1       1.735   8.278  19.763  0.00  0.00    +0.000 A 
ATOM     10  C   UNL     1       1.865   8.660  18.442  0.00  0.00    +0.000 A 
ATOM     11  N   UNL     1       2.468   7.756  17.674  0.00  0.00    +0.000 NA
ATOM     12  C   UNL     1       1.253   9.980  18.198  0.00  0.00    +0.000 C 
ATOM     13  N   UNL     1       0.601  10.288  19.528  0.00  0.00    +0.000 NA
ATOM     14  C   UNL     1       1.020   9.276  20.554  0.00  0.00    +0.000 C 
BRANCH   7  15
ATOM     15  S   UNL     1       3.507   5.247  18.228  0.00  0.00    +0.000 S 
ATOM     16  O   UNL     1       4.130   4.861  19.484  0.00  0.00    +0.000 OA
ATOM     17  O   UNL     1       4.310   5.528  17.052  0.00  0.00    +0.000 OA
BRANCH  15  19
ATOM     18  C   UNL     1       2.932   2.727  17.405  0.00  0.00    +0.000 C 
ATOM     19  C   UNL     1       2.253   4.033  17.815  0.00  0.00    +0.000 C 
ATOM     20  C   UNL     1       1.297   3.788  18.976  0.00  0.00    +0.000 C 
ENDBRANCH  15  19
ENDBRANCH   7  15
ENDBRANCH   1  13
BRANCH   4  21
ATOM     21  C   UNL     1      -4.810  11.916  18.424  0.00  0.00    +0.000 A 
ATOM     22  C   UNL     1      -5.529  11.805  19.627  0.00  0.00    +0.000 A 
ATOM     23  C   UNL     1      -6.890  12.101  19.661  0.00  0.00    +0.000 A 
ATOM     24  F   UNL     1      -7.552  12.021  20.823  0.00  0.00    +0.000 F 
ATOM     25  C   UNL     1      -7.569  12.496  18.514  0.00  0.00    +0.000 A 
ATOM     26  C   UNL     1      -6.877  12.580  17.308  0.00  0.00    +0.000 A 
ATOM     27  C   UNL     1      -5.512  12.290  17.272  0.00  0.00    +0.000 A 
ATOM     28  F   UNL     1      -4.867  12.382  16.100  0.00  0.00    +0.000 F 
ENDBRANCH   4  21
BRANCH   5  29
ATOM     29  N   UNL     1      -3.308   9.866  16.567  0.00  0.00    +0.000 NA
ATOM     30  H   UNL     1      -4.288  10.102  16.402  0.00  0.00    +0.000 HD
ATOM     31  H   UNL     1      -3.257   8.853  16.452  0.00  0.00    +0.000 HD
ENDBRANCH   5  29
TORSDOF 5
ENDMDL
MODEL 6
REMARK VINA RESULT:      -7.7      4.264      5.266
REMARK  Name = 
REMARK  7 active torsions:
REMARK  status: ('A' for Active; 'I' for Inactive)
REMARK    1  A    between atoms: C_1  and  C_2
REMARK    2  A    between atoms: C_2  and  C_3
REMARK    3  A    between atoms: C_2  and  S_4
REMARK    4  A    between atoms: S_4  and  N_7
REMARK    5  A    between atoms: N_13  and  C_14
REMARK    6  A    between atoms: C_17  and  C_18
REMARK    7  A    between atoms: C_26  and  N_27
REMARK                            x       y       z     vdW  Elec       q    Type
REMARK                         _______ _______ _______ _____ _____    ______ ____
ROOT
ATOM      1  C   UNL     1      -0.803  10.461  19.459  0.00  0.00    +0.000 C 
ATOM      2  C   UNL     1      -1.308  11.890  19.745  0.00  0.00    +0.000 C 
ATOM      3  O   UNL     1      -2.732  11.939  19.700  0.00  0.00    +0.000 OA
ATOM      4  C   UNL     1      -3.264  11.639  18.399  0.00  0.00    +0.000 C 
ATOM      5  C   UNL     1      -2.871  10.194  17.969  0.00  0.00    +0.000 C 
ATOM      6  C   UNL     1      -1.350   9.992  18.092  0.00  0.00    +0.000 C 
ENDROOT
BRANCH   1  13
ATOM      7  N   UNL     1       2.821   6.820  18.344  0.00  0.00    +0.000 N 
ATOM      8  C   UNL     1       2.400   7.018  19.648  0.00  0.00    +0.000 A 
ATOM      9  C   UNL     1       1.811   8.245  19.638  0.00  0.00    +0.000 A 
ATOM     10  C   UNL     1       1.949   8.732  18.352  0.00  0.00    +0.000 A 
ATOM     11  N   UNL     1       2.567   7.896  17.521  0.00  0.00    +0.000 NA
ATOM     12  C   UNL     1       1.325  10.061  18.206  0.00  0.00    +0.000 C 
ATOM     13  N   UNL     1       0.659  10.258  19.550  0.00  0.00    +0.000 NA
ATOM     14  C   UNL     1       1.079   9.171  20.497  0.00  0.00    +0.000 C 
BRANCH   7  15
ATOM     15  S   UNL     1       3.626   5.361  17.887  0.00  0.00    +0.000 S 
ATOM     16  O   UNL     1       4.519   5.758  16.809  0.00  0.00    +0.000 OA
ATOM     17  O   UNL     1       2.550   4.415  17.655  0.00  0.00    +0.000 OA
BRANCH  15  19
ATOM     18  C   UNL     1       4.543   3.281  19.367  0.00  0.00    +0.000 C 
ATOM     19  C   UNL     1       4.617   4.804  19.275  0.00  0.00    +0.000 C 
ATOM     20  C   UNL     1       6.067   5.254  19.152  0.00  0.00    +0.000 C 
ENDBRANCH  15  19
ENDBRANCH   7  15
ENDBRANCH   1  13
BRANCH   4  21
ATOM     21  C   UNL     1      -4.761  11.867  18.464  0.00  0.00    +0.000 A 
ATOM     22  C   UNL     1      -5.479  11.737  19.665  0.00  0.00    +0.000 A 
ATOM     23  C   UNL     1      -6.842  12.026  19.703  0.00  0.00    +0.000 A 
ATOM     24  F   UNL     1      -7.503  11.928  20.864  0.00  0.00    +0.000 F 
ATOM     25  C   UNL     1      -7.522  12.432  18.561  0.00  0.00    +0.000 A 
ATOM     26  C   UNL     1      -6.831  12.536  17.356  0.00  0.00    +0.000 A 
ATOM     27  C   UNL     1      -5.465  12.252  17.317  0.00  0.00    +0.000 A 
ATOM     28  F   UNL     1      -4.820  12.363  16.146  0.00  0.00    +0.000 F 
ENDBRANCH   4  21
BRANCH   5  29
ATOM     29  N   UNL     1      -3.250   9.840  16.589  0.00  0.00    +0.000 NA
ATOM     30  H   UNL     1      -4.138  10.285  16.346  0.00  0.00    +0.000 HD
ATOM     31  H   UNL     1      -3.431   8.837  16.528  0.00  0.00    +0.000 HD
ENDBRANCH   5  29
TORSDOF 5
ENDMDL
MODEL 7
REMARK VINA RESULT:      -7.7      4.728     10.223
REMARK  Name = 
REMARK  7 active torsions:
REMARK  status: ('A' for Active; 'I' for Inactive)
REMARK    1  A    between atoms: C_1  and  C_2
REMARK    2  A    between atoms: C_2  and  C_3
REMARK    3  A    between atoms: C_2  and  S_4
REMARK    4  A    between atoms: S_4  and  N_7
REMARK    5  A    between atoms: N_13  and  C_14
REMARK    6  A    between atoms: C_17  and  C_18
REMARK    7  A    between atoms: C_26  and  N_27
REMARK                            x       y       z     vdW  Elec       q    Type
REMARK                         _______ _______ _______ _____ _____    ______ ____
ROOT
ATOM      1  C   UNL     1       0.793  10.007  18.831  0.00  0.00    +0.000 C 
ATOM      2  C   UNL     1       1.945   9.820  17.824  0.00  0.00    +0.000 C 
ATOM      3  O   UNL     1       2.143   8.438  17.535  0.00  0.00    +0.000 OA
ATOM      4  C   UNL     1       2.560   7.679  18.681  0.00  0.00    +0.000 C 
ATOM      5  C   UNL     1       1.474   7.732  19.797  0.00  0.00    +0.000 C 
ATOM      6  C   UNL     1       1.097   9.191  20.109  0.00  0.00    +0.000 C 
ENDROOT
BRANCH   1  13
ATOM      7  N   UNL     1      -2.238  12.695  22.182  0.00  0.00    +0.000 N 
ATOM      8  C   UNL     1      -2.628  12.519  20.865  0.00  0.00    +0.000 A 
ATOM      9  C   UNL     1      -1.486  12.169  20.210  0.00  0.00    +0.000 A 
ATOM     10  C   UNL     1      -0.475  12.198  21.152  0.00  0.00    +0.000 A 
ATOM     11  N   UNL     1      -0.885  12.520  22.376  0.00  0.00    +0.000 NA
ATOM     12  C   UNL     1       0.822  11.812  20.564  0.00  0.00    +0.000 C 
ATOM     13  N   UNL     1       0.435  11.404  19.159  0.00  0.00    +0.000 NA
ATOM     14  C   UNL     1      -1.000  11.757  18.897  0.00  0.00    +0.000 C 
BRANCH   7  15
ATOM     15  S   UNL     1      -3.387  13.143  23.392  0.00  0.00    +0.000 S 
ATOM     16  O   UNL     1      -2.713  14.166  24.176  0.00  0.00    +0.000 OA
ATOM     17  O   UNL     1      -3.784  11.883  23.993  0.00  0.00    +0.000 OA
BRANCH  15  19
ATOM     18  C   UNL     1      -6.063  13.585  23.389  0.00  0.00    +0.000 C 
ATOM     19  C   UNL     1      -4.804  13.885  22.579  0.00  0.00    +0.000 C 
ATOM     20  C   UNL     1      -4.634  15.389  22.406  0.00  0.00    +0.000 C 
ENDBRANCH  15  19
ENDBRANCH   7  15
ENDBRANCH   1  13
BRANCH   4  21
ATOM     21  C   UNL     1       2.868   6.274  18.201  0.00  0.00    +0.000 A 
ATOM     22  C   UNL     1       1.934   5.230  18.318  0.00  0.00    +0.000 A 
ATOM     23  C   UNL     1       2.221   3.970  17.798  0.00  0.00    +0.000 A 
ATOM     24  F   UNL     1       1.306   2.996  17.890  0.00  0.00    +0.000 F 
ATOM     25  C   UNL     1       3.435   3.711  17.171  0.00  0.00    +0.000 A 
ATOM     26  C   UNL     1       4.383   4.726  17.076  0.00  0.00    +0.000 A 
ATOM     27  C   UNL     1       4.095   5.992  17.590  0.00  0.00    +0.000 A 
ATOM     28  F   UNL     1       5.022   6.954  17.482  0.00  0.00    +0.000 F 
ENDBRANCH   4  21
BRANCH   5  29
ATOM     29  N   UNL     1       1.869   7.100  21.070  0.00  0.00    +0.000 NA
ATOM     30  H   UNL     1       2.888   7.068  21.141  0.00  0.00    +0.000 HD
ATOM     31  H   UNL     1       1.572   6.124  21.075  0.00  0.00    +0.000 HD
ENDBRANCH   5  29
TORSDOF 5
ENDMDL
MODEL 8
REMARK VINA RESULT:      -7.7      4.223      5.226
REMARK  Name = 
REMARK  7 active torsions:
REMARK  status: ('A' for Active; 'I' for Inactive)
REMARK    1  A    between atoms: C_1  and  C_2
REMARK    2  A    between atoms: C_2  and  C_3
REMARK    3  A    between atoms: C_2  and  S_4
REMARK    4  A    between atoms: S_4  and  N_7
REMARK    5  A    between atoms: N_13  and  C_14
REMARK    6  A    between atoms: C_17  and  C_18
REMARK    7  A    between atoms: C_26  and  N_27
REMARK                            x       y       z     vdW  Elec       q    Type
REMARK                         _______ _______ _______ _____ _____    ______ ____
ROOT
ATOM      1  C   UNL     1      -0.876  10.551  19.565  0.00  0.00    +0.000 C 
ATOM      2  C   UNL     1      -1.379  11.992  19.781  0.00  0.00    +0.000 C 
ATOM      3  O   UNL     1      -2.803  12.044  19.718  0.00  0.00    +0.000 OA
ATOM      4  C   UNL     1      -3.321  11.688  18.426  0.00  0.00    +0.000 C 
ATOM      5  C   UNL     1      -2.929  10.223  18.065  0.00  0.00    +0.000 C 
ATOM      6  C   UNL     1      -1.411  10.023  18.213  0.00  0.00    +0.000 C 
ENDROOT
BRANCH   1  13
ATOM      7  N   UNL     1       2.763   6.901  18.528  0.00  0.00    +0.000 N 
ATOM      8  C   UNL     1       2.320   7.106  19.824  0.00  0.00    +0.000 A 
ATOM      9  C   UNL     1       1.732   8.334  19.798  0.00  0.00    +0.000 A 
ATOM     10  C   UNL     1       1.892   8.813  18.512  0.00  0.00    +0.000 A 
ATOM     11  N   UNL     1       2.523   7.973  17.695  0.00  0.00    +0.000 NA
ATOM     12  C   UNL     1       1.272  10.142  18.349  0.00  0.00    +0.000 C 
ATOM     13  N   UNL     1       0.584  10.347  19.681  0.00  0.00    +0.000 NA
ATOM     14  C   UNL     1       0.987   9.265  20.640  0.00  0.00    +0.000 C 
BRANCH   7  15
ATOM     15  S   UNL     1       3.575   5.439  18.092  0.00  0.00    +0.000 S 
ATOM     16  O   UNL     1       2.518   4.565  17.608  0.00  0.00    +0.000 OA
ATOM     17  O   UNL     1       4.348   5.093  19.270  0.00  0.00    +0.000 OA
BRANCH  15  19
ATOM     18  C   UNL     1       5.891   6.579  17.260  0.00  0.00    +0.000 C 
ATOM     19  C   UNL     1       4.690   5.796  16.733  0.00  0.00    +0.000 C 
ATOM     20  C   UNL     1       5.154   4.526  16.032  0.00  0.00    +0.000 C 
ENDBRANCH  15  19
ENDBRANCH   7  15
ENDBRANCH   1  13
BRANCH   4  21
ATOM     21  C   UNL     1      -4.818  11.924  18.464  0.00  0.00    +0.000 A 
ATOM     22  C   UNL     1      -5.552  11.836  19.659  0.00  0.00    +0.000 A 
ATOM     23  C   UNL     1      -6.914  12.131  19.670  0.00  0.00    +0.000 A 
ATOM     24  F   UNL     1      -7.590  12.074  20.825  0.00  0.00    +0.000 F 
ATOM     25  C   UNL     1      -7.578  12.501  18.507  0.00  0.00    +0.000 A 
ATOM     26  C   UNL     1      -6.871  12.562  17.308  0.00  0.00    +0.000 A 
ATOM     27  C   UNL     1      -5.506  12.273  17.296  0.00  0.00    +0.000 A 
ATOM     28  F   UNL     1      -4.846  12.341  16.130  0.00  0.00    +0.000 F 
ENDBRANCH   4  21
BRANCH   5  29
ATOM     29  N   UNL     1      -3.295   9.810  16.698  0.00  0.00    +0.000 NA
ATOM     30  H   UNL     1      -4.126  10.318  16.390  0.00  0.00    +0.000 HD
ATOM     31  H   UNL     1      -3.570   8.827  16.697  0.00  0.00    +0.000 HD
ENDBRANCH   5  29
TORSDOF 5
ENDMDL
MODEL 9
REMARK VINA RESULT:      -7.6      0.738      1.519
REMARK  Name = 
REMARK  7 active torsions:
REMARK  status: ('A' for Active; 'I' for Inactive)
REMARK    1  A    between atoms: C_1  and  C_2
REMARK    2  A    between atoms: C_2  and  C_3
REMARK    3  A    between atoms: C_2  and  S_4
REMARK    4  A    between atoms: S_4  and  N_7
REMARK    5  A    between atoms: N_13  and  C_14
REMARK    6  A    between atoms: C_17  and  C_18
REMARK    7  A    between atoms: C_26  and  N_27
REMARK                            x       y       z     vdW  Elec       q    Type
REMARK                         _______ _______ _______ _____ _____    ______ ____
ROOT
ATOM      1  C   UNL     1       1.368   9.035  19.649  0.00  0.00    +0.000 C 
ATOM      2  C   UNL     1       0.225   9.925  19.122  0.00  0.00    +0.000 C 
ATOM      3  O   UNL     1       0.138  11.133  19.876  0.00  0.00    +0.000 OA
ATOM      4  C   UNL     1      -0.204  10.910  21.254  0.00  0.00    +0.000 C 
ATOM      5  C   UNL     1       0.886  10.045  21.955  0.00  0.00    +0.000 C 
ATOM      6  C   UNL     1       1.145   8.757  21.154  0.00  0.00    +0.000 C 
ENDROOT
BRANCH   1  13
ATOM      7  N   UNL     1       5.382   6.142  17.870  0.00  0.00    +0.000 N 
ATOM      8  C   UNL     1       4.653   6.943  17.007  0.00  0.00    +0.000 A 
ATOM      9  C   UNL     1       3.496   7.206  17.674  0.00  0.00    +0.000 A 
ATOM     10  C   UNL     1       3.572   6.520  18.870  0.00  0.00    +0.000 A 
ATOM     11  N   UNL     1       4.709   5.847  19.036  0.00  0.00    +0.000 NA
ATOM     12  C   UNL     1       2.374   6.744  19.700  0.00  0.00    +0.000 C 
ATOM     13  N   UNL     1       1.614   7.782  18.903  0.00  0.00    +0.000 NA
ATOM     14  C   UNL     1       2.258   7.973  17.561  0.00  0.00    +0.000 C 
BRANCH   7  15
ATOM     15  S   UNL     1       6.951   5.568  17.432  0.00  0.00    +0.000 S 
ATOM     16  O   UNL     1       7.459   4.935  18.639  0.00  0.00    +0.000 OA
ATOM     17  O   UNL     1       7.612   6.728  16.863  0.00  0.00    +0.000 OA
BRANCH  15  19
ATOM     18  C   UNL     1       5.367   3.694  16.276  0.00  0.00    +0.000 C 
ATOM     19  C   UNL     1       6.760   4.312  16.165  0.00  0.00    +0.000 C 
ATOM     20  C   UNL     1       6.974   4.881  14.767  0.00  0.00    +0.000 C 
ENDBRANCH  15  19
ENDBRANCH   7  15
ENDBRANCH   1  13
BRANCH   4  21
ATOM     21  C   UNL     1      -0.401  12.272  21.891  0.00  0.00    +0.000 A 
ATOM     22  C   UNL     1      -1.425  12.513  22.823  0.00  0.00    +0.000 A 
ATOM     23  C   UNL     1      -1.531  13.755  23.444  0.00  0.00    +0.000 A 
ATOM     24  F   UNL     1      -2.494  13.956  24.354  0.00  0.00    +0.000 F 
ATOM     25  C   UNL     1      -0.644  14.784  23.150  0.00  0.00    +0.000 A 
ATOM     26  C   UNL     1       0.358  14.571  22.205  0.00  0.00    +0.000 A 
ATOM     27  C   UNL     1       0.469  13.325  21.586  0.00  0.00    +0.000 A 
ATOM     28  F   UNL     1       1.444  13.143  20.682  0.00  0.00    +0.000 F 
ENDBRANCH   4  21
BRANCH   5  29
ATOM     29  N   UNL     1       0.557   9.644  23.335  0.00  0.00    +0.000 NA
ATOM     30  H   UNL     1       0.767  10.408  23.980  0.00  0.00    +0.000 HD
ATOM     31  H   UNL     1       1.166   8.878  23.625  0.00  0.00    +0.000 HD
ENDBRANCH   5  29
TORSDOF 5
ENDMDL
