MODEL 1
REMARK VINA RESULT:      -8.2      0.000      0.000
REMARK  Name = 
REMARK  7 active torsions:
REMARK  status: ('A' for Active; 'I' for Inactive)
REMARK    1  A    between atoms: C_1  and  C_2
REMARK    2  A    between atoms: C_2  and  C_3
REMARK    3  A    between atoms: C_3  and  N_4
REMARK    4  A    between atoms: C_10  and  N_11
REMARK    5  A    between atoms: N_11  and  S_12
REMARK    6  A    between atoms: S_12  and  C_15
REMARK    7  A    between atoms: C_17  and  C_18
REMARK                            x       y       z     vdW  Elec       q    Type
REMARK                         _______ _______ _______ _____ _____    ______ ____
ROOT
ATOM      1  N   UNL     1       4.256   2.989  18.382  0.00  0.00    +0.000 N 
ATOM      2  H   UNL     1       4.420   2.003  18.179  0.00  0.00    +0.000 HD
ENDROOT
BRANCH   1   9
ATOM      3  N   UNL     1       6.414   3.787  14.450  0.00  0.00    +0.000 NA
ATOM      4  C   UNL     1       7.198   4.889  15.058  0.00  0.00    +0.000 C 
ATOM      5  C   UNL     1       6.792   4.960  16.493  0.00  0.00    +0.000 A 
ATOM      6  C   UNL     1       7.236   5.857  17.454  0.00  0.00    +0.000 A 
ATOM      7  C   UNL     1       6.688   5.776  18.732  0.00  0.00    +0.000 A 
ATOM      8  C   UNL     1       5.705   4.820  19.021  0.00  0.00    +0.000 A 
ATOM      9  C   UNL     1       5.273   3.920  18.042  0.00  0.00    +0.000 A 
ATOM     10  C   UNL     1       5.834   3.993  16.775  0.00  0.00    +0.000 A 
ATOM     11  C   UNL     1       5.612   3.165  15.549  0.00  0.00    +0.000 C 
BRANCH   3  12
ATOM     12  C   UNL     1       5.535   4.250  13.362  0.00  0.00    +0.000 C 
BRANCH  12  14
ATOM     13  C   UNL     1       4.217   3.250  11.450  0.00  0.00    +0.000 C 
ATOM     14  C   UNL     1       5.586   3.360  12.109  0.00  0.00    +0.000 C 
ENDBRANCH  12  14
ENDBRANCH   3  12
ENDBRANCH   1   9
BRANCH   1  15
ATOM     15  S   UNL     1       2.643   3.417  18.128  0.00  0.00    +0.000 S 
ATOM     16  O   UNL     1       2.432   3.588  16.704  0.00  0.00    +0.000 OA
ATOM     17  O   UNL     1       1.841   2.459  18.859  0.00  0.00    +0.000 OA
BRANCH  15  18
ATOM     18  C   UNL     1       2.435   5.000  18.918  0.00  0.00    +0.000 A 
ATOM     19  C   UNL     1       2.444   6.143  18.095  0.00  0.00    +0.000 A 
ATOM     20  C   UNL     1       2.161   7.413  18.618  0.00  0.00    +0.000 A 
ATOM     21  C   UNL     1       2.130   8.628  17.737  0.00  0.00    +0.000 C 
ATOM     22  C   UNL     1       1.875   7.535  19.979  0.00  0.00    +0.000 A 
ATOM     23  C   UNL     1       1.873   6.406  20.802  0.00  0.00    +0.000 A 
ATOM     24  C   UNL     1       2.150   5.134  20.279  0.00  0.00    +0.000 A 
ATOM     25 BR   UNL     1       2.116   3.700  21.522  0.00  0.00    +0.000 Br
ENDBRANCH  15  18
ENDBRANCH   1  15
TORSDOF 5
ENDMDL
MODEL 2
REMARK VINA RESULT:      -7.3      2.707      7.191
REMARK  Name = 
REMARK  7 active torsions:
REMARK  status: ('A' for Active; 'I' for Inactive)
REMARK    1  A    between atoms: C_1  and  C_2
REMARK    2  A    between atoms: C_2  and  C_3
REMARK    3  A    between atoms: C_3  and  N_4
REMARK    4  A    between atoms: C_10  and  N_11
REMARK    5  A    between atoms: N_11  and  S_12
REMARK    6  A    between atoms: S_12  and  C_15
REMARK    7  A    between atoms: C_17  and  C_18
REMARK                            x       y       z     vdW  Elec       q    Type
REMARK                         _______ _______ _______ _____ _____    ______ ____
ROOT
ATOM      1  N   UNL     1       3.912   5.637  19.621  0.00  0.00    +0.000 N 
ATOM      2  H   UNL     1       4.792   5.815  20.105  0.00  0.00    +0.000 HD
ENDROOT
BRANCH   1   9
ATOM      3  N   UNL     1       0.647   8.384  21.218  0.00  0.00    +0.000 NA
ATOM      4  C   UNL     1       0.650   9.180  19.966  0.00  0.00    +0.000 C 
ATOM      5  C   UNL     1       1.650   8.544  19.058  0.00  0.00    +0.000 A 
ATOM      6  C   UNL     1       2.021   8.956  17.787  0.00  0.00    +0.000 A 
ATOM      7  C   UNL     1       3.017   8.240  17.127  0.00  0.00    +0.000 A 
ATOM      8  C   UNL     1       3.630   7.144  17.749  0.00  0.00    +0.000 A 
ATOM      9  C   UNL     1       3.240   6.738  19.029  0.00  0.00    +0.000 A 
ATOM     10  C   UNL     1       2.236   7.444  19.675  0.00  0.00    +0.000 A 
ATOM     11  C   UNL     1       1.587   7.239  21.008  0.00  0.00    +0.000 C 
BRANCH   3  12
ATOM     12  C   UNL     1       1.047   9.176  22.394  0.00  0.00    +0.000 C 
BRANCH  12  14
ATOM     13  C   UNL     1      -0.844  10.768  22.924  0.00  0.00    +0.000 C 
ATOM     14  C   UNL     1      -0.119   9.497  23.344  0.00  0.00    +0.000 C 
ENDBRANCH  12  14
ENDBRANCH   3  12
ENDBRANCH   1   9
BRANCH   1  15
ATOM     15  S   UNL     1       3.940   4.162  18.800  0.00  0.00    +0.000 S 
ATOM     16  O   UNL     1       4.355   3.128  19.726  0.00  0.00    +0.000 OA
ATOM     17  O   UNL     1       2.668   4.043  18.120  0.00  0.00    +0.000 OA
BRANCH  15  18
ATOM     18  C   UNL     1       5.199   4.332  17.551  0.00  0.00    +0.000 A 
ATOM     19  C   UNL     1       4.854   3.990  16.230  0.00  0.00    +0.000 A 
ATOM     20  C   UNL     1       5.743   4.214  15.168  0.00  0.00    +0.000 A 
ATOM     21  C   UNL     1       5.363   3.887  13.753  0.00  0.00    +0.000 C 
ATOM     22  C   UNL     1       6.991   4.778  15.440  0.00  0.00    +0.000 A 
ATOM     23  C   UNL     1       7.343   5.112  16.750  0.00  0.00    +0.000 A 
ATOM     24  C   UNL     1       6.452   4.894  17.811  0.00  0.00    +0.000 A 
ATOM     25 BR   UNL     1       7.075   5.393  19.534  0.00  0.00    +0.000 Br
ENDBRANCH  15  18
ENDBRANCH   1  15
TORSDOF 5
ENDMDL
MODEL 3
REMARK VINA RESULT:      -7.1      3.285      7.730
REMARK  Name = 
REMARK  7 active torsions:
REMARK  status: ('A' for Active; 'I' for Inactive)
REMARK    1  A    between atoms: C_1  and  C_2
REMARK    2  A    between atoms: C_2  and  C_3
REMARK    3  A    between atoms: C_3  and  N_4
REMARK    4  A    between atoms: C_10  and  N_11
REMARK    5  A    between atoms: N_11  and  S_12
REMARK    6  A    between atoms: S_12  and  C_15
REMARK    7  A    between atoms: C_17  and  C_18
REMARK                            x       y       z     vdW  Elec       q    Type
REMARK                         _______ _______ _______ _____ _____    ______ ____
ROOT
ATOM      1  N   UNL     1       2.945   6.725  20.075  0.00  0.00    +0.000 N 
ATOM      2  H   UNL     1       3.912   6.913  20.340  0.00  0.00    +0.000 HD
ENDROOT
BRANCH   1   9
ATOM      3  N   UNL     1      -0.547   9.214  21.611  0.00  0.00    +0.000 NA
ATOM      4  C   UNL     1      -0.582  10.009  20.359  0.00  0.00    +0.000 C 
ATOM      5  C   UNL     1       0.480   9.452  19.470  0.00  0.00    +0.000 A 
ATOM      6  C   UNL     1       0.841   9.893  18.206  0.00  0.00    +0.000 A 
ATOM      7  C   UNL     1       1.900   9.255  17.564  0.00  0.00    +0.000 A 
ATOM      8  C   UNL     1       2.583   8.208  18.197  0.00  0.00    +0.000 A 
ATOM      9  C   UNL     1       2.202   7.772  19.470  0.00  0.00    +0.000 A 
ATOM     10  C   UNL     1       1.136   8.399  20.097  0.00  0.00    +0.000 A 
ATOM     11  C   UNL     1       0.480   8.144  21.419  0.00  0.00    +0.000 C 
BRANCH   3  12
ATOM     12  C   UNL     1      -0.230  10.033  22.794  0.00  0.00    +0.000 C 
BRANCH  12  14
ATOM     13  C   UNL     1      -2.147  11.601  23.297  0.00  0.00    +0.000 C 
ATOM     14  C   UNL     1      -0.752  11.477  22.700  0.00  0.00    +0.000 C 
ENDBRANCH  12  14
ENDBRANCH   3  12
ENDBRANCH   1   9
BRANCH   1  15
ATOM     15  S   UNL     1       2.754   5.150  19.494  0.00  0.00    +0.000 S 
ATOM     16  O   UNL     1       2.964   4.228  20.592  0.00  0.00    +0.000 OA
ATOM     17  O   UNL     1       1.501   5.126  18.770  0.00  0.00    +0.000 OA
BRANCH  15  18
ATOM     18  C   UNL     1       4.062   4.914  18.307  0.00  0.00    +0.000 A 
ATOM     19  C   UNL     1       5.083   5.883  18.264  0.00  0.00    +0.000 A 
ATOM     20  C   UNL     1       6.211   5.708  17.451  0.00  0.00    +0.000 A 
ATOM     21  C   UNL     1       7.321   6.719  17.432  0.00  0.00    +0.000 C 
ATOM     22  C   UNL     1       6.310   4.555  16.669  0.00  0.00    +0.000 A 
ATOM     23  C   UNL     1       5.296   3.595  16.701  0.00  0.00    +0.000 A 
ATOM     24  C   UNL     1       4.169   3.765  17.519  0.00  0.00    +0.000 A 
ATOM     25 BR   UNL     1       2.874   2.378  17.450  0.00  0.00    +0.000 Br
ENDBRANCH  15  18
ENDBRANCH   1  15
TORSDOF 5
ENDMDL
MODEL 4
REMARK VINA RESULT:      -7.0      3.036      5.991
REMARK  Name = 
REMARK  7 active torsions:
REMARK  status: ('A' for Active; 'I' for Inactive)
REMARK    1  A    between atoms: C_1  and  C_2
REMARK    2  A    between atoms: C_2  and  C_3
REMARK    3  A    between atoms: C_3  and  N_4
REMARK    4  A    between atoms: C_10  and  N_11
REMARK    5  A    between atoms: N_11  and  S_12
REMARK    6  A    between atoms: S_12  and  C_15
REMARK    7  A    between atoms: C_17  and  C_18
REMARK                            x       y       z     vdW  Elec       q    Type
REMARK                         _______ _______ _______ _____ _____    ______ ____
ROOT
ATOM      1  N   UNL     1       4.652   2.846  18.081  0.00  0.00    +0.000 N 
ATOM      2  H   UNL     1       5.439   2.789  18.727  0.00  0.00    +0.000 HD
ENDROOT
BRANCH   1   9
ATOM      3  N   UNL     1       2.423   5.965  20.542  0.00  0.00    +0.000 NA
ATOM      4  C   UNL     1       1.202   5.123  20.575  0.00  0.00    +0.000 C 
ATOM      5  C   UNL     1       1.531   3.864  19.843  0.00  0.00    +0.000 A 
ATOM      6  C   UNL     1       0.692   2.790  19.589  0.00  0.00    +0.000 A 
ATOM      7  C   UNL     1       1.192   1.726  18.841  0.00  0.00    +0.000 A 
ATOM      8  C   UNL     1       2.505   1.761  18.352  0.00  0.00    +0.000 A 
ATOM      9  C   UNL     1       3.340   2.850  18.622  0.00  0.00    +0.000 A 
ATOM     10  C   UNL     1       2.842   3.899  19.382  0.00  0.00    +0.000 A 
ATOM     11  C   UNL     1       3.486   5.162  19.862  0.00  0.00    +0.000 C 
BRANCH   3  12
ATOM     12  C   UNL     1       2.210   7.244  19.845  0.00  0.00    +0.000 C 
BRANCH  12  14
ATOM     13  C   UNL     1       2.348   8.519  17.666  0.00  0.00    +0.000 C 
ATOM     14  C   UNL     1       2.791   7.273  18.421  0.00  0.00    +0.000 C 
ENDBRANCH  12  14
ENDBRANCH   3  12
ENDBRANCH   1   9
BRANCH   1  15
ATOM     15  S   UNL     1       4.995   3.855  16.771  0.00  0.00    +0.000 S 
ATOM     16  O   UNL     1       5.767   3.103  15.802  0.00  0.00    +0.000 OA
ATOM     17  O   UNL     1       3.740   4.456  16.372  0.00  0.00    +0.000 OA
BRANCH  15  18
ATOM     18  C   UNL     1       6.026   5.154  17.422  0.00  0.00    +0.000 A 
ATOM     19  C   UNL     1       6.773   4.870  18.581  0.00  0.00    +0.000 A 
ATOM     20  C   UNL     1       7.704   5.791  19.085  0.00  0.00    +0.000 A 
ATOM     21  C   UNL     1       8.531   5.476  20.298  0.00  0.00    +0.000 C 
ATOM     22  C   UNL     1       7.878   7.007  18.422  0.00  0.00    +0.000 A 
ATOM     23  C   UNL     1       7.134   7.297  17.276  0.00  0.00    +0.000 A 
ATOM     24  C   UNL     1       6.207   6.375  16.767  0.00  0.00    +0.000 A 
ATOM     25 BR   UNL     1       5.269   6.915  15.208  0.00  0.00    +0.000 Br
ENDBRANCH  15  18
ENDBRANCH   1  15
TORSDOF 5
ENDMDL
MODEL 5
REMARK VINA RESULT:      -7.0      2.431      6.579
REMARK  Name = 
REMARK  7 active torsions:
REMARK  status: ('A' for Active; 'I' for Inactive)
REMARK    1  A    between atoms: C_1  and  C_2
REMARK    2  A    between atoms: C_2  and  C_3
REMARK    3  A    between atoms: C_3  and  N_4
REMARK    4  A    between atoms: C_10  and  N_11
REMARK    5  A    between atoms: N_11  and  S_12
REMARK    6  A    between atoms: S_12  and  C_15
REMARK    7  A    between atoms: C_17  and  C_18
REMARK                            x       y       z     vdW  Elec       q    Type
REMARK                         _______ _______ _______ _____ _____    ______ ____
ROOT
ATOM      1  N   UNL     1       3.263   4.725  17.477  0.00  0.00    +0.000 N 
ATOM      2  H   UNL     1       2.659   4.455  16.700  0.00  0.00    +0.000 HD
ENDROOT
BRANCH   1   9
ATOM      3  N   UNL     1       2.197   8.975  18.726  0.00  0.00    +0.000 NA
ATOM      4  C   UNL     1       1.603   8.494  19.997  0.00  0.00    +0.000 C 
ATOM      5  C   UNL     1       1.784   7.013  20.020  0.00  0.00    +0.000 A 
ATOM      6  C   UNL     1       1.361   6.124  20.996  0.00  0.00    +0.000 A 
ATOM      7  C   UNL     1       1.594   4.765  20.796  0.00  0.00    +0.000 A 
ATOM      8  C   UNL     1       2.226   4.321  19.626  0.00  0.00    +0.000 A 
ATOM      9  C   UNL     1       2.651   5.232  18.654  0.00  0.00    +0.000 A 
ATOM     10  C   UNL     1       2.432   6.585  18.867  0.00  0.00    +0.000 A 
ATOM     11  C   UNL     1       2.795   7.784  18.047  0.00  0.00    +0.000 C 
BRANCH   3  12
ATOM     12  C   UNL     1       1.210   9.631  17.851  0.00  0.00    +0.000 C 
BRANCH  12  14
ATOM     13  C   UNL     1      -1.279  10.063  17.749  0.00  0.00    +0.000 C 
ATOM     14  C   UNL     1      -0.022  10.161  18.604  0.00  0.00    +0.000 C 
ENDBRANCH  12  14
ENDBRANCH   3  12
ENDBRANCH   1   9
BRANCH   1  15
ATOM     15  S   UNL     1       4.585   3.686  17.629  0.00  0.00    +0.000 S 
ATOM     16  O   UNL     1       5.275   3.998  18.865  0.00  0.00    +0.000 OA
ATOM     17  O   UNL     1       4.085   2.346  17.408  0.00  0.00    +0.000 OA
BRANCH  15  18
ATOM     18  C   UNL     1       5.666   4.083  16.270  0.00  0.00    +0.000 A 
ATOM     19  C   UNL     1       5.337   3.561  15.004  0.00  0.00    +0.000 A 
ATOM     20  C   UNL     1       6.061   3.927  13.860  0.00  0.00    +0.000 A 
ATOM     21  C   UNL     1       5.688   3.404  12.503  0.00  0.00    +0.000 C 
ATOM     22  C   UNL     1       7.128   4.818  13.991  0.00  0.00    +0.000 A 
ATOM     23  C   UNL     1       7.465   5.332  15.246  0.00  0.00    +0.000 A 
ATOM     24  C   UNL     1       6.738   4.972  16.390  0.00  0.00    +0.000 A 
ATOM     25 BR   UNL     1       7.319   5.748  18.022  0.00  0.00    +0.000 Br
ENDBRANCH  15  18
ENDBRANCH   1  15
TORSDOF 5
ENDMDL
MODEL 6
REMARK VINA RESULT:      -6.9      4.422      6.409
REMARK  Name = 
REMARK  7 active torsions:
REMARK  status: ('A' for Active; 'I' for Inactive)
REMARK    1  A    between atoms: C_1  and  C_2
REMARK    2  A    between atoms: C_2  and  C_3
REMARK    3  A    between atoms: C_3  and  N_4
REMARK    4  A    between atoms: C_10  and  N_11
REMARK    5  A    between atoms: N_11  and  S_12
REMARK    6  A    between atoms: S_12  and  C_15
REMARK    7  A    between atoms: C_17  and  C_18
REMARK                            x       y       z     vdW  Elec       q    Type
REMARK                         _______ _______ _______ _____ _____    ______ ____
ROOT
ATOM      1  N   UNL     1       1.336   8.266  17.994  0.00  0.00    +0.000 N 
ATOM      2  H   UNL     1       0.945   8.386  17.060  0.00  0.00    +0.000 HD
ENDROOT
BRANCH   1   9
ATOM      3  N   UNL     1       2.188   4.879  20.919  0.00  0.00    +0.000 NA
ATOM      4  C   UNL     1       3.502   4.610  20.286  0.00  0.00    +0.000 C 
ATOM      5  C   UNL     1       3.662   5.613  19.192  0.00  0.00    +0.000 A 
ATOM      6  C   UNL     1       4.720   5.734  18.304  0.00  0.00    +0.000 A 
ATOM      7  C   UNL     1       4.646   6.718  17.321  0.00  0.00    +0.000 A 
ATOM      8  C   UNL     1       3.520   7.549  17.235  0.00  0.00    +0.000 A 
ATOM      9  C   UNL     1       2.464   7.417  18.143  0.00  0.00    +0.000 A 
ATOM     10  C   UNL     1       2.551   6.446  19.130  0.00  0.00    +0.000 A 
ATOM     11  C   UNL     1       1.620   6.089  20.247  0.00  0.00    +0.000 C 
BRANCH   3  12
ATOM     12  C   UNL     1       1.261   3.740  20.809  0.00  0.00    +0.000 C 
BRANCH  12  14
ATOM     13  C   UNL     1       0.921   2.557  18.601  0.00  0.00    +0.000 C 
ATOM     14  C   UNL     1       1.761   2.630  19.869  0.00  0.00    +0.000 C 
ENDBRANCH  12  14
ENDBRANCH   3  12
ENDBRANCH   1   9
BRANCH   1  15
ATOM     15  S   UNL     1       1.274   9.701  18.883  0.00  0.00    +0.000 S 
ATOM     16  O   UNL     1       1.308   9.369  20.293  0.00  0.00    +0.000 OA
ATOM     17  O   UNL     1       2.288  10.574  18.330  0.00  0.00    +0.000 OA
BRANCH  15  18
ATOM     18  C   UNL     1      -0.312  10.425  18.517  0.00  0.00    +0.000 A 
ATOM     19  C   UNL     1      -1.026   9.903  17.422  0.00  0.00    +0.000 A 
ATOM     20  C   UNL     1      -2.333  10.328  17.143  0.00  0.00    +0.000 A 
ATOM     21  C   UNL     1      -3.114   9.745  16.000  0.00  0.00    +0.000 C 
ATOM     22  C   UNL     1      -2.923  11.289  17.966  0.00  0.00    +0.000 A 
ATOM     23  C   UNL     1      -2.215  11.817  19.049  0.00  0.00    +0.000 A 
ATOM     24  C   UNL     1      -0.910  11.388  19.333  0.00  0.00    +0.000 A 
ATOM     25 BR   UNL     1      -0.077  12.201  20.833  0.00  0.00    +0.000 Br
ENDBRANCH  15  18
ENDBRANCH   1  15
TORSDOF 5
ENDMDL
MODEL 7
REMARK VINA RESULT:      -6.8      6.039      8.228
REMARK  Name = 
REMARK  7 active torsions:
REMARK  status: ('A' for Active; 'I' for Inactive)
REMARK    1  A    between atoms: C_1  and  C_2
REMARK    2  A    between atoms: C_2  and  C_3
REMARK    3  A    between atoms: C_3  and  N_4
REMARK    4  A    between atoms: C_10  and  N_11
REMARK    5  A    between atoms: N_11  and  S_12
REMARK    6  A    between atoms: S_12  and  C_15
REMARK    7  A    between atoms: C_17  and  C_18
REMARK                            x       y       z     vdW  Elec       q    Type
REMARK                         _______ _______ _______ _____ _____    ______ ____
ROOT
ATOM      1  N   UNL     1      -0.392   9.757  20.671  0.00  0.00    +0.000 N 
ATOM      2  H   UNL     1      -1.309   9.943  20.265  0.00  0.00    +0.000 HD
ENDROOT
BRANCH   1   9
ATOM      3  N   UNL     1       2.088   5.936  20.693  0.00  0.00    +0.000 NA
ATOM      4  C   UNL     1       2.806   6.348  19.462  0.00  0.00    +0.000 C 
ATOM      5  C   UNL     1       2.277   7.693  19.090  0.00  0.00    +0.000 A 
ATOM      6  C   UNL     1       2.628   8.465  17.992  0.00  0.00    +0.000 A 
ATOM      7  C   UNL     1       1.973   9.681  17.806  0.00  0.00    +0.000 A 
ATOM      8  C   UNL     1       0.978  10.093  18.704  0.00  0.00    +0.000 A 
ATOM      9  C   UNL     1       0.641   9.304  19.808  0.00  0.00    +0.000 A 
ATOM     10  C   UNL     1       1.308   8.103  19.998  0.00  0.00    +0.000 A 
ATOM     11  C   UNL     1       1.201   7.076  21.082  0.00  0.00    +0.000 C 
BRANCH   3  12
ATOM     12  C   UNL     1       1.301   4.705  20.505  0.00  0.00    +0.000 C 
BRANCH  12  14
ATOM     13  C   UNL     1       0.835   2.663  19.090  0.00  0.00    +0.000 C 
ATOM     14  C   UNL     1       1.647   3.944  19.214  0.00  0.00    +0.000 C 
ENDBRANCH  12  14
ENDBRANCH   3  12
ENDBRANCH   1   9
BRANCH   1  15
ATOM     15  S   UNL     1      -0.011  10.869  21.883  0.00  0.00    +0.000 S 
ATOM     16  O   UNL     1       0.157  10.149  23.130  0.00  0.00    +0.000 OA
ATOM     17  O   UNL     1       1.074  11.680  21.375  0.00  0.00    +0.000 OA
BRANCH  15  18
ATOM     18  C   UNL     1      -1.440  11.922  22.035  0.00  0.00    +0.000 A 
ATOM     19  C   UNL     1      -2.250  11.758  23.174  0.00  0.00    +0.000 A 
ATOM     20  C   UNL     1      -3.318  12.629  23.434  0.00  0.00    +0.000 A 
ATOM     21  C   UNL     1      -4.160  12.482  24.668  0.00  0.00    +0.000 C 
ATOM     22  C   UNL     1      -3.577  13.667  22.537  0.00  0.00    +0.000 A 
ATOM     23  C   UNL     1      -2.782  13.830  21.400  0.00  0.00    +0.000 A 
ATOM     24  C   UNL     1      -1.709  12.963  21.142  0.00  0.00    +0.000 A 
ATOM     25 BR   UNL     1      -0.726  13.308  19.556  0.00  0.00    +0.000 Br
ENDBRANCH  15  18
ENDBRANCH   1  15
TORSDOF 5
ENDMDL
MODEL 8
REMARK VINA RESULT:      -6.7      3.682      7.288
REMARK  Name = 
REMARK  7 active torsions:
REMARK  status: ('A' for Active; 'I' for Inactive)
REMARK    1  A    between atoms: C_1  and  C_2
REMARK    2  A    between atoms: C_2  and  C_3
REMARK    3  A    between atoms: C_3  and  N_4
REMARK    4  A    between atoms: C_10  and  N_11
REMARK    5  A    between atoms: N_11  and  S_12
REMARK    6  A    between atoms: S_12  and  C_15
REMARK    7  A    between atoms: C_17  and  C_18
REMARK                            x       y       z     vdW  Elec       q    Type
REMARK                         _______ _______ _______ _____ _____    ______ ____
ROOT
ATOM      1  N   UNL     1       2.300   7.457  20.222  0.00  0.00    +0.000 N 
ATOM      2  H   UNL     1       2.776   7.691  19.351  0.00  0.00    +0.000 HD
ENDROOT
BRANCH   1   9
ATOM      3  N   UNL     1      -0.412  10.485  18.165  0.00  0.00    +0.000 NA
ATOM      4  C   UNL     1      -0.983  10.916  19.465  0.00  0.00    +0.000 C 
ATOM      5  C   UNL     1      -0.284  10.125  20.521  0.00  0.00    +0.000 A 
ATOM      6  C   UNL     1      -0.504  10.162  21.890  0.00  0.00    +0.000 A 
ATOM      7  C   UNL     1       0.232   9.300  22.699  0.00  0.00    +0.000 A 
ATOM      8  C   UNL     1       1.157   8.413  22.130  0.00  0.00    +0.000 A 
ATOM      9  C   UNL     1       1.371   8.393  20.748  0.00  0.00    +0.000 A 
ATOM     10  C   UNL     1       0.647   9.266  19.949  0.00  0.00    +0.000 A 
ATOM     11  C   UNL     1       0.675   9.504  18.471  0.00  0.00    +0.000 C 
BRANCH   3  12
ATOM     12  C   UNL     1      -1.419   9.885  17.274  0.00  0.00    +0.000 C 
BRANCH  12  14
ATOM     13  C   UNL     1      -3.762  10.738  16.857  0.00  0.00    +0.000 C 
ATOM     14  C   UNL     1      -2.855   9.981  17.817  0.00  0.00    +0.000 C 
ENDBRANCH  12  14
ENDBRANCH   3  12
ENDBRANCH   1   9
BRANCH   1  15
ATOM     15  S   UNL     1       1.936   5.811  20.311  0.00  0.00    +0.000 S 
ATOM     16  O   UNL     1       2.561   5.266  21.500  0.00  0.00    +0.000 OA
ATOM     17  O   UNL     1       0.503   5.694  20.140  0.00  0.00    +0.000 OA
BRANCH  15  18
ATOM     18  C   UNL     1       2.706   5.071  18.885  0.00  0.00    +0.000 A 
ATOM     19  C   UNL     1       3.530   5.893  18.092  0.00  0.00    +0.000 A 
ATOM     20  C   UNL     1       4.273   5.361  17.028  0.00  0.00    +0.000 A 
ATOM     21  C   UNL     1       5.184   6.226  16.206  0.00  0.00    +0.000 C 
ATOM     22  C   UNL     1       4.179   3.995  16.755  0.00  0.00    +0.000 A 
ATOM     23  C   UNL     1       3.356   3.176  17.532  0.00  0.00    +0.000 A 
ATOM     24  C   UNL     1       2.618   3.706  18.601  0.00  0.00    +0.000 A 
ATOM     25 BR   UNL     1       1.541   2.470  19.560  0.00  0.00    +0.000 Br
ENDBRANCH  15  18
ENDBRANCH   1  15
TORSDOF 5
ENDMDL
MODEL 9
REMARK VINA RESULT:      -6.6      1.649      2.531
REMARK  Name = 
REMARK  7 active torsions:
REMARK  status: ('A' for Active; 'I' for Inactive)
REMARK    1  A    between atoms: C_1  and  C_2
REMARK    2  A    between atoms: C_2  and  C_3
REMARK    3  A    between atoms: C_3  and  N_4
REMARK    4  A    between atoms: C_10  and  N_11
REMARK    5  A    between atoms: N_11  and  S_12
REMARK    6  A    between atoms: S_12  and  C_15
REMARK    7  A    between atoms: C_17  and  C_18
REMARK                            x       y       z     vdW  Elec       q    Type
REMARK                         _______ _______ _______ _____ _____    ______ ____
ROOT
ATOM      1  N   UNL     1       5.410   3.339  18.364  0.00  0.00    +0.000 N 
ATOM      2  H   UNL     1       5.918   2.476  18.561  0.00  0.00    +0.000 HD
ENDROOT
BRANCH   1   9
ATOM      3  N   UNL     1       6.646   4.052  14.037  0.00  0.00    +0.000 NA
ATOM      4  C   UNL     1       7.249   5.362  14.384  0.00  0.00    +0.000 C 
ATOM      5  C   UNL     1       7.081   5.532  15.858  0.00  0.00    +0.000 A 
ATOM      6  C   UNL     1       7.462   6.617  16.633  0.00  0.00    +0.000 A 
ATOM      7  C   UNL     1       7.168   6.591  17.994  0.00  0.00    +0.000 A 
ATOM      8  C   UNL     1       6.489   5.497  18.550  0.00  0.00    +0.000 A 
ATOM      9  C   UNL     1       6.117   4.408  17.755  0.00  0.00    +0.000 A 
ATOM     10  C   UNL     1       6.429   4.432  16.403  0.00  0.00    +0.000 A 
ATOM     11  C   UNL     1       6.201   3.424  15.320  0.00  0.00    +0.000 C 
BRANCH   3  12
ATOM     12  C   UNL     1       5.517   4.178  13.100  0.00  0.00    +0.000 C 
BRANCH  12  14
ATOM     13  C   UNL     1       4.198   3.104  11.230  0.00  0.00    +0.000 C 
ATOM     14  C   UNL     1       5.517   3.113  11.990  0.00  0.00    +0.000 C 
ENDBRANCH  12  14
ENDBRANCH   3  12
ENDBRANCH   1   9
BRANCH   1  15
ATOM     15  S   UNL     1       3.824   3.028  17.874  0.00  0.00    +0.000 S 
ATOM     16  O   UNL     1       3.570   3.761  16.650  0.00  0.00    +0.000 OA
ATOM     17  O   UNL     1       3.660   1.589  17.892  0.00  0.00    +0.000 OA
BRANCH  15  18
ATOM     18  C   UNL     1       2.785   3.700  19.155  0.00  0.00    +0.000 A 
ATOM     19  C   UNL     1       2.316   2.813  20.143  0.00  0.00    +0.000 A 
ATOM     20  C   UNL     1       1.600   3.281  21.254  0.00  0.00    +0.000 A 
ATOM     21  C   UNL     1       1.134   2.343  22.331  0.00  0.00    +0.000 C 
ATOM     22  C   UNL     1       1.347   4.649  21.368  0.00  0.00    +0.000 A 
ATOM     23  C   UNL     1       1.801   5.533  20.386  0.00  0.00    +0.000 A 
ATOM     24  C   UNL     1       2.523   5.067  19.277  0.00  0.00    +0.000 A 
ATOM     25 BR   UNL     1       3.068   6.387  18.026  0.00  0.00    +0.000 Br
ENDBRANCH  15  18
ENDBRANCH   1  15
TORSDOF 5
ENDMDL
