MODEL 1
REMARK VINA RESULT:      -6.7      0.000      0.000
REMARK  Name = 
REMARK  5 active torsions:
REMARK  status: ('A' for Active; 'I' for Inactive)
REMARK    1  A    between atoms: C_1  and  O_2
REMARK    2  A    between atoms: O_2  and  C_3
REMARK    3  A    between atoms: C_3  and  C_4
REMARK    4  A    between atoms: C_7  and  C_8
REMARK    5  A    between atoms: C_11  and  N_12
REMARK                            x       y       z     vdW  Elec       q    Type
REMARK                         _______ _______ _______ _____ _____    ______ ____
ROOT
ATOM      1  C   UNL     1       5.657   4.420  16.496  0.00  0.00    +0.000 A 
ATOM      2  C   UNL     1       6.117   4.879  17.731  0.00  0.00    +0.000 A 
ATOM      3  C   UNL     1       5.367   4.662  18.896  0.00  0.00    +0.000 A 
ATOM      4  C   UNL     1       4.139   3.987  18.876  0.00  0.00    +0.000 A 
ATOM      5  C   UNL     1       3.699   3.527  17.627  0.00  0.00    +0.000 A 
ATOM      6  C   UNL     1       4.437   3.743  16.455  0.00  0.00    +0.000 A 
ENDROOT
BRANCH   1  10
ATOM      7  C   UNL     1       7.194   4.626  13.295  0.00  0.00    +0.000 A 
ATOM      8  N   UNL     1       7.963   5.536  13.908  0.00  0.00    +0.000 NA
ATOM      9  N   UNL     1       7.463   5.510  15.153  0.00  0.00    +0.000 N 
ATOM     10  C   UNL     1       6.406   4.648  15.266  0.00  0.00    +0.000 A 
ATOM     11  N   UNL     1       6.229   4.062  14.099  0.00  0.00    +0.000 NA
ATOM     12  H   UNL     1       7.895   6.077  15.872  0.00  0.00    +0.000 HD
BRANCH   7  13
ATOM     13  C   UNL     1       7.383   4.210  11.872  0.00  0.00    +0.000 C 
BRANCH  13  15
ATOM     14  C   UNL     1       7.423   1.964  11.090  0.00  0.00    +0.000 C 
ATOM     15  O   UNL     1       6.608   3.061  11.484  0.00  0.00    +0.000 OA
ENDBRANCH  13  15
ENDBRANCH   7  13
ENDBRANCH   1  10
BRANCH   4  16
ATOM     16  N   UNL     1       3.390   3.824  20.024  0.00  0.00    +0.000 N 
ATOM     17  C   UNL     1       3.538   2.646  20.880  0.00  0.00    +0.000 C 
ATOM     18  C   UNL     1       2.162   2.010  21.086  0.00  0.00    +0.000 C 
ATOM     19  C   UNL     1       1.152   3.020  21.626  0.00  0.00    +0.000 C 
ATOM     20  C   UNL     1       1.095   4.271  20.748  0.00  0.00    +0.000 C 
ATOM     21  C   UNL     1       2.487   4.863  20.525  0.00  0.00    +0.000 C 
ENDBRANCH   4  16
TORSDOF 4
ENDMDL
MODEL 2
REMARK VINA RESULT:      -6.7      0.112      1.074
REMARK  Name = 
REMARK  5 active torsions:
REMARK  status: ('A' for Active; 'I' for Inactive)
REMARK    1  A    between atoms: C_1  and  O_2
REMARK    2  A    between atoms: O_2  and  C_3
REMARK    3  A    between atoms: C_3  and  C_4
REMARK    4  A    between atoms: C_7  and  C_8
REMARK    5  A    between atoms: C_11  and  N_12
REMARK                            x       y       z     vdW  Elec       q    Type
REMARK                         _______ _______ _______ _____ _____    ______ ____
ROOT
ATOM      1  C   UNL     1       5.563   4.509  16.437  0.00  0.00    +0.000 A 
ATOM      2  C   UNL     1       4.309   3.897  16.417  0.00  0.00    +0.000 A 
ATOM      3  C   UNL     1       3.589   3.712  17.606  0.00  0.00    +0.000 A 
ATOM      4  C   UNL     1       4.085   4.126  18.850  0.00  0.00    +0.000 A 
ATOM      5  C   UNL     1       5.342   4.746  18.846  0.00  0.00    +0.000 A 
ATOM      6  C   UNL     1       6.075   4.930  17.665  0.00  0.00    +0.000 A 
ENDROOT
BRANCH   1  10
ATOM      7  C   UNL     1       7.176   4.616  13.268  0.00  0.00    +0.000 A 
ATOM      8  N   UNL     1       7.948   5.525  13.879  0.00  0.00    +0.000 NA
ATOM      9  N   UNL     1       7.420   5.535  15.112  0.00  0.00    +0.000 N 
ATOM     10  C   UNL     1       6.344   4.696  15.220  0.00  0.00    +0.000 A 
ATOM     11  N   UNL     1       6.182   4.088  14.062  0.00  0.00    +0.000 NA
ATOM     12  H   UNL     1       7.846   6.109  15.829  0.00  0.00    +0.000 HD
BRANCH   7  13
ATOM     13  C   UNL     1       7.389   4.166  11.859  0.00  0.00    +0.000 C 
BRANCH  13  15
ATOM     14  C   UNL     1       7.424   1.923  11.068  0.00  0.00    +0.000 C 
ATOM     15  O   UNL     1       6.612   3.014  11.483  0.00  0.00    +0.000 OA
ENDBRANCH  13  15
ENDBRANCH   7  13
ENDBRANCH   1  10
BRANCH   4  16
ATOM     16  N   UNL     1       3.384   3.894  20.017  0.00  0.00    +0.000 N 
ATOM     17  C   UNL     1       3.627   2.708  20.839  0.00  0.00    +0.000 C 
ATOM     18  C   UNL     1       2.298   1.988  21.073  0.00  0.00    +0.000 C 
ATOM     19  C   UNL     1       1.250   2.926  21.669  0.00  0.00    +0.000 C 
ATOM     20  C   UNL     1       1.093   4.191  20.823  0.00  0.00    +0.000 C 
ATOM     21  C   UNL     1       2.440   4.867  20.571  0.00  0.00    +0.000 C 
ENDBRANCH   4  16
TORSDOF 4
ENDMDL
MODEL 3
REMARK VINA RESULT:      -6.6      4.186      5.477
REMARK  Name = 
REMARK  5 active torsions:
REMARK  status: ('A' for Active; 'I' for Inactive)
REMARK    1  A    between atoms: C_1  and  O_2
REMARK    2  A    between atoms: O_2  and  C_3
REMARK    3  A    between atoms: C_3  and  C_4
REMARK    4  A    between atoms: C_7  and  C_8
REMARK    5  A    between atoms: C_11  and  N_12
REMARK                            x       y       z     vdW  Elec       q    Type
REMARK                         _______ _______ _______ _____ _____    ______ ____
ROOT
ATOM      1  C   UNL     1       3.116   6.759  18.427  0.00  0.00    +0.000 A 
ATOM      2  C   UNL     1       2.658   7.963  17.892  0.00  0.00    +0.000 A 
ATOM      3  C   UNL     1       1.773   8.773  18.618  0.00  0.00    +0.000 A 
ATOM      4  C   UNL     1       1.313   8.418  19.893  0.00  0.00    +0.000 A 
ATOM      5  C   UNL     1       1.792   7.208  20.415  0.00  0.00    +0.000 A 
ATOM      6  C   UNL     1       2.673   6.387  19.696  0.00  0.00    +0.000 A 
ENDROOT
BRANCH   1  10
ATOM      7  C   UNL     1       5.606   5.036  16.560  0.00  0.00    +0.000 A 
ATOM      8  N   UNL     1       4.781   3.995  16.737  0.00  0.00    +0.000 NA
ATOM      9  N   UNL     1       3.780   4.565  17.425  0.00  0.00    +0.000 N 
ATOM     10  C   UNL     1       4.021   5.887  17.687  0.00  0.00    +0.000 A 
ATOM     11  N   UNL     1       5.170   6.211  17.129  0.00  0.00    +0.000 NA
ATOM     12  H   UNL     1       2.965   4.014  17.663  0.00  0.00    +0.000 HD
BRANCH   7  13
ATOM     13  C   UNL     1       6.874   4.959  15.771  0.00  0.00    +0.000 C 
BRANCH  13  15
ATOM     14  C   UNL     1       6.457   4.066  13.606  0.00  0.00    +0.000 C 
ATOM     15  O   UNL     1       6.715   5.239  14.368  0.00  0.00    +0.000 OA
ENDBRANCH  13  15
ENDBRANCH   7  13
ENDBRANCH   1  10
BRANCH   4  16
ATOM     16  N   UNL     1       0.404   9.203  20.574  0.00  0.00    +0.000 N 
ATOM     17  C   UNL     1       0.043  10.543  20.110  0.00  0.00    +0.000 C 
ATOM     18  C   UNL     1       0.250  11.534  21.256  0.00  0.00    +0.000 C 
ATOM     19  C   UNL     1      -0.511  11.109  22.511  0.00  0.00    +0.000 C 
ATOM     20  C   UNL     1      -0.167   9.673  22.907  0.00  0.00    +0.000 C 
ATOM     21  C   UNL     1      -0.344   8.709  21.733  0.00  0.00    +0.000 C 
ENDBRANCH   4  16
TORSDOF 4
ENDMDL
MODEL 4
REMARK VINA RESULT:      -6.6      0.975      1.207
REMARK  Name = 
REMARK  5 active torsions:
REMARK  status: ('A' for Active; 'I' for Inactive)
REMARK    1  A    between atoms: C_1  and  O_2
REMARK    2  A    between atoms: O_2  and  C_3
REMARK    3  A    between atoms: C_3  and  C_4
REMARK    4  A    between atoms: C_7  and  C_8
REMARK    5  A    between atoms: C_11  and  N_12
REMARK                            x       y       z     vdW  Elec       q    Type
REMARK                         _______ _______ _______ _____ _____    ______ ____
ROOT
ATOM      1  C   UNL     1       5.175   4.658  16.208  0.00  0.00    +0.000 A 
ATOM      2  C   UNL     1       4.589   5.771  16.811  0.00  0.00    +0.000 A 
ATOM      3  C   UNL     1       3.692   5.613  17.878  0.00  0.00    +0.000 A 
ATOM      4  C   UNL     1       3.347   4.351  18.380  0.00  0.00    +0.000 A 
ATOM      5  C   UNL     1       3.955   3.247  17.765  0.00  0.00    +0.000 A 
ATOM      6  C   UNL     1       4.847   3.392  16.694  0.00  0.00    +0.000 A 
ENDROOT
BRANCH   1  10
ATOM      7  C   UNL     1       7.133   4.648  13.238  0.00  0.00    +0.000 A 
ATOM      8  N   UNL     1       7.882   5.518  13.928  0.00  0.00    +0.000 NA
ATOM      9  N   UNL     1       7.222   5.568  15.095  0.00  0.00    +0.000 N 
ATOM     10  C   UNL     1       6.095   4.791  15.084  0.00  0.00    +0.000 A 
ATOM     11  N   UNL     1       6.029   4.182  13.917  0.00  0.00    +0.000 NA
ATOM     12  H   UNL     1       7.597   6.124  15.853  0.00  0.00    +0.000 HD
BRANCH   7  13
ATOM     13  C   UNL     1       7.476   4.173  11.862  0.00  0.00    +0.000 C 
BRANCH  13  15
ATOM     14  C   UNL     1       7.444   1.931  11.070  0.00  0.00    +0.000 C 
ATOM     15  O   UNL     1       6.667   3.077  11.397  0.00  0.00    +0.000 OA
ENDBRANCH  13  15
ENDBRANCH   7  13
ENDBRANCH   1  10
BRANCH   4  16
ATOM     16  N   UNL     1       2.427   4.210  19.399  0.00  0.00    +0.000 N 
ATOM     17  C   UNL     1       2.688   4.712  20.749  0.00  0.00    +0.000 C 
ATOM     18  C   UNL     1       2.480   3.572  21.748  0.00  0.00    +0.000 C 
ATOM     19  C   UNL     1       1.096   2.943  21.600  0.00  0.00    +0.000 C 
ATOM     20  C   UNL     1       0.835   2.513  20.156  0.00  0.00    +0.000 C 
ATOM     21  C   UNL     1       1.089   3.657  19.176  0.00  0.00    +0.000 C 
ENDBRANCH   4  16
TORSDOF 4
ENDMDL
MODEL 5
REMARK VINA RESULT:      -6.5      4.847      6.153
REMARK  Name = 
REMARK  5 active torsions:
REMARK  status: ('A' for Active; 'I' for Inactive)
REMARK    1  A    between atoms: C_1  and  O_2
REMARK    2  A    between atoms: O_2  and  C_3
REMARK    3  A    between atoms: C_3  and  C_4
REMARK    4  A    between atoms: C_7  and  C_8
REMARK    5  A    between atoms: C_11  and  N_12
REMARK                            x       y       z     vdW  Elec       q    Type
REMARK                         _______ _______ _______ _____ _____    ______ ____
ROOT
ATOM      1  C   UNL     1       3.001   7.101  18.324  0.00  0.00    +0.000 A 
ATOM      2  C   UNL     1       2.607   8.197  17.556  0.00  0.00    +0.000 A 
ATOM      3  C   UNL     1       1.724   9.153  18.079  0.00  0.00    +0.000 A 
ATOM      4  C   UNL     1       1.205   9.056  19.377  0.00  0.00    +0.000 A 
ATOM      5  C   UNL     1       1.622   7.953  20.135  0.00  0.00    +0.000 A 
ATOM      6  C   UNL     1       2.498   6.987  19.621  0.00  0.00    +0.000 A 
ENDROOT
BRANCH   1  10
ATOM      7  C   UNL     1       5.548   4.963  17.062  0.00  0.00    +0.000 A 
ATOM      8  N   UNL     1       4.545   4.077  17.007  0.00  0.00    +0.000 NA
ATOM      9  N   UNL     1       3.516   4.815  17.450  0.00  0.00    +0.000 N 
ATOM     10  C   UNL     1       3.901   6.081  17.800  0.00  0.00    +0.000 A 
ATOM     11  N   UNL     1       5.188   6.202  17.543  0.00  0.00    +0.000 NA
ATOM     12  H   UNL     1       2.588   4.411  17.470  0.00  0.00    +0.000 HD
BRANCH   7  13
ATOM     13  C   UNL     1       6.938   4.665  16.599  0.00  0.00    +0.000 C 
BRANCH  13  15
ATOM     14  C   UNL     1       6.849   4.783  14.225  0.00  0.00    +0.000 C 
ATOM     15  O   UNL     1       7.335   5.386  15.418  0.00  0.00    +0.000 OA
ENDBRANCH  13  15
ENDBRANCH   7  13
ENDBRANCH   1  10
BRANCH   4  16
ATOM     16  N   UNL     1       0.301   9.980  19.861  0.00  0.00    +0.000 N 
ATOM     17  C   UNL     1      -0.892  10.360  19.104  0.00  0.00    +0.000 C 
ATOM     18  C   UNL     1      -0.926  11.883  18.967  0.00  0.00    +0.000 C 
ATOM     19  C   UNL     1      -0.835  12.571  20.328  0.00  0.00    +0.000 C 
ATOM     20  C   UNL     1       0.378  12.078  21.118  0.00  0.00    +0.000 C 
ATOM     21  C   UNL     1       0.408  10.552  21.205  0.00  0.00    +0.000 C 
ENDBRANCH   4  16
TORSDOF 4
ENDMDL
MODEL 6
REMARK VINA RESULT:      -6.5      4.984      6.395
REMARK  Name = 
REMARK  5 active torsions:
REMARK  status: ('A' for Active; 'I' for Inactive)
REMARK    1  A    between atoms: C_1  and  O_2
REMARK    2  A    between atoms: O_2  and  C_3
REMARK    3  A    between atoms: C_3  and  C_4
REMARK    4  A    between atoms: C_7  and  C_8
REMARK    5  A    between atoms: C_11  and  N_12
REMARK                            x       y       z     vdW  Elec       q    Type
REMARK                         _______ _______ _______ _____ _____    ______ ____
ROOT
ATOM      1  C   UNL     1       2.666   7.281  18.411  0.00  0.00    +0.000 A 
ATOM      2  C   UNL     1       2.239   7.273  19.739  0.00  0.00    +0.000 A 
ATOM      3  C   UNL     1       1.522   8.359  20.263  0.00  0.00    +0.000 A 
ATOM      4  C   UNL     1       1.207   9.486  19.491  0.00  0.00    +0.000 A 
ATOM      5  C   UNL     1       1.638   9.469  18.157  0.00  0.00    +0.000 A 
ATOM      6  C   UNL     1       2.361   8.392  17.624  0.00  0.00    +0.000 A 
ENDROOT
BRANCH   1  10
ATOM      7  C   UNL     1       4.830   4.933  16.843  0.00  0.00    +0.000 A 
ATOM      8  N   UNL     1       3.960   4.048  17.346  0.00  0.00    +0.000 NA
ATOM      9  N   UNL     1       3.075   4.858  17.947  0.00  0.00    +0.000 N 
ATOM     10  C   UNL     1       3.430   6.176  17.845  0.00  0.00    +0.000 A 
ATOM     11  N   UNL     1       4.535   6.247  17.130  0.00  0.00    +0.000 NA
ATOM     12  H   UNL     1       2.253   4.458  18.383  0.00  0.00    +0.000 HD
BRANCH   7  13
ATOM     13  C   UNL     1       6.002   4.549  15.999  0.00  0.00    +0.000 C 
BRANCH  13  15
ATOM     14  C   UNL     1       7.649   4.597  17.715  0.00  0.00    +0.000 C 
ATOM     15  O   UNL     1       7.256   5.100  16.443  0.00  0.00    +0.000 OA
ENDBRANCH  13  15
ENDBRANCH   7  13
ENDBRANCH   1  10
BRANCH   4  16
ATOM     16  N   UNL     1       0.542  10.567  20.034  0.00  0.00    +0.000 N 
ATOM     17  C   UNL     1       0.619  10.881  21.462  0.00  0.00    +0.000 C 
ATOM     18  C   UNL     1      -0.800  10.996  22.020  0.00  0.00    +0.000 C 
ATOM     19  C   UNL     1      -1.634  12.002  21.229  0.00  0.00    +0.000 C 
ATOM     20  C   UNL     1      -1.614  11.684  19.733  0.00  0.00    +0.000 C 
ATOM     21  C   UNL     1      -0.185  11.535  19.210  0.00  0.00    +0.000 C 
ENDBRANCH   4  16
TORSDOF 4
ENDMDL
MODEL 7
REMARK VINA RESULT:      -6.4      6.334      9.926
REMARK  Name = 
REMARK  5 active torsions:
REMARK  status: ('A' for Active; 'I' for Inactive)
REMARK    1  A    between atoms: C_1  and  O_2
REMARK    2  A    between atoms: O_2  and  C_3
REMARK    3  A    between atoms: C_3  and  C_4
REMARK    4  A    between atoms: C_7  and  C_8
REMARK    5  A    between atoms: C_11  and  N_12
REMARK                            x       y       z     vdW  Elec       q    Type
REMARK                         _______ _______ _______ _____ _____    ______ ____
ROOT
ATOM      1  C   UNL     1       1.268   8.540  20.433  0.00  0.00    +0.000 A 
ATOM      2  C   UNL     1       1.583   8.989  19.150  0.00  0.00    +0.000 A 
ATOM      3  C   UNL     1       2.286   8.164  18.260  0.00  0.00    +0.000 A 
ATOM      4  C   UNL     1       2.699   6.871  18.610  0.00  0.00    +0.000 A 
ATOM      5  C   UNL     1       2.364   6.437  19.901  0.00  0.00    +0.000 A 
ATOM      6  C   UNL     1       1.668   7.255  20.802  0.00  0.00    +0.000 A 
ENDROOT
BRANCH   1  10
ATOM      7  C   UNL     1      -0.639  10.841  22.362  0.00  0.00    +0.000 A 
ATOM      8  N   UNL     1      -0.112  10.160  23.388  0.00  0.00    +0.000 NA
ATOM      9  N   UNL     1       0.657   9.268  22.747  0.00  0.00    +0.000 N 
ATOM     10  C   UNL     1       0.557   9.383  21.387  0.00  0.00    +0.000 A 
ATOM     11  N   UNL     1      -0.250  10.391  21.120  0.00  0.00    +0.000 NA
ATOM     12  H   UNL     1       1.234   8.632  23.285  0.00  0.00    +0.000 HD
BRANCH   7  13
ATOM     13  C   UNL     1      -1.539  12.024  22.531  0.00  0.00    +0.000 C 
BRANCH  13  15
ATOM     14  C   UNL     1      -3.755  12.629  23.146  0.00  0.00    +0.000 C 
ATOM     15  O   UNL     1      -2.632  11.808  23.442  0.00  0.00    +0.000 OA
ENDBRANCH  13  15
ENDBRANCH   7  13
ENDBRANCH   1  10
BRANCH   4  16
ATOM     16  N   UNL     1       3.431   6.089  17.740  0.00  0.00    +0.000 N 
ATOM     17  C   UNL     1       3.122   4.674  17.529  0.00  0.00    +0.000 C 
ATOM     18  C   UNL     1       4.391   3.852  17.759  0.00  0.00    +0.000 C 
ATOM     19  C   UNL     1       5.546   4.349  16.892  0.00  0.00    +0.000 C 
ATOM     20  C   UNL     1       5.775   5.849  17.081  0.00  0.00    +0.000 C 
ATOM     21  C   UNL     1       4.483   6.643  16.885  0.00  0.00    +0.000 C 
ENDBRANCH   4  16
TORSDOF 4
ENDMDL
MODEL 8
REMARK VINA RESULT:      -6.4      4.851      6.353
REMARK  Name = 
REMARK  5 active torsions:
REMARK  status: ('A' for Active; 'I' for Inactive)
REMARK    1  A    between atoms: C_1  and  O_2
REMARK    2  A    between atoms: O_2  and  C_3
REMARK    3  A    between atoms: C_3  and  C_4
REMARK    4  A    between atoms: C_7  and  C_8
REMARK    5  A    between atoms: C_11  and  N_12
REMARK                            x       y       z     vdW  Elec       q    Type
REMARK                         _______ _______ _______ _____ _____    ______ ____
ROOT
ATOM      1  C   UNL     1       2.813   7.063  18.401  0.00  0.00    +0.000 A 
ATOM      2  C   UNL     1       2.298   7.082  19.698  0.00  0.00    +0.000 A 
ATOM      3  C   UNL     1       1.556   8.181  20.153  0.00  0.00    +0.000 A 
ATOM      4  C   UNL     1       1.301   9.295  19.342  0.00  0.00    +0.000 A 
ATOM      5  C   UNL     1       1.820   9.251  18.040  0.00  0.00    +0.000 A 
ATOM      6  C   UNL     1       2.569   8.160  17.576  0.00  0.00    +0.000 A 
ENDROOT
BRANCH   1  10
ATOM      7  C   UNL     1       4.971   4.662  16.906  0.00  0.00    +0.000 A 
ATOM      8  N   UNL     1       4.296   3.813  17.692  0.00  0.00    +0.000 NA
ATOM      9  N   UNL     1       3.426   4.640  18.290  0.00  0.00    +0.000 N 
ATOM     10  C   UNL     1       3.605   5.942  17.908  0.00  0.00    +0.000 A 
ATOM     11  N   UNL     1       4.573   5.976  17.014  0.00  0.00    +0.000 NA
ATOM     12  H   UNL     1       2.732   4.258  18.921  0.00  0.00    +0.000 HD
BRANCH   7  13
ATOM     13  C   UNL     1       6.038   4.232  15.950  0.00  0.00    +0.000 C 
BRANCH  13  15
ATOM     14  C   UNL     1       7.715   4.538  17.609  0.00  0.00    +0.000 C 
ATOM     15  O   UNL     1       7.345   4.753  16.252  0.00  0.00    +0.000 OA
ENDBRANCH  13  15
ENDBRANCH   7  13
ENDBRANCH   1  10
BRANCH   4  16
ATOM     16  N   UNL     1       0.609  10.390  19.820  0.00  0.00    +0.000 N 
ATOM     17  C   UNL     1       0.898  11.747  19.355  0.00  0.00    +0.000 C 
ATOM     18  C   UNL     1       1.166  12.638  20.569  0.00  0.00    +0.000 C 
ATOM     19  C   UNL     1       0.015  12.580  21.572  0.00  0.00    +0.000 C 
ATOM     20  C   UNL     1      -0.308  11.137  21.961  0.00  0.00    +0.000 C 
ATOM     21  C   UNL     1      -0.531  10.260  20.730  0.00  0.00    +0.000 C 
ENDBRANCH   4  16
TORSDOF 4
ENDMDL
MODEL 9
REMARK VINA RESULT:      -6.4      5.364      7.128
REMARK  Name = 
REMARK  5 active torsions:
REMARK  status: ('A' for Active; 'I' for Inactive)
REMARK    1  A    between atoms: C_1  and  O_2
REMARK    2  A    between atoms: O_2  and  C_3
REMARK    3  A    between atoms: C_3  and  C_4
REMARK    4  A    between atoms: C_7  and  C_8
REMARK    5  A    between atoms: C_11  and  N_12
REMARK                            x       y       z     vdW  Elec       q    Type
REMARK                         _______ _______ _______ _____ _____    ______ ____
ROOT
ATOM      1  C   UNL     1       2.317   7.655  18.962  0.00  0.00    +0.000 A 
ATOM      2  C   UNL     1       2.029   8.494  17.884  0.00  0.00    +0.000 A 
ATOM      3  C   UNL     1       1.224   9.629  18.061  0.00  0.00    +0.000 A 
ATOM      4  C   UNL     1       0.679   9.969  19.306  0.00  0.00    +0.000 A 
ATOM      5  C   UNL     1       0.988   9.119  20.376  0.00  0.00    +0.000 A 
ATOM      6  C   UNL     1       1.786   7.977  20.211  0.00  0.00    +0.000 A 
ENDROOT
BRANCH   1  10
ATOM      7  C   UNL     1       4.285   4.824  18.089  0.00  0.00    +0.000 A 
ATOM      8  N   UNL     1       4.282   4.623  19.413  0.00  0.00    +0.000 NA
ATOM      9  N   UNL     1       3.528   5.649  19.835  0.00  0.00    +0.000 N 
ATOM     10  C   UNL     1       3.134   6.458  18.804  0.00  0.00    +0.000 A 
ATOM     11  N   UNL     1       3.590   5.941  17.681  0.00  0.00    +0.000 NA
ATOM     12  H   UNL     1       3.304   5.728  20.820  0.00  0.00    +0.000 HD
BRANCH   7  13
ATOM     13  C   UNL     1       4.941   3.898  17.115  0.00  0.00    +0.000 C 
BRANCH  13  15
ATOM     14  C   UNL     1       7.215   4.590  17.184  0.00  0.00    +0.000 C 
ATOM     15  O   UNL     1       6.039   4.484  16.392  0.00  0.00    +0.000 OA
ENDBRANCH  13  15
ENDBRANCH   7  13
ENDBRANCH   1  10
BRANCH   4  16
ATOM     16  N   UNL     1      -0.150  11.063  19.454  0.00  0.00    +0.000 N 
ATOM     17  C   UNL     1      -0.132  11.887  20.663  0.00  0.00    +0.000 C 
ATOM     18  C   UNL     1      -1.555  11.987  21.214  0.00  0.00    +0.000 C 
ATOM     19  C   UNL     1      -2.531  12.498  20.155  0.00  0.00    +0.000 C 
ATOM     20  C   UNL     1      -2.452  11.660  18.879  0.00  0.00    +0.000 C 
ATOM     21  C   UNL     1      -1.015  11.542  18.373  0.00  0.00    +0.000 C 
ENDBRANCH   4  16
TORSDOF 4
ENDMDL
