MODEL 1
REMARK VINA RESULT:      -7.6      0.000      0.000
REMARK  Name = 
REMARK  4 active torsions:
REMARK  status: ('A' for Active; 'I' for Inactive)
REMARK    1  A    between atoms: C_8  and  C_9
REMARK    2  A    between atoms: C_14  and  C_15
REMARK    3  A    between atoms: C_15  and  O_16
REMARK    4  A    between atoms: O_16  and  C_17
REMARK                            x       y       z     vdW  Elec       q    Type
REMARK                         _______ _______ _______ _____ _____    ______ ____
ROOT
ATOM      1  C   UNL     1       5.378   4.896  18.960  0.00  0.00    +0.000 A 
ATOM      2  N   UNL     1       6.560   4.885  19.577  0.00  0.00    +0.000 NA
ATOM      3  N   UNL     1       7.577   4.820  18.630  0.00  0.00    +0.000 NA
ATOM      4  C   UNL     1       6.975   4.802  17.480  0.00  0.00    +0.000 A 
ATOM      5  S   UNL     1       7.421   4.762  15.834  0.00  0.00    +0.000 S 
ATOM      6  C   UNL     1       5.672   4.784  15.481  0.00  0.00    +0.000 A 
ATOM      7  N   UNL     1       4.843   4.815  16.492  0.00  0.00    +0.000 NA
ATOM      8  N   UNL     1       5.630   4.834  17.607  0.00  0.00    +0.000 N 
ENDROOT
BRANCH   1  16
ATOM      9 CL   UNL     1       1.414   7.947  20.270  0.00  0.00    +0.000 Cl
ATOM     10  C   UNL     1       2.157   6.396  20.229  0.00  0.00    +0.000 A 
ATOM     11  C   UNL     1       1.501   5.301  20.770  0.00  0.00    +0.000 A 
ATOM     12  C   UNL     1       2.107   4.045  20.727  0.00  0.00    +0.000 A 
ATOM     13 CL   UNL     1       1.220   2.732  21.427  0.00  0.00    +0.000 Cl
ATOM     14  C   UNL     1       3.375   3.876  20.134  0.00  0.00    +0.000 A 
ATOM     15 CL   UNL     1       4.064   2.280  20.056  0.00  0.00    +0.000 Cl
ATOM     16  C   UNL     1       4.048   4.990  19.581  0.00  0.00    +0.000 A 
ATOM     17  C   UNL     1       3.417   6.249  19.651  0.00  0.00    +0.000 A 
ENDBRANCH   1  16
BRANCH   6  18
ATOM     18  C   UNL     1       5.248   4.783  14.035  0.00  0.00    +0.000 C 
BRANCH  18  19
ATOM     19  O   UNL     1       6.415   4.542  13.253  0.00  0.00    +0.000 OA
BRANCH  19  20
ATOM     20  C   UNL     1       6.342   3.471  12.402  0.00  0.00    +0.000 A 
ATOM     21  C   UNL     1       7.567   3.013  11.910  0.00  0.00    +0.000 A 
ATOM     22  C   UNL     1       7.620   1.917  11.047  0.00  0.00    +0.000 A 
ATOM     23  C   UNL     1       6.445   1.262  10.685  0.00  0.00    +0.000 A 
ATOM     24  C   UNL     1       5.222   1.700  11.187  0.00  0.00    +0.000 A 
ATOM     25  C   UNL     1       5.169   2.802  12.047  0.00  0.00    +0.000 A 
ENDBRANCH  19  20
ENDBRANCH  18  19
ENDBRANCH   6  18
TORSDOF 4
ENDMDL
MODEL 2
REMARK VINA RESULT:      -7.6      4.028      7.991
REMARK  Name = 
REMARK  4 active torsions:
REMARK  status: ('A' for Active; 'I' for Inactive)
REMARK    1  A    between atoms: C_8  and  C_9
REMARK    2  A    between atoms: C_14  and  C_15
REMARK    3  A    between atoms: C_15  and  O_16
REMARK    4  A    between atoms: O_16  and  C_17
REMARK                            x       y       z     vdW  Elec       q    Type
REMARK                         _______ _______ _______ _____ _____    ______ ____
ROOT
ATOM      1  C   UNL     1       3.977   3.267  18.036  0.00  0.00    +0.000 A 
ATOM      2  N   UNL     1       3.729   1.957  18.052  0.00  0.00    +0.000 NA
ATOM      3  N   UNL     1       2.695   1.691  18.943  0.00  0.00    +0.000 NA
ATOM      4  C   UNL     1       2.352   2.847  19.425  0.00  0.00    +0.000 A 
ATOM      5  S   UNL     1       1.192   3.453  20.520  0.00  0.00    +0.000 S 
ATOM      6  C   UNL     1       1.879   5.062  20.175  0.00  0.00    +0.000 A 
ATOM      7  N   UNL     1       2.875   5.135  19.330  0.00  0.00    +0.000 NA
ATOM      8  N   UNL     1       3.102   3.852  18.923  0.00  0.00    +0.000 N 
ENDROOT
BRANCH   1  16
ATOM      9 CL   UNL     1       6.068   3.886  13.347  0.00  0.00    +0.000 Cl
ATOM     10  C   UNL     1       5.992   4.296  15.016  0.00  0.00    +0.000 A 
ATOM     11  C   UNL     1       6.845   5.261  15.530  0.00  0.00    +0.000 A 
ATOM     12  C   UNL     1       6.772   5.592  16.883  0.00  0.00    +0.000 A 
ATOM     13 CL   UNL     1       7.875   6.805  17.444  0.00  0.00    +0.000 Cl
ATOM     14  C   UNL     1       5.838   4.962  17.732  0.00  0.00    +0.000 A 
ATOM     15 CL   UNL     1       5.749   5.450  19.399  0.00  0.00    +0.000 Cl
ATOM     16  C   UNL     1       4.966   3.977  17.211  0.00  0.00    +0.000 A 
ATOM     17  C   UNL     1       5.071   3.654  15.843  0.00  0.00    +0.000 A 
ENDBRANCH   1  16
BRANCH   6  18
ATOM     18  C   UNL     1       1.262   6.251  20.864  0.00  0.00    +0.000 C 
BRANCH  18  19
ATOM     19  O   UNL     1       2.089   7.378  20.583  0.00  0.00    +0.000 OA
BRANCH  19  20
ATOM     20  C   UNL     1       1.486   8.391  19.885  0.00  0.00    +0.000 A 
ATOM     21  C   UNL     1       0.544   9.133  20.600  0.00  0.00    +0.000 A 
ATOM     22  C   UNL     1      -0.124  10.201  19.997  0.00  0.00    +0.000 A 
ATOM     23  C   UNL     1       0.161  10.541  18.677  0.00  0.00    +0.000 A 
ATOM     24  C   UNL     1       1.115   9.819  17.964  0.00  0.00    +0.000 A 
ATOM     25  C   UNL     1       1.779   8.745  18.566  0.00  0.00    +0.000 A 
ENDBRANCH  19  20
ENDBRANCH  18  19
ENDBRANCH   6  18
TORSDOF 4
ENDMDL
MODEL 3
REMARK VINA RESULT:      -7.5      4.100      8.473
REMARK  Name = 
REMARK  4 active torsions:
REMARK  status: ('A' for Active; 'I' for Inactive)
REMARK    1  A    between atoms: C_8  and  C_9
REMARK    2  A    between atoms: C_14  and  C_15
REMARK    3  A    between atoms: C_15  and  O_16
REMARK    4  A    between atoms: O_16  and  C_17
REMARK                            x       y       z     vdW  Elec       q    Type
REMARK                         _______ _______ _______ _____ _____    ______ ____
ROOT
ATOM      1  C   UNL     1       3.958   3.280  18.074  0.00  0.00    +0.000 A 
ATOM      2  N   UNL     1       3.727   1.967  18.093  0.00  0.00    +0.000 NA
ATOM      3  N   UNL     1       2.696   1.691  18.985  0.00  0.00    +0.000 NA
ATOM      4  C   UNL     1       2.337   2.844  19.463  0.00  0.00    +0.000 A 
ATOM      5  S   UNL     1       1.169   3.437  20.556  0.00  0.00    +0.000 S 
ATOM      6  C   UNL     1       1.836   5.055  20.207  0.00  0.00    +0.000 A 
ATOM      7  N   UNL     1       2.831   5.138  19.362  0.00  0.00    +0.000 NA
ATOM      8  N   UNL     1       3.075   3.857  18.959  0.00  0.00    +0.000 N 
ENDROOT
BRANCH   1  16
ATOM      9 CL   UNL     1       5.980   3.977  13.366  0.00  0.00    +0.000 Cl
ATOM     10  C   UNL     1       5.932   4.356  15.044  0.00  0.00    +0.000 A 
ATOM     11  C   UNL     1       6.797   5.307  15.562  0.00  0.00    +0.000 A 
ATOM     12  C   UNL     1       6.746   5.613  16.923  0.00  0.00    +0.000 A 
ATOM     13 CL   UNL     1       7.864   6.811  17.489  0.00  0.00    +0.000 Cl
ATOM     14  C   UNL     1       5.822   4.972  17.773  0.00  0.00    +0.000 A 
ATOM     15 CL   UNL     1       5.762   5.430  19.450  0.00  0.00    +0.000 Cl
ATOM     16  C   UNL     1       4.938   4.002  17.248  0.00  0.00    +0.000 A 
ATOM     17  C   UNL     1       5.021   3.704  15.872  0.00  0.00    +0.000 A 
ENDBRANCH   1  16
BRANCH   6  18
ATOM     18  C   UNL     1       1.202   6.237  20.892  0.00  0.00    +0.000 C 
BRANCH  18  19
ATOM     19  O   UNL     1       1.884   7.404  20.437  0.00  0.00    +0.000 OA
BRANCH  19  20
ATOM     20  C   UNL     1       1.252   8.592  20.692  0.00  0.00    +0.000 A 
ATOM     21  C   UNL     1       1.001   9.389  19.573  0.00  0.00    +0.000 A 
ATOM     22  C   UNL     1       0.348  10.616  19.707  0.00  0.00    +0.000 A 
ATOM     23  C   UNL     1      -0.073  11.044  20.964  0.00  0.00    +0.000 A 
ATOM     24  C   UNL     1       0.156  10.245  22.082  0.00  0.00    +0.000 A 
ATOM     25  C   UNL     1       0.815   9.019  21.948  0.00  0.00    +0.000 A 
ENDBRANCH  19  20
ENDBRANCH  18  19
ENDBRANCH   6  18
TORSDOF 4
ENDMDL
MODEL 4
REMARK VINA RESULT:      -7.4      4.487      8.661
REMARK  Name = 
REMARK  4 active torsions:
REMARK  status: ('A' for Active; 'I' for Inactive)
REMARK    1  A    between atoms: C_8  and  C_9
REMARK    2  A    between atoms: C_14  and  C_15
REMARK    3  A    between atoms: C_15  and  O_16
REMARK    4  A    between atoms: O_16  and  C_17
REMARK                            x       y       z     vdW  Elec       q    Type
REMARK                         _______ _______ _______ _____ _____    ______ ____
ROOT
ATOM      1  C   UNL     1       4.844   4.016  19.155  0.00  0.00    +0.000 A 
ATOM      2  N   UNL     1       4.969   2.745  19.537  0.00  0.00    +0.000 NA
ATOM      3  N   UNL     1       3.913   2.408  20.379  0.00  0.00    +0.000 NA
ATOM      4  C   UNL     1       3.189   3.482  20.467  0.00  0.00    +0.000 A 
ATOM      5  S   UNL     1       1.740   3.955  21.235  0.00  0.00    +0.000 S 
ATOM      6  C   UNL     1       2.004   5.553  20.487  0.00  0.00    +0.000 A 
ATOM      7  N   UNL     1       3.068   5.713  19.743  0.00  0.00    +0.000 NA
ATOM      8  N   UNL     1       3.705   4.506  19.754  0.00  0.00    +0.000 N 
ENDROOT
BRANCH   1  16
ATOM      9 CL   UNL     1       8.420   7.714  18.638  0.00  0.00    +0.000 Cl
ATOM     10  C   UNL     1       7.405   6.510  17.947  0.00  0.00    +0.000 A 
ATOM     11  C   UNL     1       7.437   6.280  16.581  0.00  0.00    +0.000 A 
ATOM     12  C   UNL     1       6.615   5.296  16.029  0.00  0.00    +0.000 A 
ATOM     13 CL   UNL     1       6.716   5.075  14.313  0.00  0.00    +0.000 Cl
ATOM     14  C   UNL     1       5.758   4.530  16.846  0.00  0.00    +0.000 A 
ATOM     15 CL   UNL     1       4.794   3.279  16.117  0.00  0.00    +0.000 Cl
ATOM     16  C   UNL     1       5.722   4.762  18.241  0.00  0.00    +0.000 A 
ATOM     17  C   UNL     1       6.554   5.771  18.768  0.00  0.00    +0.000 A 
ENDBRANCH   1  16
BRANCH   6  18
ATOM     18  C   UNL     1       0.976   6.625  20.740  0.00  0.00    +0.000 C 
BRANCH  18  19
ATOM     19  O   UNL     1       1.668   7.870  20.792  0.00  0.00    +0.000 OA
BRANCH  19  20
ATOM     20  C   UNL     1       0.929   8.936  21.231  0.00  0.00    +0.000 A 
ATOM     21  C   UNL     1       0.680   9.925  20.276  0.00  0.00    +0.000 A 
ATOM     22  C   UNL     1      -0.076  11.052  20.603  0.00  0.00    +0.000 A 
ATOM     23  C   UNL     1      -0.602  11.187  21.886  0.00  0.00    +0.000 A 
ATOM     24  C   UNL     1      -0.374  10.196  22.837  0.00  0.00    +0.000 A 
ATOM     25  C   UNL     1       0.389   9.070  22.511  0.00  0.00    +0.000 A 
ENDBRANCH  19  20
ENDBRANCH  18  19
ENDBRANCH   6  18
TORSDOF 4
ENDMDL
MODEL 5
REMARK VINA RESULT:      -7.3      3.319      4.966
REMARK  Name = 
REMARK  4 active torsions:
REMARK  status: ('A' for Active; 'I' for Inactive)
REMARK    1  A    between atoms: C_8  and  C_9
REMARK    2  A    between atoms: C_14  and  C_15
REMARK    3  A    between atoms: C_15  and  O_16
REMARK    4  A    between atoms: O_16  and  C_17
REMARK                            x       y       z     vdW  Elec       q    Type
REMARK                         _______ _______ _______ _____ _____    ______ ____
ROOT
ATOM      1  C   UNL     1       1.873   5.870  20.203  0.00  0.00    +0.000 A 
ATOM      2  N   UNL     1       1.071   4.812  20.321  0.00  0.00    +0.000 NA
ATOM      3  N   UNL     1       1.800   3.650  20.091  0.00  0.00    +0.000 NA
ATOM      4  C   UNL     1       3.013   4.047  19.851  0.00  0.00    +0.000 A 
ATOM      5  S   UNL     1       4.521   3.327  19.509  0.00  0.00    +0.000 S 
ATOM      6  C   UNL     1       5.167   4.989  19.445  0.00  0.00    +0.000 A 
ATOM      7  N   UNL     1       4.336   5.978  19.656  0.00  0.00    +0.000 NA
ATOM      8  N   UNL     1       3.126   5.393  19.891  0.00  0.00    +0.000 N 
ENDROOT
BRANCH   1  16
ATOM      9 CL   UNL     1       0.045   9.476  23.427  0.00  0.00    +0.000 Cl
ATOM     10  C   UNL     1       0.648   9.020  21.882  0.00  0.00    +0.000 A 
ATOM     11  C   UNL     1       0.780   9.972  20.883  0.00  0.00    +0.000 A 
ATOM     12  C   UNL     1       1.276   9.594  19.635  0.00  0.00    +0.000 A 
ATOM     13 CL   UNL     1       1.407  10.846  18.443  0.00  0.00    +0.000 Cl
ATOM     14  C   UNL     1       1.651   8.259  19.380  0.00  0.00    +0.000 A 
ATOM     15 CL   UNL     1       2.316   7.851  17.826  0.00  0.00    +0.000 Cl
ATOM     16  C   UNL     1       1.518   7.285  20.397  0.00  0.00    +0.000 A 
ATOM     17  C   UNL     1       1.001   7.693  21.644  0.00  0.00    +0.000 A 
ENDBRANCH   1  16
BRANCH   6  18
ATOM     18  C   UNL     1       6.638   5.161  19.169  0.00  0.00    +0.000 C 
BRANCH  18  19
ATOM     19  O   UNL     1       6.762   6.120  18.122  0.00  0.00    +0.000 OA
BRANCH  19  20
ATOM     20  C   UNL     1       6.411   5.678  16.874  0.00  0.00    +0.000 A 
ATOM     21  C   UNL     1       7.071   4.526  16.439  0.00  0.00    +0.000 A 
ATOM     22  C   UNL     1       6.784   3.973  15.190  0.00  0.00    +0.000 A 
ATOM     23  C   UNL     1       5.821   4.563  14.375  0.00  0.00    +0.000 A 
ATOM     24  C   UNL     1       5.145   5.700  14.810  0.00  0.00    +0.000 A 
ATOM     25  C   UNL     1       5.437   6.258  16.059  0.00  0.00    +0.000 A 
ENDBRANCH  19  20
ENDBRANCH  18  19
ENDBRANCH   6  18
TORSDOF 4
ENDMDL
MODEL 6
REMARK VINA RESULT:      -7.2      4.463      8.241
REMARK  Name = 
REMARK  4 active torsions:
REMARK  status: ('A' for Active; 'I' for Inactive)
REMARK    1  A    between atoms: C_8  and  C_9
REMARK    2  A    between atoms: C_14  and  C_15
REMARK    3  A    between atoms: C_15  and  O_16
REMARK    4  A    between atoms: O_16  and  C_17
REMARK                            x       y       z     vdW  Elec       q    Type
REMARK                         _______ _______ _______ _____ _____    ______ ____
ROOT
ATOM      1  C   UNL     1       4.807   3.971  19.090  0.00  0.00    +0.000 A 
ATOM      2  N   UNL     1       4.866   2.681  19.421  0.00  0.00    +0.000 NA
ATOM      3  N   UNL     1       3.809   2.371  20.271  0.00  0.00    +0.000 NA
ATOM      4  C   UNL     1       3.148   3.480  20.415  0.00  0.00    +0.000 A 
ATOM      5  S   UNL     1       1.743   4.002  21.229  0.00  0.00    +0.000 S 
ATOM      6  C   UNL     1       2.083   5.611  20.537  0.00  0.00    +0.000 A 
ATOM      7  N   UNL     1       3.141   5.741  19.778  0.00  0.00    +0.000 NA
ATOM      8  N   UNL     1       3.709   4.501  19.731  0.00  0.00    +0.000 N 
ENDROOT
BRANCH   1  16
ATOM      9 CL   UNL     1       8.410   7.648  18.611  0.00  0.00    +0.000 Cl
ATOM     10  C   UNL     1       7.406   6.439  17.912  0.00  0.00    +0.000 A 
ATOM     11  C   UNL     1       7.469   6.193  16.549  0.00  0.00    +0.000 A 
ATOM     12  C   UNL     1       6.655   5.206  15.991  0.00  0.00    +0.000 A 
ATOM     13 CL   UNL     1       6.795   4.963  14.281  0.00  0.00    +0.000 Cl
ATOM     14  C   UNL     1       5.776   4.454  16.797  0.00  0.00    +0.000 A 
ATOM     15 CL   UNL     1       4.824   3.197  16.062  0.00  0.00    +0.000 Cl
ATOM     16  C   UNL     1       5.709   4.703  18.187  0.00  0.00    +0.000 A 
ATOM     17  C   UNL     1       6.533   5.715  18.721  0.00  0.00    +0.000 A 
ENDBRANCH   1  16
BRANCH   6  18
ATOM     18  C   UNL     1       1.122   6.728  20.851  0.00  0.00    +0.000 C 
BRANCH  18  19
ATOM     19  O   UNL     1       1.811   7.955  20.623  0.00  0.00    +0.000 OA
BRANCH  19  20
ATOM     20  C   UNL     1       1.030   9.000  20.209  0.00  0.00    +0.000 A 
ATOM     21  C   UNL     1       0.225   9.574  21.197  0.00  0.00    +0.000 A 
ATOM     22  C   UNL     1      -0.603  10.658  20.896  0.00  0.00    +0.000 A 
ATOM     23  C   UNL     1      -0.616  11.184  19.607  0.00  0.00    +0.000 A 
ATOM     24  C   UNL     1       0.198  10.630  18.622  0.00  0.00    +0.000 A 
ATOM     25  C   UNL     1       1.023   9.541  18.922  0.00  0.00    +0.000 A 
ENDBRANCH  19  20
ENDBRANCH  18  19
ENDBRANCH   6  18
TORSDOF 4
ENDMDL
MODEL 7
REMARK VINA RESULT:      -7.2      3.724      6.231
REMARK  Name = 
REMARK  4 active torsions:
REMARK  status: ('A' for Active; 'I' for Inactive)
REMARK    1  A    between atoms: C_8  and  C_9
REMARK    2  A    between atoms: C_14  and  C_15
REMARK    3  A    between atoms: C_15  and  O_16
REMARK    4  A    between atoms: O_16  and  C_17
REMARK                            x       y       z     vdW  Elec       q    Type
REMARK                         _______ _______ _______ _____ _____    ______ ____
ROOT
ATOM      1  C   UNL     1       4.141   4.715  17.684  0.00  0.00    +0.000 A 
ATOM      2  N   UNL     1       4.000   3.946  16.604  0.00  0.00    +0.000 NA
ATOM      3  N   UNL     1       5.087   4.132  15.757  0.00  0.00    +0.000 NA
ATOM      4  C   UNL     1       5.846   4.998  16.357  0.00  0.00    +0.000 A 
ATOM      5  S   UNL     1       7.346   5.760  16.071  0.00  0.00    +0.000 S 
ATOM      6  C   UNL     1       7.090   6.587  17.630  0.00  0.00    +0.000 A 
ATOM      7  N   UNL     1       5.994   6.321  18.293  0.00  0.00    +0.000 NA
ATOM      8  N   UNL     1       5.323   5.405  17.534  0.00  0.00    +0.000 N 
ENDROOT
BRANCH   1  16
ATOM      9 CL   UNL     1       1.315   7.763  20.760  0.00  0.00    +0.000 Cl
ATOM     10  C   UNL     1       1.899   6.203  20.329  0.00  0.00    +0.000 A 
ATOM     11  C   UNL     1       1.515   5.094  21.066  0.00  0.00    +0.000 A 
ATOM     12  C   UNL     1       1.988   3.832  20.706  0.00  0.00    +0.000 A 
ATOM     13 CL   UNL     1       1.462   2.500  21.682  0.00  0.00    +0.000 Cl
ATOM     14  C   UNL     1       2.845   3.671  19.598  0.00  0.00    +0.000 A 
ATOM     15 CL   UNL     1       3.362   2.070  19.156  0.00  0.00    +0.000 Cl
ATOM     16  C   UNL     1       3.239   4.800  18.843  0.00  0.00    +0.000 A 
ATOM     17  C   UNL     1       2.756   6.065  19.238  0.00  0.00    +0.000 A 
ENDBRANCH   1  16
BRANCH   6  18
ATOM     18  C   UNL     1       8.160   7.534  18.106  0.00  0.00    +0.000 C 
BRANCH  18  19
ATOM     19  O   UNL     1       7.858   8.819  17.567  0.00  0.00    +0.000 OA
BRANCH  19  20
ATOM     20  C   UNL     1       8.488   9.874  18.171  0.00  0.00    +0.000 A 
ATOM     21  C   UNL     1       8.298  11.115  17.559  0.00  0.00    +0.000 A 
ATOM     22  C   UNL     1       8.878  12.267  18.093  0.00  0.00    +0.000 A 
ATOM     23  C   UNL     1       9.641  12.183  19.256  0.00  0.00    +0.000 A 
ATOM     24  C   UNL     1       9.818  10.953  19.883  0.00  0.00    +0.000 A 
ATOM     25  C   UNL     1       9.242   9.798  19.344  0.00  0.00    +0.000 A 
ENDBRANCH  19  20
ENDBRANCH  18  19
ENDBRANCH   6  18
TORSDOF 4
ENDMDL
MODEL 8
REMARK VINA RESULT:      -7.1      5.085      8.568
REMARK  Name = 
REMARK  4 active torsions:
REMARK  status: ('A' for Active; 'I' for Inactive)
REMARK    1  A    between atoms: C_8  and  C_9
REMARK    2  A    between atoms: C_14  and  C_15
REMARK    3  A    between atoms: C_15  and  O_16
REMARK    4  A    between atoms: O_16  and  C_17
REMARK                            x       y       z     vdW  Elec       q    Type
REMARK                         _______ _______ _______ _____ _____    ______ ____
ROOT
ATOM      1  C   UNL     1       3.498   5.626  19.222  0.00  0.00    +0.000 A 
ATOM      2  N   UNL     1       3.219   4.618  20.049  0.00  0.00    +0.000 NA
ATOM      3  N   UNL     1       2.188   4.992  20.905  0.00  0.00    +0.000 NA
ATOM      4  C   UNL     1       1.878   6.205  20.559  0.00  0.00    +0.000 A 
ATOM      5  S   UNL     1       0.744   7.390  21.031  0.00  0.00    +0.000 S 
ATOM      6  C   UNL     1       1.467   8.416  19.763  0.00  0.00    +0.000 A 
ATOM      7  N   UNL     1       2.455   7.921  19.063  0.00  0.00    +0.000 NA
ATOM      8  N   UNL     1       2.647   6.659  19.546  0.00  0.00    +0.000 N 
ENDROOT
BRANCH   1  16
ATOM      9 CL   UNL     1       7.851   7.718  17.375  0.00  0.00    +0.000 Cl
ATOM     10  C   UNL     1       6.543   6.611  17.224  0.00  0.00    +0.000 A 
ATOM     11  C   UNL     1       6.464   5.784  16.115  0.00  0.00    +0.000 A 
ATOM     12  C   UNL     1       5.403   4.883  16.003  0.00  0.00    +0.000 A 
ATOM     13 CL   UNL     1       5.378   3.889  14.584  0.00  0.00    +0.000 Cl
ATOM     14  C   UNL     1       4.418   4.801  17.008  0.00  0.00    +0.000 A 
ATOM     15 CL   UNL     1       3.147   3.623  16.848  0.00  0.00    +0.000 Cl
ATOM     16  C   UNL     1       4.495   5.643  18.141  0.00  0.00    +0.000 A 
ATOM     17  C   UNL     1       5.571   6.552  18.221  0.00  0.00    +0.000 A 
ENDBRANCH   1  16
BRANCH   6  18
ATOM     18  C   UNL     1       0.886   9.791  19.557  0.00  0.00    +0.000 C 
BRANCH  18  19
ATOM     19  O   UNL     1       0.305   9.813  18.255  0.00  0.00    +0.000 OA
BRANCH  19  20
ATOM     20  C   UNL     1      -0.945  10.367  18.178  0.00  0.00    +0.000 A 
ATOM     21  C   UNL     1      -1.757   9.873  17.154  0.00  0.00    +0.000 A 
ATOM     22  C   UNL     1      -3.058  10.350  16.987  0.00  0.00    +0.000 A 
ATOM     23  C   UNL     1      -3.560  11.316  17.856  0.00  0.00    +0.000 A 
ATOM     24  C   UNL     1      -2.764  11.799  18.892  0.00  0.00    +0.000 A 
ATOM     25  C   UNL     1      -1.458  11.325  19.056  0.00  0.00    +0.000 A 
ENDBRANCH  19  20
ENDBRANCH  18  19
ENDBRANCH   6  18
TORSDOF 4
ENDMDL
MODEL 9
REMARK VINA RESULT:      -7.1      6.196     10.670
REMARK  Name = 
REMARK  4 active torsions:
REMARK  status: ('A' for Active; 'I' for Inactive)
REMARK    1  A    between atoms: C_8  and  C_9
REMARK    2  A    between atoms: C_14  and  C_15
REMARK    3  A    between atoms: C_15  and  O_16
REMARK    4  A    between atoms: O_16  and  C_17
REMARK                            x       y       z     vdW  Elec       q    Type
REMARK                         _______ _______ _______ _____ _____    ______ ____
ROOT
ATOM      1  C   UNL     1       2.237   7.956  18.617  0.00  0.00    +0.000 A 
ATOM      2  N   UNL     1       2.398   8.618  17.471  0.00  0.00    +0.000 NA
ATOM      3  N   UNL     1       1.791   9.866  17.568  0.00  0.00    +0.000 NA
ATOM      4  C   UNL     1       1.295   9.914  18.767  0.00  0.00    +0.000 A 
ATOM      5  S   UNL     1       0.438  11.038  19.723  0.00  0.00    +0.000 S 
ATOM      6  C   UNL     1       0.470   9.795  21.003  0.00  0.00    +0.000 A 
ATOM      7  N   UNL     1       1.059   8.657  20.738  0.00  0.00    +0.000 NA
ATOM      8  N   UNL     1       1.520   8.776  19.459  0.00  0.00    +0.000 N 
ENDROOT
BRANCH   1  16
ATOM      9 CL   UNL     1       1.492   3.566  21.247  0.00  0.00    +0.000 Cl
ATOM     10  C   UNL     1       2.444   4.531  20.187  0.00  0.00    +0.000 A 
ATOM     11  C   UNL     1       3.641   4.037  19.691  0.00  0.00    +0.000 A 
ATOM     12  C   UNL     1       4.403   4.824  18.827  0.00  0.00    +0.000 A 
ATOM     13 CL   UNL     1       5.885   4.131  18.254  0.00  0.00    +0.000 Cl
ATOM     14  C   UNL     1       3.969   6.110  18.448  0.00  0.00    +0.000 A 
ATOM     15 CL   UNL     1       4.929   7.029  17.325  0.00  0.00    +0.000 Cl
ATOM     16  C   UNL     1       2.749   6.618  18.953  0.00  0.00    +0.000 A 
ATOM     17  C   UNL     1       2.006   5.806  19.834  0.00  0.00    +0.000 A 
ENDBRANCH   1  16
BRANCH   6  18
ATOM     18  C   UNL     1      -0.169  10.133  22.325  0.00  0.00    +0.000 C 
BRANCH  18  19
ATOM     19  O   UNL     1       0.017  11.530  22.539  0.00  0.00    +0.000 OA
BRANCH  19  20
ATOM     20  C   UNL     1      -1.096  12.215  22.950  0.00  0.00    +0.000 A 
ATOM     21  C   UNL     1      -0.961  13.605  22.992  0.00  0.00    +0.000 A 
ATOM     22  C   UNL     1      -2.034  14.410  23.381  0.00  0.00    +0.000 A 
ATOM     23  C   UNL     1      -3.254  13.827  23.715  0.00  0.00    +0.000 A 
ATOM     24  C   UNL     1      -3.401  12.443  23.655  0.00  0.00    +0.000 A 
ATOM     25  C   UNL     1      -2.325  11.637  23.272  0.00  0.00    +0.000 A 
ENDBRANCH  19  20
ENDBRANCH  18  19
ENDBRANCH   6  18
TORSDOF 4
ENDMDL
