MODEL 1
REMARK VINA RESULT:      -6.2      0.000      0.000
REMARK  Name = 
REMARK  11 active torsions:
REMARK  status: ('A' for Active; 'I' for Inactive)
REMARK    1  A    between atoms: C_1  and  C_2
REMARK    2  A    between atoms: C_4  and  C_5
REMARK    3  A    between atoms: C_5  and  C_6
REMARK    4  A    between atoms: C_5  and  N_7
REMARK    5  A    between atoms: N_7  and  C_8
REMARK    6  A    between atoms: C_8  and  C_9
REMARK    7  A    between atoms: C_9  and  C_10
REMARK    8  A    between atoms: C_10  and  N_11
REMARK    9  A    between atoms: N_11  and  S_12
REMARK   10  A    between atoms: S_12  and  C_13
REMARK   11  A    between atoms: C_17  and  C_18
REMARK                            x       y       z     vdW  Elec       q    Type
REMARK                         _______ _______ _______ _____ _____    ______ ____
ROOT
ATOM      1  C   UNL     1       2.794   6.372  18.423  0.00  0.00    +0.000 C 
ATOM      2  C   UNL     1       2.295   7.777  18.062  0.00  0.00    +0.000 C 
ENDROOT
BRANCH   1   6
ATOM      3  C   UNL     1       7.690   7.374  17.619  0.00  0.00    +0.000 C 
ATOM      4  C   UNL     1       6.482   6.519  17.381  0.00  0.00    +0.000 A 
ATOM      5  C   UNL     1       5.265   6.775  18.026  0.00  0.00    +0.000 A 
ATOM      6  C   UNL     1       4.116   6.002  17.757  0.00  0.00    +0.000 A 
ATOM      7  C   UNL     1       4.218   4.959  16.823  0.00  0.00    +0.000 A 
ATOM      8  C   UNL     1       5.432   4.672  16.185  0.00  0.00    +0.000 A 
ATOM      9  C   UNL     1       5.539   3.557  15.190  0.00  0.00    +0.000 C 
ATOM     10  C   UNL     1       6.549   5.462  16.469  0.00  0.00    +0.000 A 
ATOM     11  F   UNL     1       7.707   5.212  15.840  0.00  0.00    +0.000 F 
ENDBRANCH   1   6
BRANCH   1  12
ATOM     12  N   UNL     1       2.938   6.190  19.876  0.00  0.00    +0.000 NA
ATOM     13  H   UNL     1       2.988   7.108  20.316  0.00  0.00    +0.000 HD
BRANCH  12  14
ATOM     14  C   UNL     1       1.894   5.393  20.524  0.00  0.00    +0.000 C 
BRANCH  14  15
ATOM     15  C   UNL     1       1.215   4.385  19.592  0.00  0.00    +0.000 C 
BRANCH  15  16
ATOM     16  C   UNL     1       1.975   3.063  19.591  0.00  0.00    +0.000 C 
BRANCH  16  17
ATOM     17  N   UNL     1       3.111   3.118  20.514  0.00  0.00    +0.000 NA
ATOM     18  H   UNL     1       2.921   2.978  21.507  0.00  0.00    +0.000 HD
BRANCH  17  19
ATOM     19  S   UNL     1       4.543   2.394  20.028  0.00  0.00    +0.000 S 
ATOM     20  C   UNL     1       4.007   1.337  18.689  0.00  0.00    +0.000 C 
ATOM     21  O   UNL     1       5.405   3.418  19.478  0.00  0.00    +0.000 OA
ATOM     22  O   UNL     1       4.958   1.551  21.125  0.00  0.00    +0.000 OA
ENDBRANCH  17  19
ENDBRANCH  16  17
ENDBRANCH  15  16
ENDBRANCH  14  15
ENDBRANCH  12  14
ENDBRANCH   1  12
TORSDOF 7
ENDMDL
MODEL 2
REMARK VINA RESULT:      -6.0      0.865      2.139
REMARK  Name = 
REMARK  11 active torsions:
REMARK  status: ('A' for Active; 'I' for Inactive)
REMARK    1  A    between atoms: C_1  and  C_2
REMARK    2  A    between atoms: C_4  and  C_5
REMARK    3  A    between atoms: C_5  and  C_6
REMARK    4  A    between atoms: C_5  and  N_7
REMARK    5  A    between atoms: N_7  and  C_8
REMARK    6  A    between atoms: C_8  and  C_9
REMARK    7  A    between atoms: C_9  and  C_10
REMARK    8  A    between atoms: C_10  and  N_11
REMARK    9  A    between atoms: N_11  and  S_12
REMARK   10  A    between atoms: S_12  and  C_13
REMARK   11  A    between atoms: C_17  and  C_18
REMARK                            x       y       z     vdW  Elec       q    Type
REMARK                         _______ _______ _______ _____ _____    ______ ____
ROOT
ATOM      1  C   UNL     1       2.601   5.917  18.063  0.00  0.00    +0.000 C 
ATOM      2  C   UNL     1       2.467   7.005  19.136  0.00  0.00    +0.000 C 
ENDROOT
BRANCH   1   6
ATOM      3  C   UNL     1       5.873   3.594  14.978  0.00  0.00    +0.000 C 
ATOM      4  C   UNL     1       5.541   4.718  15.912  0.00  0.00    +0.000 A 
ATOM      5  C   UNL     1       4.268   4.844  16.484  0.00  0.00    +0.000 A 
ATOM      6  C   UNL     1       3.977   5.871  17.405  0.00  0.00    +0.000 A 
ATOM      7  C   UNL     1       4.997   6.777  17.739  0.00  0.00    +0.000 A 
ATOM      8  C   UNL     1       6.269   6.682  17.160  0.00  0.00    +0.000 A 
ATOM      9  C   UNL     1       7.355   7.651  17.516  0.00  0.00    +0.000 C 
ATOM     10  C   UNL     1       6.526   5.648  16.257  0.00  0.00    +0.000 A 
ATOM     11  F   UNL     1       7.751   5.534  15.721  0.00  0.00    +0.000 F 
ENDBRANCH   1   6
BRANCH   1  12
ATOM     12  N   UNL     1       2.291   4.578  18.589  0.00  0.00    +0.000 NA
ATOM     13  H   UNL     1       3.114   4.219  19.073  0.00  0.00    +0.000 HD
BRANCH  12  14
ATOM     14  C   UNL     1       1.128   4.495  19.473  0.00  0.00    +0.000 C 
BRANCH  14  15
ATOM     15  C   UNL     1       1.231   3.390  20.530  0.00  0.00    +0.000 C 
BRANCH  15  16
ATOM     16  C   UNL     1       2.502   3.557  21.355  0.00  0.00    +0.000 C 
BRANCH  16  17
ATOM     17  N   UNL     1       3.285   2.319  21.356  0.00  0.00    +0.000 NA
ATOM     18  H   UNL     1       2.785   1.444  21.517  0.00  0.00    +0.000 HD
BRANCH  17  19
ATOM     19  S   UNL     1       4.493   2.163  20.204  0.00  0.00    +0.000 S 
ATOM     20  C   UNL     1       3.634   1.380  18.845  0.00  0.00    +0.000 C 
ATOM     21  O   UNL     1       4.891   3.489  19.783  0.00  0.00    +0.000 OA
ATOM     22  O   UNL     1       5.439   1.213  20.742  0.00  0.00    +0.000 OA
ENDBRANCH  17  19
ENDBRANCH  16  17
ENDBRANCH  15  16
ENDBRANCH  14  15
ENDBRANCH  12  14
ENDBRANCH   1  12
TORSDOF 7
ENDMDL
MODEL 3
REMARK VINA RESULT:      -6.0      5.555      7.719
REMARK  Name = 
REMARK  11 active torsions:
REMARK  status: ('A' for Active; 'I' for Inactive)
REMARK    1  A    between atoms: C_1  and  C_2
REMARK    2  A    between atoms: C_4  and  C_5
REMARK    3  A    between atoms: C_5  and  C_6
REMARK    4  A    between atoms: C_5  and  N_7
REMARK    5  A    between atoms: N_7  and  C_8
REMARK    6  A    between atoms: C_8  and  C_9
REMARK    7  A    between atoms: C_9  and  C_10
REMARK    8  A    between atoms: C_10  and  N_11
REMARK    9  A    between atoms: N_11  and  S_12
REMARK   10  A    between atoms: S_12  and  C_13
REMARK   11  A    between atoms: C_17  and  C_18
REMARK                            x       y       z     vdW  Elec       q    Type
REMARK                         _______ _______ _______ _____ _____    ______ ____
ROOT
ATOM      1  C   UNL     1       7.139   6.070  17.681  0.00  0.00    +0.000 C 
ATOM      2  C   UNL     1       7.824   5.746  19.015  0.00  0.00    +0.000 C 
ENDROOT
BRANCH   1   6
ATOM      3  C   UNL     1       2.363   7.710  18.036  0.00  0.00    +0.000 C 
ATOM      4  C   UNL     1       3.343   6.590  17.856  0.00  0.00    +0.000 A 
ATOM      5  C   UNL     1       4.723   6.827  17.785  0.00  0.00    +0.000 A 
ATOM      6  C   UNL     1       5.644   5.766  17.671  0.00  0.00    +0.000 A 
ATOM      7  C   UNL     1       5.147   4.453  17.624  0.00  0.00    +0.000 A 
ATOM      8  C   UNL     1       3.770   4.197  17.669  0.00  0.00    +0.000 A 
ATOM      9  C   UNL     1       3.243   2.796  17.618  0.00  0.00    +0.000 C 
ATOM     10  C   UNL     1       2.885   5.271  17.790  0.00  0.00    +0.000 A 
ATOM     11  F   UNL     1       1.568   5.031  17.864  0.00  0.00    +0.000 F 
ENDBRANCH   1   6
BRANCH   1  12
ATOM     12  N   UNL     1       7.331   7.474  17.285  0.00  0.00    +0.000 NA
ATOM     13  H   UNL     1       6.423   7.937  17.272  0.00  0.00    +0.000 HD
BRANCH  12  14
ATOM     14  C   UNL     1       8.261   8.247  18.111  0.00  0.00    +0.000 C 
BRANCH  14  15
ATOM     15  C   UNL     1       8.177   9.761  17.889  0.00  0.00    +0.000 C 
BRANCH  15  16
ATOM     16  C   UNL     1       9.237  10.481  18.714  0.00  0.00    +0.000 C 
BRANCH  16  17
ATOM     17  N   UNL     1      10.093  11.300  17.852  0.00  0.00    +0.000 NA
ATOM     18  H   UNL     1       9.659  11.755  17.049  0.00  0.00    +0.000 HD
BRANCH  17  19
ATOM     19  S   UNL     1      11.239  12.273  18.596  0.00  0.00    +0.000 S 
ATOM     20  C   UNL     1      11.998  13.107  17.209  0.00  0.00    +0.000 C 
ATOM     21  O   UNL     1      10.546  13.261  19.393  0.00  0.00    +0.000 OA
ATOM     22  O   UNL     1      12.216  11.375  19.167  0.00  0.00    +0.000 OA
ENDBRANCH  17  19
ENDBRANCH  16  17
ENDBRANCH  15  16
ENDBRANCH  14  15
ENDBRANCH  12  14
ENDBRANCH   1  12
TORSDOF 7
ENDMDL
MODEL 4
REMARK VINA RESULT:      -6.0      2.498      3.623
REMARK  Name = 
REMARK  11 active torsions:
REMARK  status: ('A' for Active; 'I' for Inactive)
REMARK    1  A    between atoms: C_1  and  C_2
REMARK    2  A    between atoms: C_4  and  C_5
REMARK    3  A    between atoms: C_5  and  C_6
REMARK    4  A    between atoms: C_5  and  N_7
REMARK    5  A    between atoms: N_7  and  C_8
REMARK    6  A    between atoms: C_8  and  C_9
REMARK    7  A    between atoms: C_9  and  C_10
REMARK    8  A    between atoms: C_10  and  N_11
REMARK    9  A    between atoms: N_11  and  S_12
REMARK   10  A    between atoms: S_12  and  C_13
REMARK   11  A    between atoms: C_17  and  C_18
REMARK                            x       y       z     vdW  Elec       q    Type
REMARK                         _______ _______ _______ _____ _____    ______ ____
ROOT
ATOM      1  C   UNL     1       3.828   2.800  19.008  0.00  0.00    +0.000 C 
ATOM      2  C   UNL     1       3.437   1.470  18.351  0.00  0.00    +0.000 C 
ENDROOT
BRANCH   1   6
ATOM      3  C   UNL     1       7.745   6.003  18.904  0.00  0.00    +0.000 C 
ATOM      4  C   UNL     1       6.731   5.166  18.185  0.00  0.00    +0.000 A 
ATOM      5  C   UNL     1       5.828   4.351  18.880  0.00  0.00    +0.000 A 
ATOM      6  C   UNL     1       4.840   3.608  18.202  0.00  0.00    +0.000 A 
ATOM      7  C   UNL     1       4.781   3.699  16.802  0.00  0.00    +0.000 A 
ATOM      8  C   UNL     1       5.690   4.490  16.087  0.00  0.00    +0.000 A 
ATOM      9  C   UNL     1       5.625   4.584  14.593  0.00  0.00    +0.000 C 
ATOM     10  C   UNL     1       6.651   5.219  16.791  0.00  0.00    +0.000 A 
ATOM     11  F   UNL     1       7.506   6.002  16.115  0.00  0.00    +0.000 F 
ENDBRANCH   1   6
BRANCH   1  12
ATOM     12  N   UNL     1       2.658   3.652  19.274  0.00  0.00    +0.000 NA
ATOM     13  H   UNL     1       1.813   3.120  19.067  0.00  0.00    +0.000 HD
BRANCH  12  14
ATOM     14  C   UNL     1       2.567   4.205  20.627  0.00  0.00    +0.000 C 
BRANCH  14  15
ATOM     15  C   UNL     1       1.367   5.135  20.837  0.00  0.00    +0.000 C 
BRANCH  15  16
ATOM     16  C   UNL     1       1.766   6.586  20.589  0.00  0.00    +0.000 C 
BRANCH  16  17
ATOM     17  N   UNL     1       2.995   6.656  19.795  0.00  0.00    +0.000 NA
ATOM     18  H   UNL     1       3.708   5.946  19.964  0.00  0.00    +0.000 HD
BRANCH  17  19
ATOM     19  S   UNL     1       2.848   7.043  18.170  0.00  0.00    +0.000 S 
ATOM     20  C   UNL     1       1.877   8.543  18.215  0.00  0.00    +0.000 C 
ATOM     21  O   UNL     1       4.163   7.370  17.662  0.00  0.00    +0.000 OA
ATOM     22  O   UNL     1       2.036   6.002  17.583  0.00  0.00    +0.000 OA
ENDBRANCH  17  19
ENDBRANCH  16  17
ENDBRANCH  15  16
ENDBRANCH  14  15
ENDBRANCH  12  14
ENDBRANCH   1  12
TORSDOF 7
ENDMDL
MODEL 5
REMARK VINA RESULT:      -5.9      3.586      5.746
REMARK  Name = 
REMARK  11 active torsions:
REMARK  status: ('A' for Active; 'I' for Inactive)
REMARK    1  A    between atoms: C_1  and  C_2
REMARK    2  A    between atoms: C_4  and  C_5
REMARK    3  A    between atoms: C_5  and  C_6
REMARK    4  A    between atoms: C_5  and  N_7
REMARK    5  A    between atoms: N_7  and  C_8
REMARK    6  A    between atoms: C_8  and  C_9
REMARK    7  A    between atoms: C_9  and  C_10
REMARK    8  A    between atoms: C_10  and  N_11
REMARK    9  A    between atoms: N_11  and  S_12
REMARK   10  A    between atoms: S_12  and  C_13
REMARK   11  A    between atoms: C_17  and  C_18
REMARK                            x       y       z     vdW  Elec       q    Type
REMARK                         _______ _______ _______ _____ _____    ______ ____
ROOT
ATOM      1  C   UNL     1       2.362   5.451  19.834  0.00  0.00    +0.000 C 
ATOM      2  C   UNL     1       1.698   4.559  20.891  0.00  0.00    +0.000 C 
ENDROOT
BRANCH   1   6
ATOM      3  C   UNL     1      -0.029   9.163  22.310  0.00  0.00    +0.000 C 
ATOM      4  C   UNL     1       0.755   8.686  21.125  0.00  0.00    +0.000 A 
ATOM      5  C   UNL     1       1.238   7.372  21.047  0.00  0.00    +0.000 A 
ATOM      6  C   UNL     1       1.928   6.912  19.906  0.00  0.00    +0.000 A 
ATOM      7  C   UNL     1       2.126   7.806  18.841  0.00  0.00    +0.000 A 
ATOM      8  C   UNL     1       1.672   9.130  18.910  0.00  0.00    +0.000 A 
ATOM      9  C   UNL     1       1.887  10.081  17.773  0.00  0.00    +0.000 C 
ATOM     10  C   UNL     1       0.986   9.550  20.052  0.00  0.00    +0.000 A 
ATOM     11  F   UNL     1       0.522  10.808  20.112  0.00  0.00    +0.000 F 
ENDBRANCH   1   6
BRANCH   1  12
ATOM     12  N   UNL     1       3.830   5.397  19.905  0.00  0.00    +0.000 NA
ATOM     13  H   UNL     1       4.111   5.430  20.885  0.00  0.00    +0.000 HD
BRANCH  12  14
ATOM     14  C   UNL     1       4.457   4.245  19.255  0.00  0.00    +0.000 C 
BRANCH  14  15
ATOM     15  C   UNL     1       3.829   3.875  17.907  0.00  0.00    +0.000 C 
BRANCH  15  16
ATOM     16  C   UNL     1       4.305   4.828  16.817  0.00  0.00    +0.000 C 
BRANCH  16  17
ATOM     17  N   UNL     1       5.437   5.629  17.289  0.00  0.00    +0.000 NA
ATOM     18  H   UNL     1       5.491   5.830  18.288  0.00  0.00    +0.000 HD
BRANCH  17  19
ATOM     19  S   UNL     1       6.942   5.319  16.616  0.00  0.00    +0.000 S 
ATOM     20  C   UNL     1       7.848   4.631  17.996  0.00  0.00    +0.000 C 
ATOM     21  O   UNL     1       6.786   4.284  15.617  0.00  0.00    +0.000 OA
ATOM     22  O   UNL     1       7.514   6.608  16.303  0.00  0.00    +0.000 OA
ENDBRANCH  17  19
ENDBRANCH  16  17
ENDBRANCH  15  16
ENDBRANCH  14  15
ENDBRANCH  12  14
ENDBRANCH   1  12
TORSDOF 7
ENDMDL
MODEL 6
REMARK VINA RESULT:      -5.9      3.868      6.107
REMARK  Name = 
REMARK  11 active torsions:
REMARK  status: ('A' for Active; 'I' for Inactive)
REMARK    1  A    between atoms: C_1  and  C_2
REMARK    2  A    between atoms: C_4  and  C_5
REMARK    3  A    between atoms: C_5  and  C_6
REMARK    4  A    between atoms: C_5  and  N_7
REMARK    5  A    between atoms: N_7  and  C_8
REMARK    6  A    between atoms: C_8  and  C_9
REMARK    7  A    between atoms: C_9  and  C_10
REMARK    8  A    between atoms: C_10  and  N_11
REMARK    9  A    between atoms: N_11  and  S_12
REMARK   10  A    between atoms: S_12  and  C_13
REMARK   11  A    between atoms: C_17  and  C_18
REMARK                            x       y       z     vdW  Elec       q    Type
REMARK                         _______ _______ _______ _____ _____    ______ ____
ROOT
ATOM      1  C   UNL     1       2.649   5.485  19.777  0.00  0.00    +0.000 C 
ATOM      2  C   UNL     1       2.241   4.535  20.910  0.00  0.00    +0.000 C 
ENDROOT
BRANCH   1   6
ATOM      3  C   UNL     1       1.921  10.096  17.818  0.00  0.00    +0.000 C 
ATOM      4  C   UNL     1       1.678   9.092  18.904  0.00  0.00    +0.000 A 
ATOM      5  C   UNL     1       2.188   7.789  18.825  0.00  0.00    +0.000 A 
ATOM      6  C   UNL     1       2.004   6.865  19.874  0.00  0.00    +0.000 A 
ATOM      7  C   UNL     1       1.289   7.279  21.010  0.00  0.00    +0.000 A 
ATOM      8  C   UNL     1       0.750   8.570  21.098  0.00  0.00    +0.000 A 
ATOM      9  C   UNL     1      -0.013   9.008  22.310  0.00  0.00    +0.000 C 
ATOM     10  C   UNL     1       0.958   9.462  20.044  0.00  0.00    +0.000 A 
ATOM     11  F   UNL     1       0.471  10.709  20.134  0.00  0.00    +0.000 F 
ENDBRANCH   1   6
BRANCH   1  12
ATOM     12  N   UNL     1       4.107   5.658  19.696  0.00  0.00    +0.000 NA
ATOM     13  H   UNL     1       4.526   5.317  20.561  0.00  0.00    +0.000 HD
BRANCH  12  14
ATOM     14  C   UNL     1       4.761   5.020  18.552  0.00  0.00    +0.000 C 
BRANCH  14  15
ATOM     15  C   UNL     1       6.210   4.600  18.821  0.00  0.00    +0.000 C 
BRANCH  15  16
ATOM     16  C   UNL     1       7.113   5.029  17.670  0.00  0.00    +0.000 C 
BRANCH  16  17
ATOM     17  N   UNL     1       6.816   4.254  16.463  0.00  0.00    +0.000 NA
ATOM     18  H   UNL     1       6.170   3.470  16.551  0.00  0.00    +0.000 HD
BRANCH  17  19
ATOM     19  S   UNL     1       6.605   5.100  15.030  0.00  0.00    +0.000 S 
ATOM     20  C   UNL     1       5.910   3.859  13.947  0.00  0.00    +0.000 C 
ATOM     21  O   UNL     1       5.603   6.120  15.250  0.00  0.00    +0.000 OA
ATOM     22  O   UNL     1       7.932   5.418  14.554  0.00  0.00    +0.000 OA
ENDBRANCH  17  19
ENDBRANCH  16  17
ENDBRANCH  15  16
ENDBRANCH  14  15
ENDBRANCH  12  14
ENDBRANCH   1  12
TORSDOF 7
ENDMDL
MODEL 7
REMARK VINA RESULT:      -5.9      0.818      2.158
REMARK  Name = 
REMARK  11 active torsions:
REMARK  status: ('A' for Active; 'I' for Inactive)
REMARK    1  A    between atoms: C_1  and  C_2
REMARK    2  A    between atoms: C_4  and  C_5
REMARK    3  A    between atoms: C_5  and  C_6
REMARK    4  A    between atoms: C_5  and  N_7
REMARK    5  A    between atoms: N_7  and  C_8
REMARK    6  A    between atoms: C_8  and  C_9
REMARK    7  A    between atoms: C_9  and  C_10
REMARK    8  A    between atoms: C_10  and  N_11
REMARK    9  A    between atoms: N_11  and  S_12
REMARK   10  A    between atoms: S_12  and  C_13
REMARK   11  A    between atoms: C_17  and  C_18
REMARK                            x       y       z     vdW  Elec       q    Type
REMARK                         _______ _______ _______ _____ _____    ______ ____
ROOT
ATOM      1  C   UNL     1       2.747   6.497  18.536  0.00  0.00    +0.000 C 
ATOM      2  C   UNL     1       2.141   7.882  18.273  0.00  0.00    +0.000 C 
ENDROOT
BRANCH   1   6
ATOM      3  C   UNL     1       5.426   3.668  15.305  0.00  0.00    +0.000 C 
ATOM      4  C   UNL     1       5.323   4.851  16.220  0.00  0.00    +0.000 A 
ATOM      5  C   UNL     1       4.126   5.165  16.879  0.00  0.00    +0.000 A 
ATOM      6  C   UNL     1       4.049   6.246  17.781  0.00  0.00    +0.000 A 
ATOM      7  C   UNL     1       5.205   7.011  18.006  0.00  0.00    +0.000 A 
ATOM      8  C   UNL     1       6.404   6.728  17.339  0.00  0.00    +0.000 A 
ATOM      9  C   UNL     1       7.635   7.546  17.580  0.00  0.00    +0.000 C 
ATOM     10  C   UNL     1       6.448   5.645  16.458  0.00  0.00    +0.000 A 
ATOM     11  F   UNL     1       7.601   5.349  15.838  0.00  0.00    +0.000 F 
ENDBRANCH   1   6
BRANCH   1  12
ATOM     12  N   UNL     1       2.985   6.259  19.968  0.00  0.00    +0.000 NA
ATOM     13  H   UNL     1       3.123   7.157  20.430  0.00  0.00    +0.000 HD
BRANCH  12  14
ATOM     14  C   UNL     1       1.946   5.503  20.669  0.00  0.00    +0.000 C 
BRANCH  14  15
ATOM     15  C   UNL     1       1.212   4.491  19.784  0.00  0.00    +0.000 C 
BRANCH  15  16
ATOM     16  C   UNL     1       1.750   3.084  20.022  0.00  0.00    +0.000 C 
BRANCH  16  17
ATOM     17  N   UNL     1       3.093   3.136  20.605  0.00  0.00    +0.000 NA
ATOM     18  H   UNL     1       3.184   2.935  21.601  0.00  0.00    +0.000 HD
BRANCH  17  19
ATOM     19  S   UNL     1       4.356   2.497  19.705  0.00  0.00    +0.000 S 
ATOM     20  C   UNL     1       5.053   1.287  20.821  0.00  0.00    +0.000 C 
ATOM     21  O   UNL     1       3.793   1.796  18.571  0.00  0.00    +0.000 OA
ATOM     22  O   UNL     1       5.315   3.566  19.548  0.00  0.00    +0.000 OA
ENDBRANCH  17  19
ENDBRANCH  16  17
ENDBRANCH  15  16
ENDBRANCH  14  15
ENDBRANCH  12  14
ENDBRANCH   1  12
TORSDOF 7
ENDMDL
MODEL 8
REMARK VINA RESULT:      -5.9      3.557      5.485
REMARK  Name = 
REMARK  11 active torsions:
REMARK  status: ('A' for Active; 'I' for Inactive)
REMARK    1  A    between atoms: C_1  and  C_2
REMARK    2  A    between atoms: C_4  and  C_5
REMARK    3  A    between atoms: C_5  and  C_6
REMARK    4  A    between atoms: C_5  and  N_7
REMARK    5  A    between atoms: N_7  and  C_8
REMARK    6  A    between atoms: C_8  and  C_9
REMARK    7  A    between atoms: C_9  and  C_10
REMARK    8  A    between atoms: C_10  and  N_11
REMARK    9  A    between atoms: N_11  and  S_12
REMARK   10  A    between atoms: S_12  and  C_13
REMARK   11  A    between atoms: C_17  and  C_18
REMARK                            x       y       z     vdW  Elec       q    Type
REMARK                         _______ _______ _______ _____ _____    ______ ____
ROOT
ATOM      1  C   UNL     1       3.705   6.653  18.680  0.00  0.00    +0.000 C 
ATOM      2  C   UNL     1       2.574   7.661  18.440  0.00  0.00    +0.000 C 
ENDROOT
BRANCH   1   6
ATOM      3  C   UNL     1       2.630   1.987  17.039  0.00  0.00    +0.000 C 
ATOM      4  C   UNL     1       2.694   2.992  18.149  0.00  0.00    +0.000 A 
ATOM      5  C   UNL     1       3.207   4.280  17.944  0.00  0.00    +0.000 A 
ATOM      6  C   UNL     1       3.214   5.240  18.977  0.00  0.00    +0.000 A 
ATOM      7  C   UNL     1       2.696   4.874  20.230  0.00  0.00    +0.000 A 
ATOM      8  C   UNL     1       2.202   3.584  20.463  0.00  0.00    +0.000 A 
ATOM      9  C   UNL     1       1.651   3.196  21.801  0.00  0.00    +0.000 C 
ATOM     10  C   UNL     1       2.202   2.660  19.415  0.00  0.00    +0.000 A 
ATOM     11  F   UNL     1       1.703   1.432  19.622  0.00  0.00    +0.000 F 
ENDBRANCH   1   6
BRANCH   1  12
ATOM     12  N   UNL     1       4.643   6.593  17.548  0.00  0.00    +0.000 NA
ATOM     13  H   UNL     1       4.422   7.348  16.900  0.00  0.00    +0.000 HD
BRANCH  12  14
ATOM     14  C   UNL     1       6.064   6.646  17.895  0.00  0.00    +0.000 C 
BRANCH  14  15
ATOM     15  C   UNL     1       6.626   5.319  18.416  0.00  0.00    +0.000 C 
BRANCH  15  16
ATOM     16  C   UNL     1       7.351   4.572  17.302  0.00  0.00    +0.000 C 
BRANCH  16  17
ATOM     17  N   UNL     1       6.416   4.194  16.239  0.00  0.00    +0.000 NA
ATOM     18  H   UNL     1       5.450   4.004  16.505  0.00  0.00    +0.000 HD
BRANCH  17  19
ATOM     19  S   UNL     1       6.530   5.012  14.779  0.00  0.00    +0.000 S 
ATOM     20  C   UNL     1       6.116   3.742  13.591  0.00  0.00    +0.000 C 
ATOM     21  O   UNL     1       5.493   6.020  14.743  0.00  0.00    +0.000 OA
ATOM     22  O   UNL     1       7.927   5.342  14.614  0.00  0.00    +0.000 OA
ENDBRANCH  17  19
ENDBRANCH  16  17
ENDBRANCH  15  16
ENDBRANCH  14  15
ENDBRANCH  12  14
ENDBRANCH   1  12
TORSDOF 7
ENDMDL
MODEL 9
REMARK VINA RESULT:      -5.9      3.455      4.609
REMARK  Name = 
REMARK  11 active torsions:
REMARK  status: ('A' for Active; 'I' for Inactive)
REMARK    1  A    between atoms: C_1  and  C_2
REMARK    2  A    between atoms: C_4  and  C_5
REMARK    3  A    between atoms: C_5  and  C_6
REMARK    4  A    between atoms: C_5  and  N_7
REMARK    5  A    between atoms: N_7  and  C_8
REMARK    6  A    between atoms: C_8  and  C_9
REMARK    7  A    between atoms: C_9  and  C_10
REMARK    8  A    between atoms: C_10  and  N_11
REMARK    9  A    between atoms: N_11  and  S_12
REMARK   10  A    between atoms: S_12  and  C_13
REMARK   11  A    between atoms: C_17  and  C_18
REMARK                            x       y       z     vdW  Elec       q    Type
REMARK                         _______ _______ _______ _____ _____    ______ ____
ROOT
ATOM      1  C   UNL     1       3.236   3.469  19.012  0.00  0.00    +0.000 C 
ATOM      2  C   UNL     1       2.694   2.112  18.545  0.00  0.00    +0.000 C 
ENDROOT
BRANCH   1   6
ATOM      3  C   UNL     1       7.730   5.790  18.804  0.00  0.00    +0.000 C 
ATOM      4  C   UNL     1       6.585   5.111  18.116  0.00  0.00    +0.000 A 
ATOM      5  C   UNL     1       5.515   4.564  18.839  0.00  0.00    +0.000 A 
ATOM      6  C   UNL     1       4.414   3.975  18.184  0.00  0.00    +0.000 A 
ATOM      7  C   UNL     1       4.411   3.943  16.780  0.00  0.00    +0.000 A 
ATOM      8  C   UNL     1       5.482   4.462  16.040  0.00  0.00    +0.000 A 
ATOM      9  C   UNL     1       5.477   4.426  14.543  0.00  0.00    +0.000 C 
ATOM     10  C   UNL     1       6.554   5.046  16.720  0.00  0.00    +0.000 A 
ATOM     11  F   UNL     1       7.568   5.572  16.017  0.00  0.00    +0.000 F 
ENDBRANCH   1   6
BRANCH   1  12
ATOM     12  N   UNL     1       2.195   4.508  19.025  0.00  0.00    +0.000 NA
ATOM     13  H   UNL     1       1.379   4.147  19.519  0.00  0.00    +0.000 HD
BRANCH  12  14
ATOM     14  C   UNL     1       2.587   5.795  19.603  0.00  0.00    +0.000 C 
BRANCH  14  15
ATOM     15  C   UNL     1       2.430   6.979  18.643  0.00  0.00    +0.000 C 
BRANCH  15  16
ATOM     16  C   UNL     1       1.942   8.214  19.392  0.00  0.00    +0.000 C 
BRANCH  16  17
ATOM     17  N   UNL     1       1.666   7.891  20.795  0.00  0.00    +0.000 NA
ATOM     18  H   UNL     1       2.450   7.589  21.373  0.00  0.00    +0.000 HD
BRANCH  17  19
ATOM     19  S   UNL     1       0.604   8.888  21.625  0.00  0.00    +0.000 S 
ATOM     20  C   UNL     1       0.310  10.205  20.452  0.00  0.00    +0.000 C 
ATOM     21  O   UNL     1      -0.637   8.168  21.817  0.00  0.00    +0.000 OA
ATOM     22  O   UNL     1       1.352   9.435  22.733  0.00  0.00    +0.000 OA
ENDBRANCH  17  19
ENDBRANCH  16  17
ENDBRANCH  15  16
ENDBRANCH  14  15
ENDBRANCH  12  14
ENDBRANCH   1  12
TORSDOF 7
ENDMDL
