MODEL 1
REMARK VINA RESULT:      -6.7      0.000      0.000
REMARK  Name = 
REMARK  5 active torsions:
REMARK  status: ('A' for Active; 'I' for Inactive)
REMARK    1  A    between atoms: C_1  and  O_2
REMARK    2  A    between atoms: O_2  and  C_3
REMARK    3  A    between atoms: C_6  and  C_7
REMARK    4  A    between atoms: C_12  and  C_13
REMARK    5  A    between atoms: C_13  and  C_15
REMARK                            x       y       z     vdW  Elec       q    Type
REMARK                         _______ _______ _______ _____ _____    ______ ____
ROOT
ATOM      1  C   UNL     1       1.018   9.153  18.718  0.00  0.00    +0.000 C 
ATOM      2  O   UNL     1       0.568   9.495  17.628  0.00  0.00    +0.000 OA
ATOM      3  N   UNL     1       1.888   8.069  18.864  0.00  0.00    +0.000 N 
ATOM      4  C   UNL     1       2.526   7.513  17.674  0.00  0.00    +0.000 C 
ATOM      5  C   UNL     1       2.245   6.018  17.548  0.00  0.00    +0.000 C 
ATOM      6  C   UNL     1       2.648   5.250  18.820  0.00  0.00    +0.000 C 
ATOM      7  C   UNL     1       1.940   5.884  20.024  0.00  0.00    +0.000 C 
ATOM      8  C   UNL     1       2.196   7.387  20.123  0.00  0.00    +0.000 C 
ENDROOT
BRANCH   1  12
ATOM      9  C   UNL     1      -0.197  11.437  22.155  0.00  0.00    +0.000 A 
ATOM     10  C   UNL     1      -0.601  10.109  21.999  0.00  0.00    +0.000 A 
ATOM     11  C   UNL     1      -0.187   9.363  20.892  0.00  0.00    +0.000 A 
ATOM     12  C   UNL     1       0.617   9.957  19.910  0.00  0.00    +0.000 A 
ATOM     13  C   UNL     1       0.944  11.312  20.029  0.00  0.00    +0.000 A 
ATOM     14  C   UNL     1       0.573  12.039  21.163  0.00  0.00    +0.000 A 
BRANCH   9  16
ATOM     15  C   UNL     1      -1.205  13.360  23.083  0.00  0.00    +0.000 C 
ATOM     16  O   UNL     1      -0.650  12.063  23.283  0.00  0.00    +0.000 OA
ENDBRANCH   9  16
ENDBRANCH   1  12
BRANCH   6  17
ATOM     17  C   UNL     1       4.164   5.200  19.054  0.00  0.00    +0.000 C 
ATOM     18  O   UNL     1       4.657   5.197  20.182  0.00  0.00    +0.000 OA
BRANCH  17  19
ATOM     19  C   UNL     1       5.095   5.149  17.896  0.00  0.00    +0.000 A 
ATOM     20  C   UNL     1       4.967   4.081  16.992  0.00  0.00    +0.000 A 
ATOM     21  C   UNL     1       5.829   3.979  15.900  0.00  0.00    +0.000 A 
ATOM     22  C   UNL     1       6.800   4.953  15.706  0.00  0.00    +0.000 A 
ATOM     23  F   UNL     1       7.636   4.854  14.662  0.00  0.00    +0.000 F 
ATOM     24  C   UNL     1       6.920   6.031  16.576  0.00  0.00    +0.000 A 
ATOM     25  C   UNL     1       6.067   6.134  17.677  0.00  0.00    +0.000 A 
ENDBRANCH  17  19
ENDBRANCH   6  17
TORSDOF 4
ENDMDL
MODEL 2
REMARK VINA RESULT:      -6.7      4.994      9.888
REMARK  Name = 
REMARK  5 active torsions:
REMARK  status: ('A' for Active; 'I' for Inactive)
REMARK    1  A    between atoms: C_1  and  O_2
REMARK    2  A    between atoms: O_2  and  C_3
REMARK    3  A    between atoms: C_6  and  C_7
REMARK    4  A    between atoms: C_12  and  C_13
REMARK    5  A    between atoms: C_13  and  C_15
REMARK                            x       y       z     vdW  Elec       q    Type
REMARK                         _______ _______ _______ _____ _____    ______ ____
ROOT
ATOM      1  C   UNL     1       6.820   5.021  13.739  0.00  0.00    +0.000 C 
ATOM      2  O   UNL     1       7.715   5.777  13.373  0.00  0.00    +0.000 OA
ATOM      3  N   UNL     1       6.056   5.264  14.885  0.00  0.00    +0.000 N 
ATOM      4  C   UNL     1       6.102   6.590  15.494  0.00  0.00    +0.000 C 
ATOM      5  C   UNL     1       6.502   6.504  16.965  0.00  0.00    +0.000 C 
ATOM      6  C   UNL     1       5.587   5.549  17.752  0.00  0.00    +0.000 C 
ATOM      7  C   UNL     1       5.590   4.180  17.059  0.00  0.00    +0.000 C 
ATOM      8  C   UNL     1       5.226   4.278  15.579  0.00  0.00    +0.000 C 
ENDROOT
BRANCH   1  12
ATOM      9  C   UNL     1       6.094   1.565  11.283  0.00  0.00    +0.000 A 
ATOM     10  C   UNL     1       7.395   2.016  11.518  0.00  0.00    +0.000 A 
ATOM     11  C   UNL     1       7.629   3.126  12.334  0.00  0.00    +0.000 A 
ATOM     12  C   UNL     1       6.550   3.817  12.901  0.00  0.00    +0.000 A 
ATOM     13  C   UNL     1       5.247   3.412  12.589  0.00  0.00    +0.000 A 
ATOM     14  C   UNL     1       5.019   2.271  11.817  0.00  0.00    +0.000 A 
BRANCH   9  16
ATOM     15  C   UNL     1       5.959  -0.789  11.163  0.00  0.00    +0.000 C 
ATOM     16  O   UNL     1       5.987   0.462  10.482  0.00  0.00    +0.000 OA
ENDBRANCH   9  16
ENDBRANCH   1  12
BRANCH   6  17
ATOM     17  C   UNL     1       4.151   6.065  17.914  0.00  0.00    +0.000 C 
ATOM     18  O   UNL     1       3.800   7.176  17.514  0.00  0.00    +0.000 OA
BRANCH  17  19
ATOM     19  C   UNL     1       3.124   5.216  18.571  0.00  0.00    +0.000 A 
ATOM     20  C   UNL     1       3.080   5.199  19.975  0.00  0.00    +0.000 A 
ATOM     21  C   UNL     1       2.146   4.404  20.640  0.00  0.00    +0.000 A 
ATOM     22  C   UNL     1       1.250   3.644  19.899  0.00  0.00    +0.000 A 
ATOM     23  F   UNL     1       0.357   2.872  20.534  0.00  0.00    +0.000 F 
ATOM     24  C   UNL     1       1.262   3.672  18.509  0.00  0.00    +0.000 A 
ATOM     25  C   UNL     1       2.201   4.458  17.838  0.00  0.00    +0.000 A 
ENDBRANCH  17  19
ENDBRANCH   6  17
TORSDOF 4
ENDMDL
MODEL 3
REMARK VINA RESULT:      -6.7      2.065      3.319
REMARK  Name = 
REMARK  5 active torsions:
REMARK  status: ('A' for Active; 'I' for Inactive)
REMARK    1  A    between atoms: C_1  and  O_2
REMARK    2  A    between atoms: O_2  and  C_3
REMARK    3  A    between atoms: C_6  and  C_7
REMARK    4  A    between atoms: C_12  and  C_13
REMARK    5  A    between atoms: C_13  and  C_15
REMARK                            x       y       z     vdW  Elec       q    Type
REMARK                         _______ _______ _______ _____ _____    ______ ____
ROOT
ATOM      1  C   UNL     1       2.299   6.649  19.846  0.00  0.00    +0.000 C 
ATOM      2  O   UNL     1       1.982   6.199  20.945  0.00  0.00    +0.000 OA
ATOM      3  N   UNL     1       3.064   5.921  18.931  0.00  0.00    +0.000 N 
ATOM      4  C   UNL     1       3.238   4.486  19.141  0.00  0.00    +0.000 C 
ATOM      5  C   UNL     1       4.717   4.114  19.190  0.00  0.00    +0.000 C 
ATOM      6  C   UNL     1       5.473   4.600  17.941  0.00  0.00    +0.000 C 
ATOM      7  C   UNL     1       5.249   6.110  17.786  0.00  0.00    +0.000 C 
ATOM      8  C   UNL     1       3.767   6.479  17.774  0.00  0.00    +0.000 C 
ENDROOT
BRANCH   1  12
ATOM      9  C   UNL     1       0.861  10.588  18.886  0.00  0.00    +0.000 A 
ATOM     10  C   UNL     1       0.696  10.058  20.168  0.00  0.00    +0.000 A 
ATOM     11  C   UNL     1       1.183   8.787  20.483  0.00  0.00    +0.000 A 
ATOM     12  C   UNL     1       1.818   8.018  19.499  0.00  0.00    +0.000 A 
ATOM     13  C   UNL     1       1.901   8.520  18.195  0.00  0.00    +0.000 A 
ATOM     14  C   UNL     1       1.462   9.812  17.898  0.00  0.00    +0.000 A 
BRANCH   9  16
ATOM     15  C   UNL     1       1.162  12.908  19.200  0.00  0.00    +0.000 C 
ATOM     16  O   UNL     1       0.358  11.845  18.697  0.00  0.00    +0.000 OA
ENDBRANCH   9  16
ENDBRANCH   1  12
BRANCH   6  17
ATOM     17  C   UNL     1       5.073   3.863  16.655  0.00  0.00    +0.000 C 
ATOM     18  O   UNL     1       4.161   3.037  16.625  0.00  0.00    +0.000 OA
BRANCH  17  19
ATOM     19  C   UNL     1       5.794   4.139  15.385  0.00  0.00    +0.000 A 
ATOM     20  C   UNL     1       5.280   3.586  14.201  0.00  0.00    +0.000 A 
ATOM     21  C   UNL     1       5.930   3.800  12.985  0.00  0.00    +0.000 A 
ATOM     22  C   UNL     1       7.080   4.579  12.956  0.00  0.00    +0.000 A 
ATOM     23  F   UNL     1       7.713   4.780  11.792  0.00  0.00    +0.000 F 
ATOM     24  C   UNL     1       7.585   5.156  14.116  0.00  0.00    +0.000 A 
ATOM     25  C   UNL     1       6.944   4.937  15.338  0.00  0.00    +0.000 A 
ENDBRANCH  17  19
ENDBRANCH   6  17
TORSDOF 4
ENDMDL
MODEL 4
REMARK VINA RESULT:      -6.6      3.543      8.733
REMARK  Name = 
REMARK  5 active torsions:
REMARK  status: ('A' for Active; 'I' for Inactive)
REMARK    1  A    between atoms: C_1  and  O_2
REMARK    2  A    between atoms: O_2  and  C_3
REMARK    3  A    between atoms: C_6  and  C_7
REMARK    4  A    between atoms: C_12  and  C_13
REMARK    5  A    between atoms: C_13  and  C_15
REMARK                            x       y       z     vdW  Elec       q    Type
REMARK                         _______ _______ _______ _____ _____    ______ ____
ROOT
ATOM      1  C   UNL     1       2.371   6.478  19.681  0.00  0.00    +0.000 C 
ATOM      2  O   UNL     1       1.918   5.895  20.662  0.00  0.00    +0.000 OA
ATOM      3  N   UNL     1       2.112   7.828  19.426  0.00  0.00    +0.000 N 
ATOM      4  C   UNL     1       1.550   8.652  20.493  0.00  0.00    +0.000 C 
ATOM      5  C   UNL     1       0.256   9.324  20.043  0.00  0.00    +0.000 C 
ATOM      6  C   UNL     1       0.449  10.130  18.747  0.00  0.00    +0.000 C 
ATOM      7  C   UNL     1       1.036   9.204  17.673  0.00  0.00    +0.000 C 
ATOM      8  C   UNL     1       2.311   8.506  18.143  0.00  0.00    +0.000 C 
ENDROOT
BRANCH   1  12
ATOM      9  C   UNL     1       4.840   4.169  17.021  0.00  0.00    +0.000 A 
ATOM     10  C   UNL     1       3.452   4.009  17.029  0.00  0.00    +0.000 A 
ATOM     11  C   UNL     1       2.651   4.776  17.879  0.00  0.00    +0.000 A 
ATOM     12  C   UNL     1       3.242   5.695  18.756  0.00  0.00    +0.000 A 
ATOM     13  C   UNL     1       4.637   5.785  18.804  0.00  0.00    +0.000 A 
ATOM     14  C   UNL     1       5.431   5.056  17.916  0.00  0.00    +0.000 A 
BRANCH   9  16
ATOM     15  C   UNL     1       6.015   4.037  14.978  0.00  0.00    +0.000 C 
ATOM     16  O   UNL     1       5.520   3.376  16.138  0.00  0.00    +0.000 OA
ENDBRANCH   9  16
ENDBRANCH   1  12
BRANCH   6  17
ATOM     17  C   UNL     1       1.329  11.375  18.921  0.00  0.00    +0.000 C 
ATOM     18  O   UNL     1       2.324  11.583  18.225  0.00  0.00    +0.000 OA
BRANCH  17  19
ATOM     19  C   UNL     1       0.994  12.385  19.959  0.00  0.00    +0.000 A 
ATOM     20  C   UNL     1       2.023  13.216  20.429  0.00  0.00    +0.000 A 
ATOM     21  C   UNL     1       1.763  14.168  21.415  0.00  0.00    +0.000 A 
ATOM     22  C   UNL     1       0.472  14.296  21.913  0.00  0.00    +0.000 A 
ATOM     23  F   UNL     1       0.220  15.203  22.867  0.00  0.00    +0.000 F 
ATOM     24  C   UNL     1      -0.563  13.500  21.437  0.00  0.00    +0.000 A 
ATOM     25  C   UNL     1      -0.307  12.538  20.457  0.00  0.00    +0.000 A 
ENDBRANCH  17  19
ENDBRANCH   6  17
TORSDOF 4
ENDMDL
MODEL 5
REMARK VINA RESULT:      -6.6      3.616      8.760
REMARK  Name = 
REMARK  5 active torsions:
REMARK  status: ('A' for Active; 'I' for Inactive)
REMARK    1  A    between atoms: C_1  and  O_2
REMARK    2  A    between atoms: O_2  and  C_3
REMARK    3  A    between atoms: C_6  and  C_7
REMARK    4  A    between atoms: C_12  and  C_13
REMARK    5  A    between atoms: C_13  and  C_15
REMARK                            x       y       z     vdW  Elec       q    Type
REMARK                         _______ _______ _______ _____ _____    ______ ____
ROOT
ATOM      1  C   UNL     1       2.246   6.576  19.717  0.00  0.00    +0.000 C 
ATOM      2  O   UNL     1       1.834   6.036  20.740  0.00  0.00    +0.000 OA
ATOM      3  N   UNL     1       2.010   7.925  19.434  0.00  0.00    +0.000 N 
ATOM      4  C   UNL     1       1.533   8.796  20.504  0.00  0.00    +0.000 C 
ATOM      5  C   UNL     1       0.234   9.492  20.107  0.00  0.00    +0.000 C 
ATOM      6  C   UNL     1       0.374  10.252  18.777  0.00  0.00    +0.000 C 
ATOM      7  C   UNL     1       0.873   9.278  17.702  0.00  0.00    +0.000 C 
ATOM      8  C   UNL     1       2.153   8.557  18.121  0.00  0.00    +0.000 C 
ENDROOT
BRANCH   1  12
ATOM      9  C   UNL     1       4.575   4.221  16.972  0.00  0.00    +0.000 A 
ATOM     10  C   UNL     1       5.167   5.241  17.721  0.00  0.00    +0.000 A 
ATOM     11  C   UNL     1       4.413   5.990  18.628  0.00  0.00    +0.000 A 
ATOM     12  C   UNL     1       3.041   5.741  18.769  0.00  0.00    +0.000 A 
ATOM     13  C   UNL     1       2.439   4.778  17.952  0.00  0.00    +0.000 A 
ATOM     14  C   UNL     1       3.206   3.995  17.086  0.00  0.00    +0.000 A 
BRANCH   9  16
ATOM     15  C   UNL     1       6.585   4.251  15.735  0.00  0.00    +0.000 C 
ATOM     16  O   UNL     1       5.413   3.545  16.129  0.00  0.00    +0.000 OA
ENDBRANCH   9  16
ENDBRANCH   1  12
BRANCH   6  17
ATOM     17  C   UNL     1       1.297  11.476  18.861  0.00  0.00    +0.000 C 
ATOM     18  O   UNL     1       2.335  11.566  18.205  0.00  0.00    +0.000 OA
BRANCH  17  19
ATOM     19  C   UNL     1       0.949  12.610  19.758  0.00  0.00    +0.000 A 
ATOM     20  C   UNL     1      -0.372  13.084  19.741  0.00  0.00    +0.000 A 
ATOM     21  C   UNL     1      -0.744  14.158  20.550  0.00  0.00    +0.000 A 
ATOM     22  C   UNL     1       0.202  14.739  21.386  0.00  0.00    +0.000 A 
ATOM     23  F   UNL     1      -0.149  15.777  22.158  0.00  0.00    +0.000 F 
ATOM     24  C   UNL     1       1.507  14.262  21.435  0.00  0.00    +0.000 A 
ATOM     25  C   UNL     1       1.887  13.194  20.619  0.00  0.00    +0.000 A 
ENDBRANCH  17  19
ENDBRANCH   6  17
TORSDOF 4
ENDMDL
MODEL 6
REMARK VINA RESULT:      -6.6      3.642      8.814
REMARK  Name = 
REMARK  5 active torsions:
REMARK  status: ('A' for Active; 'I' for Inactive)
REMARK    1  A    between atoms: C_1  and  O_2
REMARK    2  A    between atoms: O_2  and  C_3
REMARK    3  A    between atoms: C_6  and  C_7
REMARK    4  A    between atoms: C_12  and  C_13
REMARK    5  A    between atoms: C_13  and  C_15
REMARK                            x       y       z     vdW  Elec       q    Type
REMARK                         _______ _______ _______ _____ _____    ______ ____
ROOT
ATOM      1  C   UNL     1       2.168   6.713  19.770  0.00  0.00    +0.000 C 
ATOM      2  O   UNL     1       1.743   6.176  20.790  0.00  0.00    +0.000 OA
ATOM      3  N   UNL     1       1.911   8.053  19.466  0.00  0.00    +0.000 N 
ATOM      4  C   UNL     1       1.392   8.926  20.514  0.00  0.00    +0.000 C 
ATOM      5  C   UNL     1       0.088   9.591  20.079  0.00  0.00    +0.000 C 
ATOM      6  C   UNL     1       0.244  10.339  18.744  0.00  0.00    +0.000 C 
ATOM      7  C   UNL     1       0.788   9.362  17.692  0.00  0.00    +0.000 C 
ATOM      8  C   UNL     1       2.072   8.673  18.149  0.00  0.00    +0.000 C 
ENDROOT
BRANCH   1  12
ATOM      9  C   UNL     1       4.528   4.269  17.132  0.00  0.00    +0.000 A 
ATOM     10  C   UNL     1       3.141   4.117  17.199  0.00  0.00    +0.000 A 
ATOM     11  C   UNL     1       2.374   4.927  18.041  0.00  0.00    +0.000 A 
ATOM     12  C   UNL     1       3.001   5.883  18.852  0.00  0.00    +0.000 A 
ATOM     13  C   UNL     1       4.397   5.968  18.844  0.00  0.00    +0.000 A 
ATOM     14  C   UNL     1       5.155   5.194  17.962  0.00  0.00    +0.000 A 
BRANCH   9  16
ATOM     15  C   UNL     1       6.272   4.006  15.563  0.00  0.00    +0.000 C 
ATOM     16  O   UNL     1       5.172   3.433  16.262  0.00  0.00    +0.000 OA
ENDBRANCH   9  16
ENDBRANCH   1  12
BRANCH   6  17
ATOM     17  C   UNL     1       1.139  11.582  18.835  0.00  0.00    +0.000 C 
ATOM     18  O   UNL     1       2.244  11.641  18.294  0.00  0.00    +0.000 OA
BRANCH  17  19
ATOM     19  C   UNL     1       0.683  12.774  19.597  0.00  0.00    +0.000 A 
ATOM     20  C   UNL     1      -0.094  13.730  18.923  0.00  0.00    +0.000 A 
ATOM     21  C   UNL     1      -0.532  14.876  19.589  0.00  0.00    +0.000 A 
ATOM     22  C   UNL     1      -0.206  15.050  20.928  0.00  0.00    +0.000 A 
ATOM     23  F   UNL     1      -0.617  16.154  21.569  0.00  0.00    +0.000 F 
ATOM     24  C   UNL     1       0.538  14.099  21.616  0.00  0.00    +0.000 A 
ATOM     25  C   UNL     1       0.988  12.955  20.952  0.00  0.00    +0.000 A 
ENDBRANCH  17  19
ENDBRANCH   6  17
TORSDOF 4
ENDMDL
MODEL 7
REMARK VINA RESULT:      -6.6      3.341      8.364
REMARK  Name = 
REMARK  5 active torsions:
REMARK  status: ('A' for Active; 'I' for Inactive)
REMARK    1  A    between atoms: C_1  and  O_2
REMARK    2  A    between atoms: O_2  and  C_3
REMARK    3  A    between atoms: C_6  and  C_7
REMARK    4  A    between atoms: C_12  and  C_13
REMARK    5  A    between atoms: C_13  and  C_15
REMARK                            x       y       z     vdW  Elec       q    Type
REMARK                         _______ _______ _______ _____ _____    ______ ____
ROOT
ATOM      1  C   UNL     1       2.047   6.141  20.121  0.00  0.00    +0.000 C 
ATOM      2  O   UNL     1       1.478   5.298  20.810  0.00  0.00    +0.000 OA
ATOM      3  N   UNL     1       1.765   7.506  20.221  0.00  0.00    +0.000 N 
ATOM      4  C   UNL     1       1.008   7.986  21.374  0.00  0.00    +0.000 C 
ATOM      5  C   UNL     1      -0.234   8.756  20.933  0.00  0.00    +0.000 C 
ATOM      6  C   UNL     1       0.116   9.902  19.967  0.00  0.00    +0.000 C 
ATOM      7  C   UNL     1       0.904   9.326  18.783  0.00  0.00    +0.000 C 
ATOM      8  C   UNL     1       2.124   8.525  19.233  0.00  0.00    +0.000 C 
ENDROOT
BRANCH   1  12
ATOM      9  C   UNL     1       5.000   4.703  17.342  0.00  0.00    +0.000 A 
ATOM     10  C   UNL     1       3.637   4.605  17.053  0.00  0.00    +0.000 A 
ATOM     11  C   UNL     1       2.681   5.092  17.948  0.00  0.00    +0.000 A 
ATOM     12  C   UNL     1       3.086   5.659  19.164  0.00  0.00    +0.000 A 
ATOM     13  C   UNL     1       4.448   5.674  19.484  0.00  0.00    +0.000 A 
ATOM     14  C   UNL     1       5.403   5.235  18.565  0.00  0.00    +0.000 A 
BRANCH   9  16
ATOM     15  C   UNL     1       5.491   4.512  15.041  0.00  0.00    +0.000 C 
ATOM     16  O   UNL     1       5.843   4.207  16.387  0.00  0.00    +0.000 OA
ENDBRANCH   9  16
ENDBRANCH   1  12
BRANCH   6  17
ATOM     17  C   UNL     1       0.898  11.046  20.626  0.00  0.00    +0.000 C 
ATOM     18  O   UNL     1       1.515  10.901  21.682  0.00  0.00    +0.000 OA
BRANCH  17  19
ATOM     19  C   UNL     1       0.931  12.389  19.989  0.00  0.00    +0.000 A 
ATOM     20  C   UNL     1      -0.270  13.111  19.908  0.00  0.00    +0.000 A 
ATOM     21  C   UNL     1      -0.295  14.369  19.303  0.00  0.00    +0.000 A 
ATOM     22  C   UNL     1       0.884  14.904  18.800  0.00  0.00    +0.000 A 
ATOM     23  F   UNL     1       0.863  16.108  18.210  0.00  0.00    +0.000 F 
ATOM     24  C   UNL     1       2.087  14.213  18.898  0.00  0.00    +0.000 A 
ATOM     25  C   UNL     1       2.115  12.950  19.493  0.00  0.00    +0.000 A 
ENDBRANCH  17  19
ENDBRANCH   6  17
TORSDOF 4
ENDMDL
MODEL 8
REMARK VINA RESULT:      -6.5      2.606      3.929
REMARK  Name = 
REMARK  5 active torsions:
REMARK  status: ('A' for Active; 'I' for Inactive)
REMARK    1  A    between atoms: C_1  and  O_2
REMARK    2  A    between atoms: O_2  and  C_3
REMARK    3  A    between atoms: C_6  and  C_7
REMARK    4  A    between atoms: C_12  and  C_13
REMARK    5  A    between atoms: C_13  and  C_15
REMARK                            x       y       z     vdW  Elec       q    Type
REMARK                         _______ _______ _______ _____ _____    ______ ____
ROOT
ATOM      1  C   UNL     1      -0.239  12.602  20.120  0.00  0.00    +0.000 C 
ATOM      2  O   UNL     1       0.337  13.674  19.953  0.00  0.00    +0.000 OA
ATOM      3  N   UNL     1       0.334  11.378  19.762  0.00  0.00    +0.000 N 
ATOM      4  C   UNL     1       1.763  11.329  19.468  0.00  0.00    +0.000 C 
ATOM      5  C   UNL     1       2.018  10.745  18.081  0.00  0.00    +0.000 C 
ATOM      6  C   UNL     1       1.356   9.366  17.909  0.00  0.00    +0.000 C 
ATOM      7  C   UNL     1      -0.140   9.494  18.230  0.00  0.00    +0.000 C 
ATOM      8  C   UNL     1      -0.388  10.114  19.604  0.00  0.00    +0.000 C 
ENDROOT
BRANCH   1  12
ATOM      9  C   UNL     1      -4.120  12.664  21.974  0.00  0.00    +0.000 A 
ATOM     10  C   UNL     1      -2.969  12.435  22.731  0.00  0.00    +0.000 A 
ATOM     11  C   UNL     1      -1.708  12.437  22.130  0.00  0.00    +0.000 A 
ATOM     12  C   UNL     1      -1.592  12.640  20.748  0.00  0.00    +0.000 A 
ATOM     13  C   UNL     1      -2.756  12.781  19.984  0.00  0.00    +0.000 A 
ATOM     14  C   UNL     1      -4.010  12.832  20.597  0.00  0.00    +0.000 A 
BRANCH   9  16
ATOM     15  C   UNL     1      -6.474  12.820  21.887  0.00  0.00    +0.000 C 
ATOM     16  O   UNL     1      -5.297  12.654  22.671  0.00  0.00    +0.000 OA
ENDBRANCH   9  16
ENDBRANCH   1  12
BRANCH   6  17
ATOM     17  C   UNL     1       1.996   8.265  18.765  0.00  0.00    +0.000 C 
ATOM     18  O   UNL     1       1.864   8.221  19.989  0.00  0.00    +0.000 OA
BRANCH  17  19
ATOM     19  C   UNL     1       2.808   7.199  18.122  0.00  0.00    +0.000 A 
ATOM     20  C   UNL     1       2.373   5.870  18.250  0.00  0.00    +0.000 A 
ATOM     21  C   UNL     1       3.110   4.831  17.680  0.00  0.00    +0.000 A 
ATOM     22  C   UNL     1       4.267   5.128  16.970  0.00  0.00    +0.000 A 
ATOM     23  F   UNL     1       4.982   4.133  16.429  0.00  0.00    +0.000 F 
ATOM     24  C   UNL     1       4.694   6.442  16.811  0.00  0.00    +0.000 A 
ATOM     25  C   UNL     1       3.966   7.485  17.388  0.00  0.00    +0.000 A 
ENDBRANCH  17  19
ENDBRANCH   6  17
TORSDOF 4
ENDMDL
MODEL 9
REMARK VINA RESULT:      -6.5      3.441      8.446
REMARK  Name = 
REMARK  5 active torsions:
REMARK  status: ('A' for Active; 'I' for Inactive)
REMARK    1  A    between atoms: C_1  and  O_2
REMARK    2  A    between atoms: O_2  and  C_3
REMARK    3  A    between atoms: C_6  and  C_7
REMARK    4  A    between atoms: C_12  and  C_13
REMARK    5  A    between atoms: C_13  and  C_15
REMARK                            x       y       z     vdW  Elec       q    Type
REMARK                         _______ _______ _______ _____ _____    ______ ____
ROOT
ATOM      1  C   UNL     1       2.219   6.474  19.618  0.00  0.00    +0.000 C 
ATOM      2  O   UNL     1       1.847   5.549  20.336  0.00  0.00    +0.000 OA
ATOM      3  N   UNL     1       1.844   7.801  19.850  0.00  0.00    +0.000 N 
ATOM      4  C   UNL     1       1.256   8.151  21.139  0.00  0.00    +0.000 C 
ATOM      5  C   UNL     1      -0.103   8.823  20.958  0.00  0.00    +0.000 C 
ATOM      6  C   UNL     1      -0.019  10.042  20.022  0.00  0.00    +0.000 C 
ATOM      7  C   UNL     1       0.604   9.600  18.691  0.00  0.00    +0.000 C 
ATOM      8  C   UNL     1       1.945   8.895  18.883  0.00  0.00    +0.000 C 
ENDROOT
BRANCH   1  12
ATOM      9  C   UNL     1       4.823   5.449  16.351  0.00  0.00    +0.000 A 
ATOM     10  C   UNL     1       4.093   4.464  17.021  0.00  0.00    +0.000 A 
ATOM     11  C   UNL     1       3.231   4.803  18.067  0.00  0.00    +0.000 A 
ATOM     12  C   UNL     1       3.117   6.139  18.474  0.00  0.00    +0.000 A 
ATOM     13  C   UNL     1       3.917   7.106  17.857  0.00  0.00    +0.000 A 
ATOM     14  C   UNL     1       4.737   6.772  16.776  0.00  0.00    +0.000 A 
BRANCH   9  16
ATOM     15  C   UNL     1       6.961   4.688  15.701  0.00  0.00    +0.000 C 
ATOM     16  O   UNL     1       5.622   5.003  15.334  0.00  0.00    +0.000 OA
ENDBRANCH   9  16
ENDBRANCH   1  12
BRANCH   6  17
ATOM     17  C   UNL     1       0.765  11.220  20.616  0.00  0.00    +0.000 C 
ATOM     18  O   UNL     1       1.458  11.109  21.627  0.00  0.00    +0.000 OA
BRANCH  17  19
ATOM     19  C   UNL     1       0.706  12.557  19.966  0.00  0.00    +0.000 A 
ATOM     20  C   UNL     1       1.881  13.060  19.384  0.00  0.00    +0.000 A 
ATOM     21  C   UNL     1       1.882  14.317  18.778  0.00  0.00    +0.000 A 
ATOM     22  C   UNL     1       0.706  15.055  18.742  0.00  0.00    +0.000 A 
ATOM     23  F   UNL     1       0.706  16.267  18.169  0.00  0.00    +0.000 F 
ATOM     24  C   UNL     1      -0.471  14.558  19.290  0.00  0.00    +0.000 A 
ATOM     25  C   UNL     1      -0.476  13.305  19.907  0.00  0.00    +0.000 A 
ENDBRANCH  17  19
ENDBRANCH   6  17
TORSDOF 4
ENDMDL
