MODEL 1
REMARK VINA RESULT:      -6.0      0.000      0.000
REMARK  Name = 
REMARK  9 active torsions:
REMARK  status: ('A' for Active; 'I' for Inactive)
REMARK    1  A    between atoms: C_1  and  O_2
REMARK    2  A    between atoms: O_2  and  C_3
REMARK    3  A    between atoms: C_7  and  C_8
REMARK    4  A    between atoms: C_13  and  C_14
REMARK    5  A    between atoms: C_14  and  O_16
REMARK    6  A    between atoms: C_18  and  C_19
REMARK    7  A    between atoms: C_19  and  O_20
REMARK    8  A    between atoms: O_20  and  C_21
REMARK    9  A    between atoms: C_21  and  C_22
REMARK                            x       y       z     vdW  Elec       q    Type
REMARK                         _______ _______ _______ _____ _____    ______ ____
ROOT
ATOM      1  C   UNL     1      -4.447  14.091  22.838  0.00  0.00    +0.000 C 
ATOM      2  C   UNL     1      -3.050  14.007  22.120  0.00  0.00    +0.000 C 
ATOM      3  O   UNL     1      -1.987  14.556  22.267  0.00  0.00    +0.000 OA
ATOM      4  N   UNL     1      -3.564  13.130  21.224  0.00  0.00    +0.000 N 
ATOM      5  C   UNL     1      -3.190  12.528  20.052  0.00  0.00    +0.000 C 
ATOM      6  C   UNL     1      -4.139  12.042  19.200  0.00  0.00    +0.000 C 
ATOM      7  C   UNL     1      -5.621  11.954  19.551  0.00  0.00    +0.000 C 
ATOM      8  S   UNL     1      -6.112  13.108  20.806  0.00  0.00    +0.000 S 
ATOM      9  O   UNL     1      -6.081  14.439  20.227  0.00  0.00    +0.000 OA
ATOM     10  O   UNL     1      -7.349  12.601  21.377  0.00  0.00    +0.000 OA
ATOM     11  C   UNL     1      -4.799  12.885  21.951  0.00  0.00    +0.000 C 
ENDROOT
BRANCH   5  12
ATOM     12  C   UNL     1      -1.708  12.585  19.695  0.00  0.00    +0.000 C 
ATOM     13  O   UNL     1      -1.305  13.438  18.908  0.00  0.00    +0.000 OA
ATOM     14  N   UNL     1      -0.838  11.682  20.283  0.00  0.00    +0.000 N 
ATOM     15  C   UNL     1       0.591  11.774  20.046  0.00  0.00    +0.000 C 
ATOM     16  C   UNL     1       1.026  10.318  20.097  0.00  0.00    +0.000 C 
ATOM     17  C   UNL     1       0.091   9.680  21.140  0.00  0.00    +0.000 C 
ATOM     18  C   UNL     1      -1.044  10.704  21.339  0.00  0.00    +0.000 C 
BRANCH  17  19
ATOM     19  C   UNL     1       0.784   9.365  22.439  0.00  0.00    +0.000 C 
ATOM     20  O   UNL     1       0.397   9.726  23.542  0.00  0.00    +0.000 OA
BRANCH  19  21
ATOM     21  O   UNL     1       1.870   8.566  22.292  0.00  0.00    +0.000 OA
ATOM     22  H   UNL     1       2.238   8.208  23.123  0.00  0.00    +0.000 HD
ENDBRANCH  19  21
ENDBRANCH  17  19
ENDBRANCH   5  12
BRANCH   1  24
ATOM     23  C   UNL     1      -4.248  12.498  24.658  0.00  0.00    +0.000 C 
ATOM     24  O   UNL     1      -4.440  13.854  24.270  0.00  0.00    +0.000 OA
ENDBRANCH   1  24
BRANCH   6  25
ATOM     25  C   UNL     1      -3.852  11.593  17.774  0.00  0.00    +0.000 C 
BRANCH  25  26
ATOM     26  O   UNL     1      -3.335  10.252  17.778  0.00  0.00    +0.000 OA
BRANCH  26  27
ATOM     27  C   UNL     1      -2.278   9.991  16.973  0.00  0.00    +0.000 C 
ATOM     28  C   UNL     1      -2.749   9.875  15.554  0.00  0.00    +0.000 C 
ATOM     29  O   UNL     1      -1.130   9.798  17.347  0.00  0.00    +0.000 OA
ENDBRANCH  26  27
ENDBRANCH  25  26
ENDBRANCH   6  25
TORSDOF 7
ENDMDL
MODEL 2
REMARK VINA RESULT:      -6.0      7.660     11.486
REMARK  Name = 
REMARK  9 active torsions:
REMARK  status: ('A' for Active; 'I' for Inactive)
REMARK    1  A    between atoms: C_1  and  O_2
REMARK    2  A    between atoms: O_2  and  C_3
REMARK    3  A    between atoms: C_7  and  C_8
REMARK    4  A    between atoms: C_13  and  C_14
REMARK    5  A    between atoms: C_14  and  O_16
REMARK    6  A    between atoms: C_18  and  C_19
REMARK    7  A    between atoms: C_19  and  O_20
REMARK    8  A    between atoms: O_20  and  C_21
REMARK    9  A    between atoms: C_21  and  C_22
REMARK                            x       y       z     vdW  Elec       q    Type
REMARK                         _______ _______ _______ _____ _____    ______ ____
ROOT
ATOM      1  C   UNL     1       8.024   6.342  18.050  0.00  0.00    +0.000 C 
ATOM      2  C   UNL     1       7.085   5.721  19.149  0.00  0.00    +0.000 C 
ATOM      3  O   UNL     1       7.151   5.591  20.345  0.00  0.00    +0.000 OA
ATOM      4  N   UNL     1       6.220   5.325  18.185  0.00  0.00    +0.000 N 
ATOM      5  C   UNL     1       5.098   4.547  18.074  0.00  0.00    +0.000 C 
ATOM      6  C   UNL     1       4.749   4.018  16.865  0.00  0.00    +0.000 C 
ATOM      7  C   UNL     1       5.434   4.390  15.553  0.00  0.00    +0.000 C 
ATOM      8  S   UNL     1       7.086   4.994  15.775  0.00  0.00    +0.000 S 
ATOM      9  O   UNL     1       7.923   3.875  16.174  0.00  0.00    +0.000 OA
ATOM     10  O   UNL     1       7.419   5.748  14.577  0.00  0.00    +0.000 OA
ATOM     11  C   UNL     1       6.827   6.100  17.115  0.00  0.00    +0.000 C 
ENDROOT
BRANCH   5  12
ATOM     12  C   UNL     1       4.385   4.183  19.373  0.00  0.00    +0.000 C 
ATOM     13  O   UNL     1       4.693   3.153  19.968  0.00  0.00    +0.000 OA
ATOM     14  N   UNL     1       3.413   5.036  19.869  0.00  0.00    +0.000 N 
ATOM     15  C   UNL     1       2.789   4.774  21.153  0.00  0.00    +0.000 C 
ATOM     16  C   UNL     1       1.380   5.308  20.948  0.00  0.00    +0.000 C 
ATOM     17  C   UNL     1       1.566   6.510  20.004  0.00  0.00    +0.000 C 
ATOM     18  C   UNL     1       2.992   6.360  19.440  0.00  0.00    +0.000 C 
BRANCH  17  19
ATOM     19  C   UNL     1       1.381   7.836  20.694  0.00  0.00    +0.000 C 
ATOM     20  O   UNL     1       1.322   7.989  21.906  0.00  0.00    +0.000 OA
BRANCH  19  21
ATOM     21  O   UNL     1       1.351   8.890  19.841  0.00  0.00    +0.000 OA
ATOM     22  H   UNL     1       0.569   9.467  19.921  0.00  0.00    +0.000 HD
ENDBRANCH  19  21
ENDBRANCH  17  19
ENDBRANCH   5  12
BRANCH   1  24
ATOM     23  C   UNL     1       7.595   8.685  17.589  0.00  0.00    +0.000 C 
ATOM     24  O   UNL     1       8.411   7.726  18.253  0.00  0.00    +0.000 OA
ENDBRANCH   1  24
BRANCH   6  25
ATOM     25  C   UNL     1       3.684   2.946  16.681  0.00  0.00    +0.000 C 
BRANCH  25  26
ATOM     26  O   UNL     1       2.488   3.318  17.383  0.00  0.00    +0.000 OA
BRANCH  26  27
ATOM     27  C   UNL     1       1.916   2.381  18.177  0.00  0.00    +0.000 C 
ATOM     28  C   UNL     1       0.563   2.856  18.613  0.00  0.00    +0.000 C 
ATOM     29  O   UNL     1       2.447   1.344  18.548  0.00  0.00    +0.000 OA
ENDBRANCH  26  27
ENDBRANCH  25  26
ENDBRANCH   6  25
TORSDOF 7
ENDMDL
MODEL 3
REMARK VINA RESULT:      -6.0      6.663     10.256
REMARK  Name = 
REMARK  9 active torsions:
REMARK  status: ('A' for Active; 'I' for Inactive)
REMARK    1  A    between atoms: C_1  and  O_2
REMARK    2  A    between atoms: O_2  and  C_3
REMARK    3  A    between atoms: C_7  and  C_8
REMARK    4  A    between atoms: C_13  and  C_14
REMARK    5  A    between atoms: C_14  and  O_16
REMARK    6  A    between atoms: C_18  and  C_19
REMARK    7  A    between atoms: C_19  and  O_20
REMARK    8  A    between atoms: O_20  and  C_21
REMARK    9  A    between atoms: C_21  and  C_22
REMARK                            x       y       z     vdW  Elec       q    Type
REMARK                         _______ _______ _______ _____ _____    ______ ____
ROOT
ATOM      1  C   UNL     1       1.876   3.114  18.961  0.00  0.00    +0.000 C 
ATOM      2  C   UNL     1       1.714   4.487  18.210  0.00  0.00    +0.000 C 
ATOM      3  O   UNL     1       0.853   4.984  17.528  0.00  0.00    +0.000 OA
ATOM      4  N   UNL     1       2.968   4.838  18.581  0.00  0.00    +0.000 N 
ATOM      5  C   UNL     1       3.874   5.829  18.313  0.00  0.00    +0.000 C 
ATOM      6  C   UNL     1       5.205   5.617  18.535  0.00  0.00    +0.000 C 
ATOM      7  C   UNL     1       5.755   4.387  19.250  0.00  0.00    +0.000 C 
ATOM      8  S   UNL     1       4.671   2.987  19.165  0.00  0.00    +0.000 S 
ATOM      9  O   UNL     1       4.682   2.494  17.798  0.00  0.00    +0.000 OA
ATOM     10  O   UNL     1       5.051   2.099  20.251  0.00  0.00    +0.000 OA
ATOM     11  C   UNL     1       3.142   3.763  19.545  0.00  0.00    +0.000 C 
ENDROOT
BRANCH   5  12
ATOM     12  C   UNL     1       3.339   7.078  17.618  0.00  0.00    +0.000 C 
ATOM     13  O   UNL     1       3.660   7.311  16.456  0.00  0.00    +0.000 OA
ATOM     14  N   UNL     1       2.483   7.918  18.310  0.00  0.00    +0.000 N 
ATOM     15  C   UNL     1       1.874   9.057  17.647  0.00  0.00    +0.000 C 
ATOM     16  C   UNL     1       1.768  10.073  18.772  0.00  0.00    +0.000 C 
ATOM     17  C   UNL     1       1.505   9.221  20.027  0.00  0.00    +0.000 C 
ATOM     18  C   UNL     1       1.847   7.778  19.609  0.00  0.00    +0.000 C 
BRANCH  17  19
ATOM     19  C   UNL     1       0.090   9.331  20.529  0.00  0.00    +0.000 C 
ATOM     20  O   UNL     1      -0.385   8.654  21.431  0.00  0.00    +0.000 OA
BRANCH  19  21
ATOM     21  O   UNL     1      -0.622  10.317  19.929  0.00  0.00    +0.000 OA
ATOM     22  H   UNL     1      -0.980  10.093  19.049  0.00  0.00    +0.000 HD
ENDBRANCH  19  21
ENDBRANCH  17  19
ENDBRANCH   5  12
BRANCH   1  24
ATOM     23  C   UNL     1       1.239   2.739  21.272  0.00  0.00    +0.000 C 
ATOM     24  O   UNL     1       0.829   2.781  19.909  0.00  0.00    +0.000 OA
ENDBRANCH   1  24
BRANCH   6  25
ATOM     25  C   UNL     1       6.307   6.542  18.038  0.00  0.00    +0.000 C 
BRANCH  25  26
ATOM     26  O   UNL     1       6.419   6.448  16.609  0.00  0.00    +0.000 OA
BRANCH  26  27
ATOM     27  C   UNL     1       6.849   5.271  16.095  0.00  0.00    +0.000 C 
ATOM     28  C   UNL     1       5.933   4.847  14.987  0.00  0.00    +0.000 C 
ATOM     29  O   UNL     1       7.789   4.612  16.517  0.00  0.00    +0.000 OA
ENDBRANCH  26  27
ENDBRANCH  25  26
ENDBRANCH   6  25
TORSDOF 7
ENDMDL
MODEL 4
REMARK VINA RESULT:      -5.9      8.032     11.440
REMARK  Name = 
REMARK  9 active torsions:
REMARK  status: ('A' for Active; 'I' for Inactive)
REMARK    1  A    between atoms: C_1  and  O_2
REMARK    2  A    between atoms: O_2  and  C_3
REMARK    3  A    between atoms: C_7  and  C_8
REMARK    4  A    between atoms: C_13  and  C_14
REMARK    5  A    between atoms: C_14  and  O_16
REMARK    6  A    between atoms: C_18  and  C_19
REMARK    7  A    between atoms: C_19  and  O_20
REMARK    8  A    between atoms: O_20  and  C_21
REMARK    9  A    between atoms: C_21  and  C_22
REMARK                            x       y       z     vdW  Elec       q    Type
REMARK                         _______ _______ _______ _____ _____    ______ ____
ROOT
ATOM      1  C   UNL     1       2.130   6.919  18.534  0.00  0.00    +0.000 C 
ATOM      2  C   UNL     1       3.615   6.650  18.088  0.00  0.00    +0.000 C 
ATOM      3  O   UNL     1       4.366   7.156  17.293  0.00  0.00    +0.000 OA
ATOM      4  N   UNL     1       3.664   5.572  18.906  0.00  0.00    +0.000 N 
ATOM      5  C   UNL     1       4.504   4.521  19.163  0.00  0.00    +0.000 C 
ATOM      6  C   UNL     1       4.020   3.385  19.745  0.00  0.00    +0.000 C 
ATOM      7  C   UNL     1       2.609   3.265  20.312  0.00  0.00    +0.000 C 
ATOM      8  S   UNL     1       1.463   4.405  19.583  0.00  0.00    +0.000 S 
ATOM      9  O   UNL     1       1.210   3.975  18.219  0.00  0.00    +0.000 OA
ATOM     10  O   UNL     1       0.353   4.532  20.513  0.00  0.00    +0.000 OA
ATOM     11  C   UNL     1       2.432   5.870  19.617  0.00  0.00    +0.000 C 
ENDROOT
BRANCH   5  12
ATOM     12  C   UNL     1       5.927   4.633  18.624  0.00  0.00    +0.000 C 
ATOM     13  O   UNL     1       6.865   4.759  19.406  0.00  0.00    +0.000 OA
ATOM     14  N   UNL     1       6.135   4.571  17.256  0.00  0.00    +0.000 N 
ATOM     15  C   UNL     1       7.482   4.570  16.715  0.00  0.00    +0.000 C 
ATOM     16  C   UNL     1       7.306   5.304  15.395  0.00  0.00    +0.000 C 
ATOM     17  C   UNL     1       5.897   4.900  14.924  0.00  0.00    +0.000 C 
ATOM     18  C   UNL     1       5.225   4.276  16.161  0.00  0.00    +0.000 C 
BRANCH  17  19
ATOM     19  C   UNL     1       5.916   3.942  13.762  0.00  0.00    +0.000 C 
ATOM     20  O   UNL     1       6.924   3.429  13.298  0.00  0.00    +0.000 OA
BRANCH  19  21
ATOM     21  O   UNL     1       4.680   3.631  13.298  0.00  0.00    +0.000 OA
ATOM     22  H   UNL     1       4.385   2.719  13.483  0.00  0.00    +0.000 HD
ENDBRANCH  19  21
ENDBRANCH  17  19
ENDBRANCH   5  12
BRANCH   1  24
ATOM     23  C   UNL     1       1.705   9.243  17.980  0.00  0.00    +0.000 C 
ATOM     24  O   UNL     1       1.841   8.262  19.003  0.00  0.00    +0.000 OA
ENDBRANCH   1  24
BRANCH   6  25
ATOM     25  C   UNL     1       4.797   2.079  19.839  0.00  0.00    +0.000 C 
BRANCH  25  26
ATOM     26  O   UNL     1       5.081   1.776  21.214  0.00  0.00    +0.000 OA
BRANCH  26  27
ATOM     27  C   UNL     1       5.806   0.661  21.468  0.00  0.00    +0.000 C 
ATOM     28  C   UNL     1       5.608  -0.326  20.358  0.00  0.00    +0.000 C 
ATOM     29  O   UNL     1       6.459   0.453  22.481  0.00  0.00    +0.000 OA
ENDBRANCH  26  27
ENDBRANCH  25  26
ENDBRANCH   6  25
TORSDOF 7
ENDMDL
MODEL 5
REMARK VINA RESULT:      -5.9      2.257      5.722
REMARK  Name = 
REMARK  9 active torsions:
REMARK  status: ('A' for Active; 'I' for Inactive)
REMARK    1  A    between atoms: C_1  and  O_2
REMARK    2  A    between atoms: O_2  and  C_3
REMARK    3  A    between atoms: C_7  and  C_8
REMARK    4  A    between atoms: C_13  and  C_14
REMARK    5  A    between atoms: C_14  and  O_16
REMARK    6  A    between atoms: C_18  and  C_19
REMARK    7  A    between atoms: C_19  and  O_20
REMARK    8  A    between atoms: O_20  and  C_21
REMARK    9  A    between atoms: C_21  and  C_22
REMARK                            x       y       z     vdW  Elec       q    Type
REMARK                         _______ _______ _______ _____ _____    ______ ____
ROOT
ATOM      1  C   UNL     1      -3.068  10.277  16.735  0.00  0.00    +0.000 C 
ATOM      2  C   UNL     1      -1.957  10.300  17.848  0.00  0.00    +0.000 C 
ATOM      3  O   UNL     1      -0.979   9.635  18.084  0.00  0.00    +0.000 OA
ATOM      4  N   UNL     1      -2.600  11.318  18.467  0.00  0.00    +0.000 N 
ATOM      5  C   UNL     1      -2.524  12.007  19.649  0.00  0.00    +0.000 C 
ATOM      6  C   UNL     1      -3.616  12.678  20.120  0.00  0.00    +0.000 C 
ATOM      7  C   UNL     1      -4.897  12.873  19.315  0.00  0.00    +0.000 C 
ATOM      8  S   UNL     1      -5.129  11.642  18.061  0.00  0.00    +0.000 S 
ATOM      9  O   UNL     1      -5.448  10.387  18.718  0.00  0.00    +0.000 OA
ATOM     10  O   UNL     1      -6.058  12.203  17.093  0.00  0.00    +0.000 OA
ATOM     11  C   UNL     1      -3.513  11.603  17.373  0.00  0.00    +0.000 C 
ENDROOT
BRANCH   5  12
ATOM     12  C   UNL     1      -1.241  11.842  20.458  0.00  0.00    +0.000 C 
ATOM     13  O   UNL     1      -1.247  11.153  21.474  0.00  0.00    +0.000 OA
ATOM     14  N   UNL     1      -0.083  12.462  20.017  0.00  0.00    +0.000 N 
ATOM     15  C   UNL     1       1.177  12.243  20.703  0.00  0.00    +0.000 C 
ATOM     16  C   UNL     1       1.884  13.577  20.525  0.00  0.00    +0.000 C 
ATOM     17  C   UNL     1       1.419  14.069  19.143  0.00  0.00    +0.000 C 
ATOM     18  C   UNL     1       0.208  13.184  18.789  0.00  0.00    +0.000 C 
BRANCH  17  19
ATOM     19  C   UNL     1       2.495  13.979  18.092  0.00  0.00    +0.000 C 
ATOM     20  O   UNL     1       3.360  14.823  17.906  0.00  0.00    +0.000 OA
BRANCH  19  21
ATOM     21  O   UNL     1       2.469  12.818  17.391  0.00  0.00    +0.000 OA
ATOM     22  H   UNL     1       1.631  12.633  16.926  0.00  0.00    +0.000 HD
ENDBRANCH  19  21
ENDBRANCH  17  19
ENDBRANCH   5  12
BRANCH   1  24
ATOM     23  C   UNL     1      -3.593  10.140  14.369  0.00  0.00    +0.000 C 
ATOM     24  O   UNL     1      -2.596  10.350  15.364  0.00  0.00    +0.000 OA
ENDBRANCH   1  24
BRANCH   6  25
ATOM     25  C   UNL     1      -3.719  13.253  21.526  0.00  0.00    +0.000 C 
BRANCH  25  26
ATOM     26  O   UNL     1      -4.552  12.411  22.340  0.00  0.00    +0.000 OA
BRANCH  26  27
ATOM     27  C   UNL     1      -5.088  12.960  23.456  0.00  0.00    +0.000 C 
ATOM     28  C   UNL     1      -4.312  12.509  24.656  0.00  0.00    +0.000 C 
ATOM     29  O   UNL     1      -6.097  13.650  23.494  0.00  0.00    +0.000 OA
ENDBRANCH  26  27
ENDBRANCH  25  26
ENDBRANCH   6  25
TORSDOF 7
ENDMDL
MODEL 6
REMARK VINA RESULT:      -5.8      2.349      5.881
REMARK  Name = 
REMARK  9 active torsions:
REMARK  status: ('A' for Active; 'I' for Inactive)
REMARK    1  A    between atoms: C_1  and  O_2
REMARK    2  A    between atoms: O_2  and  C_3
REMARK    3  A    between atoms: C_7  and  C_8
REMARK    4  A    between atoms: C_13  and  C_14
REMARK    5  A    between atoms: C_14  and  O_16
REMARK    6  A    between atoms: C_18  and  C_19
REMARK    7  A    between atoms: C_19  and  O_20
REMARK    8  A    between atoms: O_20  and  C_21
REMARK    9  A    between atoms: C_21  and  C_22
REMARK                            x       y       z     vdW  Elec       q    Type
REMARK                         _______ _______ _______ _____ _____    ______ ____
ROOT
ATOM      1  C   UNL     1      -3.157  10.429  16.453  0.00  0.00    +0.000 C 
ATOM      2  C   UNL     1      -1.945  10.407  17.456  0.00  0.00    +0.000 C 
ATOM      3  O   UNL     1      -0.922   9.774  17.536  0.00  0.00    +0.000 OA
ATOM      4  N   UNL     1      -2.567  11.331  18.227  0.00  0.00    +0.000 N 
ATOM      5  C   UNL     1      -2.406  11.912  19.456  0.00  0.00    +0.000 C 
ATOM      6  C   UNL     1      -3.474  12.481  20.088  0.00  0.00    +0.000 C 
ATOM      7  C   UNL     1      -4.834  12.684  19.427  0.00  0.00    +0.000 C 
ATOM      8  S   UNL     1      -5.135  11.562  18.088  0.00  0.00    +0.000 S 
ATOM      9  O   UNL     1      -5.336  10.238  18.650  0.00  0.00    +0.000 OA
ATOM     10  O   UNL     1      -6.176  12.161  17.268  0.00  0.00    +0.000 OA
ATOM     11  C   UNL     1      -3.593  11.668  17.253  0.00  0.00    +0.000 C 
ENDROOT
BRANCH   5  12
ATOM     12  C   UNL     1      -1.044  11.740  20.123  0.00  0.00    +0.000 C 
ATOM     13  O   UNL     1      -0.833  10.756  20.827  0.00  0.00    +0.000 OA
ATOM     14  N   UNL     1      -0.063  12.692  19.905  0.00  0.00    +0.000 N 
ATOM     15  C   UNL     1       1.274  12.508  20.439  0.00  0.00    +0.000 C 
ATOM     16  C   UNL     1       1.711  13.934  20.732  0.00  0.00    +0.000 C 
ATOM     17  C   UNL     1       1.039  14.769  19.626  0.00  0.00    +0.000 C 
ATOM     18  C   UNL     1      -0.021  13.836  19.009  0.00  0.00    +0.000 C 
BRANCH  17  19
ATOM     19  C   UNL     1       2.011  15.264  18.588  0.00  0.00    +0.000 C 
ATOM     20  O   UNL     1       2.814  14.559  17.992  0.00  0.00    +0.000 OA
BRANCH  19  21
ATOM     21  O   UNL     1       1.877  16.583  18.307  0.00  0.00    +0.000 OA
ATOM     22  H   UNL     1       1.055  16.996  18.634  0.00  0.00    +0.000 HD
ENDBRANCH  19  21
ENDBRANCH  17  19
ENDBRANCH   5  12
BRANCH   1  24
ATOM     23  C   UNL     1      -3.680  10.003  14.122  0.00  0.00    +0.000 C 
ATOM     24  O   UNL     1      -2.824  10.650  15.058  0.00  0.00    +0.000 OA
ENDBRANCH   1  24
BRANCH   6  25
ATOM     25  C   UNL     1      -3.464  12.921  21.546  0.00  0.00    +0.000 C 
BRANCH  25  26
ATOM     26  O   UNL     1      -4.619  12.400  22.222  0.00  0.00    +0.000 OA
BRANCH  26  27
ATOM     27  C   UNL     1      -4.804  12.769  23.512  0.00  0.00    +0.000 C 
ATOM     28  C   UNL     1      -4.789  14.264  23.610  0.00  0.00    +0.000 C 
ATOM     29  O   UNL     1      -4.890  12.006  24.464  0.00  0.00    +0.000 OA
ENDBRANCH  26  27
ENDBRANCH  25  26
ENDBRANCH   6  25
TORSDOF 7
ENDMDL
MODEL 7
REMARK VINA RESULT:      -5.7      2.973      6.203
REMARK  Name = 
REMARK  9 active torsions:
REMARK  status: ('A' for Active; 'I' for Inactive)
REMARK    1  A    between atoms: C_1  and  O_2
REMARK    2  A    between atoms: O_2  and  C_3
REMARK    3  A    between atoms: C_7  and  C_8
REMARK    4  A    between atoms: C_13  and  C_14
REMARK    5  A    between atoms: C_14  and  O_16
REMARK    6  A    between atoms: C_18  and  C_19
REMARK    7  A    between atoms: C_19  and  O_20
REMARK    8  A    between atoms: O_20  and  C_21
REMARK    9  A    between atoms: C_21  and  C_22
REMARK                            x       y       z     vdW  Elec       q    Type
REMARK                         _______ _______ _______ _____ _____    ______ ____
ROOT
ATOM      1  C   UNL     1      -0.220  16.545  20.301  0.00  0.00    +0.000 C 
ATOM      2  C   UNL     1      -1.499  15.630  20.259  0.00  0.00    +0.000 C 
ATOM      3  O   UNL     1      -2.684  15.823  20.366  0.00  0.00    +0.000 OA
ATOM      4  N   UNL     1      -0.710  14.535  20.136  0.00  0.00    +0.000 N 
ATOM      5  C   UNL     1      -0.842  13.172  20.161  0.00  0.00    +0.000 C 
ATOM      6  C   UNL     1       0.238  12.386  20.444  0.00  0.00    +0.000 C 
ATOM      7  C   UNL     1       1.662  12.921  20.558  0.00  0.00    +0.000 C 
ATOM      8  S   UNL     1       1.731  14.644  20.969  0.00  0.00    +0.000 S 
ATOM      9  O   UNL     1       1.308  14.792  22.351  0.00  0.00    +0.000 OA
ATOM     10  O   UNL     1       3.045  15.117  20.566  0.00  0.00    +0.000 OA
ATOM     11  C   UNL     1       0.516  15.267  19.865  0.00  0.00    +0.000 C 
ENDROOT
BRANCH   5  12
ATOM     12  C   UNL     1      -2.257  12.617  20.025  0.00  0.00    +0.000 C 
ATOM     13  O   UNL     1      -3.072  12.806  20.924  0.00  0.00    +0.000 OA
ATOM     14  N   UNL     1      -2.601  11.924  18.876  0.00  0.00    +0.000 N 
ATOM     15  C   UNL     1      -3.964  11.473  18.668  0.00  0.00    +0.000 C 
ATOM     16  C   UNL     1      -3.768  10.184  17.887  0.00  0.00    +0.000 C 
ATOM     17  C   UNL     1      -2.520  10.451  17.025  0.00  0.00    +0.000 C 
ATOM     18  C   UNL     1      -1.876  11.711  17.634  0.00  0.00    +0.000 C 
BRANCH  17  19
ATOM     19  C   UNL     1      -2.842  10.645  15.567  0.00  0.00    +0.000 C 
ATOM     20  O   UNL     1      -2.578   9.842  14.682  0.00  0.00    +0.000 OA
BRANCH  19  21
ATOM     21  O   UNL     1      -3.529  11.785  15.311  0.00  0.00    +0.000 OA
ATOM     22  H   UNL     1      -3.009  12.608  15.385  0.00  0.00    +0.000 HD
ENDBRANCH  19  21
ENDBRANCH  17  19
ENDBRANCH   5  12
BRANCH   1  24
ATOM     23  C   UNL     1      -0.364  17.286  17.994  0.00  0.00    +0.000 C 
ATOM     24  O   UNL     1      -0.200  17.651  19.361  0.00  0.00    +0.000 OA
ENDBRANCH   1  24
BRANCH   6  25
ATOM     25  C   UNL     1       0.150  10.897  20.747  0.00  0.00    +0.000 C 
BRANCH  25  26
ATOM     26  O   UNL     1      -0.428  10.695  22.046  0.00  0.00    +0.000 OA
BRANCH  26  27
ATOM     27  C   UNL     1      -0.060   9.582  22.725  0.00  0.00    +0.000 C 
ATOM     28  C   UNL     1      -0.370   8.369  21.900  0.00  0.00    +0.000 C 
ATOM     29  O   UNL     1       0.383   9.558  23.864  0.00  0.00    +0.000 OA
ENDBRANCH  26  27
ENDBRANCH  25  26
ENDBRANCH   6  25
TORSDOF 7
ENDMDL
MODEL 8
REMARK VINA RESULT:      -5.7      1.523      4.612
REMARK  Name = 
REMARK  9 active torsions:
REMARK  status: ('A' for Active; 'I' for Inactive)
REMARK    1  A    between atoms: C_1  and  O_2
REMARK    2  A    between atoms: O_2  and  C_3
REMARK    3  A    between atoms: C_7  and  C_8
REMARK    4  A    between atoms: C_13  and  C_14
REMARK    5  A    between atoms: C_14  and  O_16
REMARK    6  A    between atoms: C_18  and  C_19
REMARK    7  A    between atoms: C_19  and  O_20
REMARK    8  A    between atoms: O_20  and  C_21
REMARK    9  A    between atoms: C_21  and  C_22
REMARK                            x       y       z     vdW  Elec       q    Type
REMARK                         _______ _______ _______ _____ _____    ______ ____
ROOT
ATOM      1  C   UNL     1      -5.590  11.678  18.943  0.00  0.00    +0.000 C 
ATOM      2  C   UNL     1      -4.043  11.493  18.726  0.00  0.00    +0.000 C 
ATOM      3  O   UNL     1      -3.358  10.687  18.148  0.00  0.00    +0.000 OA
ATOM      4  N   UNL     1      -3.804  12.563  19.522  0.00  0.00    +0.000 N 
ATOM      5  C   UNL     1      -2.733  13.180  20.112  0.00  0.00    +0.000 C 
ATOM      6  C   UNL     1      -2.919  13.976  21.205  0.00  0.00    +0.000 C 
ATOM      7  C   UNL     1      -4.294  14.387  21.723  0.00  0.00    +0.000 C 
ATOM      8  S   UNL     1      -5.581  13.260  21.260  0.00  0.00    +0.000 S 
ATOM      9  O   UNL     1      -5.397  12.033  22.016  0.00  0.00    +0.000 OA
ATOM     10  O   UNL     1      -6.834  13.989  21.369  0.00  0.00    +0.000 OA
ATOM     11  C   UNL     1      -5.182  13.024  19.565  0.00  0.00    +0.000 C 
ENDROOT
BRANCH   5  12
ATOM     12  C   UNL     1      -1.350  12.798  19.591  0.00  0.00    +0.000 C 
ATOM     13  O   UNL     1      -0.872  13.405  18.636  0.00  0.00    +0.000 OA
ATOM     14  N   UNL     1      -0.649  11.783  20.222  0.00  0.00    +0.000 N 
ATOM     15  C   UNL     1       0.708  11.465  19.819  0.00  0.00    +0.000 C 
ATOM     16  C   UNL     1       0.779   9.966  20.060  0.00  0.00    +0.000 C 
ATOM     17  C   UNL     1      -0.120   9.738  21.289  0.00  0.00    +0.000 C 
ATOM     18  C   UNL     1      -0.929  11.040  21.440  0.00  0.00    +0.000 C 
BRANCH  17  19
ATOM     19  C   UNL     1       0.659   9.424  22.539  0.00  0.00    +0.000 C 
ATOM     20  O   UNL     1       0.285   9.677  23.676  0.00  0.00    +0.000 OA
BRANCH  19  21
ATOM     21  O   UNL     1       1.816   8.758  22.302  0.00  0.00    +0.000 OA
ATOM     22  H   UNL     1       2.012   8.031  22.924  0.00  0.00    +0.000 HD
ENDBRANCH  19  21
ENDBRANCH  17  19
ENDBRANCH   5  12
BRANCH   1  24
ATOM     23  C   UNL     1      -6.668  13.062  17.266  0.00  0.00    +0.000 C 
ATOM     24  O   UNL     1      -6.397  11.746  17.738  0.00  0.00    +0.000 OA
ENDBRANCH   1  24
BRANCH   6  25
ATOM     25  C   UNL     1      -1.788  14.495  22.082  0.00  0.00    +0.000 C 
BRANCH  25  26
ATOM     26  O   UNL     1      -1.932  13.988  23.418  0.00  0.00    +0.000 OA
BRANCH  26  27
ATOM     27  C   UNL     1      -1.573  14.806  24.436  0.00  0.00    +0.000 C 
ATOM     28  C   UNL     1      -2.736  14.989  25.363  0.00  0.00    +0.000 C 
ATOM     29  O   UNL     1      -0.495  15.374  24.544  0.00  0.00    +0.000 OA
ENDBRANCH  26  27
ENDBRANCH  25  26
ENDBRANCH   6  25
TORSDOF 7
ENDMDL
MODEL 9
REMARK VINA RESULT:      -5.7      2.850      6.082
REMARK  Name = 
REMARK  9 active torsions:
REMARK  status: ('A' for Active; 'I' for Inactive)
REMARK    1  A    between atoms: C_1  and  O_2
REMARK    2  A    between atoms: O_2  and  C_3
REMARK    3  A    between atoms: C_7  and  C_8
REMARK    4  A    between atoms: C_13  and  C_14
REMARK    5  A    between atoms: C_14  and  O_16
REMARK    6  A    between atoms: C_18  and  C_19
REMARK    7  A    between atoms: C_19  and  O_20
REMARK    8  A    between atoms: O_20  and  C_21
REMARK    9  A    between atoms: C_21  and  C_22
REMARK                            x       y       z     vdW  Elec       q    Type
REMARK                         _______ _______ _______ _____ _____    ______ ____
ROOT
ATOM      1  C   UNL     1       0.365  16.071  19.996  0.00  0.00    +0.000 C 
ATOM      2  C   UNL     1      -1.073  15.438  20.087  0.00  0.00    +0.000 C 
ATOM      3  O   UNL     1      -2.178  15.871  20.300  0.00  0.00    +0.000 OA
ATOM      4  N   UNL     1      -0.541  14.205  19.909  0.00  0.00    +0.000 N 
ATOM      5  C   UNL     1      -0.946  12.898  19.968  0.00  0.00    +0.000 C 
ATOM      6  C   UNL     1      -0.029  11.906  20.162  0.00  0.00    +0.000 C 
ATOM      7  C   UNL     1       1.479  12.136  20.135  0.00  0.00    +0.000 C 
ATOM      8  S   UNL     1       1.938  13.806  20.510  0.00  0.00    +0.000 S 
ATOM      9  O   UNL     1       1.687  14.034  21.923  0.00  0.00    +0.000 OA
ATOM     10  O   UNL     1       3.278  14.000  19.980  0.00  0.00    +0.000 OA
ATOM     11  C   UNL     1       0.778  14.670  19.513  0.00  0.00    +0.000 C 
ENDROOT
BRANCH   5  12
ATOM     12  C   UNL     1      -2.451  12.647  19.973  0.00  0.00    +0.000 C 
ATOM     13  O   UNL     1      -3.009  12.282  18.941  0.00  0.00    +0.000 OA
ATOM     14  N   UNL     1      -3.159  12.819  21.151  0.00  0.00    +0.000 N 
ATOM     15  C   UNL     1      -4.571  12.489  21.216  0.00  0.00    +0.000 C 
ATOM     16  C   UNL     1      -5.099  13.508  22.213  0.00  0.00    +0.000 C 
ATOM     17  C   UNL     1      -3.937  13.707  23.202  0.00  0.00    +0.000 C 
ATOM     18  C   UNL     1      -2.710  13.087  22.507  0.00  0.00    +0.000 C 
BRANCH  17  19
ATOM     19  C   UNL     1      -4.190  13.074  24.545  0.00  0.00    +0.000 C 
ATOM     20  O   UNL     1      -4.675  11.963  24.712  0.00  0.00    +0.000 OA
BRANCH  19  21
ATOM     21  O   UNL     1      -3.762  13.828  25.588  0.00  0.00    +0.000 OA
ATOM     22  H   UNL     1      -2.849  13.648  25.883  0.00  0.00    +0.000 HD
ENDBRANCH  19  21
ENDBRANCH  17  19
ENDBRANCH   5  12
BRANCH   1  24
ATOM     23  C   UNL     1       0.544  18.459  19.605  0.00  0.00    +0.000 C 
ATOM     24  O   UNL     1       0.523  17.152  19.040  0.00  0.00    +0.000 OA
ENDBRANCH   1  24
BRANCH   6  25
ATOM     25  C   UNL     1      -0.392  10.466  20.495  0.00  0.00    +0.000 C 
BRANCH  25  26
ATOM     26  O   UNL     1      -0.632  10.335  21.906  0.00  0.00    +0.000 OA
BRANCH  26  27
ATOM     27  C   UNL     1       0.264   9.617  22.624  0.00  0.00    +0.000 C 
ATOM     28  C   UNL     1       1.021   8.703  21.709  0.00  0.00    +0.000 C 
ATOM     29  O   UNL     1       0.386   9.647  23.841  0.00  0.00    +0.000 OA
ENDBRANCH  26  27
ENDBRANCH  25  26
ENDBRANCH   6  25
TORSDOF 7
ENDMDL
