MODEL 1
REMARK VINA RESULT:      -5.1      0.000      0.000
REMARK  Name = 
REMARK  4 active torsions:
REMARK  status: ('A' for Active; 'I' for Inactive)
REMARK    1  A    between atoms: C_2  and  O_3
REMARK    2  A    between atoms: C_2  and  C_4
REMARK    3  A    between atoms: C_4  and  O_5
REMARK    4  A    between atoms: C_4  and  C_6
REMARK                            x       y       z     vdW  Elec       q    Type
REMARK                         _______ _______ _______ _____ _____    ______ ____
ROOT
ATOM      1  C   UNL     1       7.452   4.856  17.480  0.00  0.00    +0.000 C 
ENDROOT
BRANCH   1   2
ATOM      2  C   UNL     1       6.951   4.610  16.099  0.00  0.00    +0.000 A 
ATOM      3  C   UNL     1       5.932   3.840  15.575  0.00  0.00    +0.000 A 
ATOM      4  C   UNL     1       5.987   3.997  14.170  0.00  0.00    +0.000 A 
ATOM      5  C   UNL     1       7.034   4.851  13.924  0.00  0.00    +0.000 A 
ATOM      6  O   UNL     1       7.632   5.228  15.085  0.00  0.00    +0.000 OA
ENDBRANCH   1   2
BRANCH   1   8
ATOM      7  O   UNL     1       8.102   6.856  18.715  0.00  0.00    +0.000 OA
ATOM      8  C   UNL     1       7.479   6.364  17.781  0.00  0.00    +0.000 C 
BRANCH   8   9
ATOM      9  O   UNL     1       6.770   7.132  16.911  0.00  0.00    +0.000 OA
ATOM     10  H   UNL     1       5.800   6.996  16.990  0.00  0.00    +0.000 HD
ENDBRANCH   8   9
ENDBRANCH   1   8
BRANCH   1  11
ATOM     11  O   UNL     1       6.616   4.127  18.373  0.00  0.00    +0.000 OA
ATOM     12  H   UNL     1       6.830   4.458  19.268  0.00  0.00    +0.000 HD
ENDBRANCH   1  11
TORSDOF 4
ENDMDL
MODEL 2
REMARK VINA RESULT:      -5.0      2.287      3.217
REMARK  Name = 
REMARK  4 active torsions:
REMARK  status: ('A' for Active; 'I' for Inactive)
REMARK    1  A    between atoms: C_2  and  O_3
REMARK    2  A    between atoms: C_2  and  C_4
REMARK    3  A    between atoms: C_4  and  O_5
REMARK    4  A    between atoms: C_4  and  C_6
REMARK                            x       y       z     vdW  Elec       q    Type
REMARK                         _______ _______ _______ _____ _____    ______ ____
ROOT
ATOM      1  C   UNL     1       7.425   5.128  17.748  0.00  0.00    +0.000 C 
ENDROOT
BRANCH   1   2
ATOM      2  C   UNL     1       6.029   4.657  17.966  0.00  0.00    +0.000 A 
ATOM      3  C   UNL     1       4.829   4.896  17.328  0.00  0.00    +0.000 A 
ATOM      4  C   UNL     1       3.840   4.178  18.042  0.00  0.00    +0.000 A 
ATOM      5  C   UNL     1       4.498   3.546  19.070  0.00  0.00    +0.000 A 
ATOM      6  O   UNL     1       5.827   3.831  19.039  0.00  0.00    +0.000 OA
ENDBRANCH   1   2
BRANCH   1   8
ATOM      7  O   UNL     1       8.239   7.232  18.673  0.00  0.00    +0.000 OA
ATOM      8  C   UNL     1       7.852   6.087  18.872  0.00  0.00    +0.000 C 
BRANCH   8   9
ATOM      9  O   UNL     1       7.745   5.577  20.128  0.00  0.00    +0.000 OA
ATOM     10  H   UNL     1       7.086   6.057  20.677  0.00  0.00    +0.000 HD
ENDBRANCH   8   9
ENDBRANCH   1   8
BRANCH   1  11
ATOM     11  O   UNL     1       8.255   3.975  17.658  0.00  0.00    +0.000 OA
ATOM     12  H   UNL     1       8.747   4.065  16.818  0.00  0.00    +0.000 HD
ENDBRANCH   1  11
TORSDOF 4
ENDMDL
MODEL 3
REMARK VINA RESULT:      -5.0      1.396      1.965
REMARK  Name = 
REMARK  4 active torsions:
REMARK  status: ('A' for Active; 'I' for Inactive)
REMARK    1  A    between atoms: C_2  and  O_3
REMARK    2  A    between atoms: C_2  and  C_4
REMARK    3  A    between atoms: C_4  and  O_5
REMARK    4  A    between atoms: C_4  and  C_6
REMARK                            x       y       z     vdW  Elec       q    Type
REMARK                         _______ _______ _______ _____ _____    ______ ____
ROOT
ATOM      1  C   UNL     1       7.124   4.903  17.605  0.00  0.00    +0.000 C 
ENDROOT
BRANCH   1   2
ATOM      2  C   UNL     1       6.784   4.638  16.179  0.00  0.00    +0.000 A 
ATOM      3  C   UNL     1       5.850   3.837  15.553  0.00  0.00    +0.000 A 
ATOM      4  C   UNL     1       6.054   3.991  14.161  0.00  0.00    +0.000 A 
ATOM      5  C   UNL     1       7.098   4.874  14.025  0.00  0.00    +0.000 A 
ATOM      6  O   UNL     1       7.554   5.271  15.242  0.00  0.00    +0.000 OA
ENDBRANCH   1   2
BRANCH   1   8
ATOM      7  O   UNL     1       5.052   5.582  18.699  0.00  0.00    +0.000 OA
ATOM      8  C   UNL     1       5.887   4.707  18.498  0.00  0.00    +0.000 C 
BRANCH   8   9
ATOM      9  O   UNL     1       5.767   3.467  19.042  0.00  0.00    +0.000 OA
ATOM     10  H   UNL     1       5.375   2.817  18.417  0.00  0.00    +0.000 HD
ENDBRANCH   8   9
ENDBRANCH   1   8
BRANCH   1  11
ATOM     11  O   UNL     1       8.201   4.041  17.954  0.00  0.00    +0.000 OA
ATOM     12  H   UNL     1       7.828   3.386  18.577  0.00  0.00    +0.000 HD
ENDBRANCH   1  11
TORSDOF 4
ENDMDL
MODEL 4
REMARK VINA RESULT:      -4.9      4.857      6.260
REMARK  Name = 
REMARK  4 active torsions:
REMARK  status: ('A' for Active; 'I' for Inactive)
REMARK    1  A    between atoms: C_2  and  O_3
REMARK    2  A    between atoms: C_2  and  C_4
REMARK    3  A    between atoms: C_4  and  O_5
REMARK    4  A    between atoms: C_4  and  C_6
REMARK                            x       y       z     vdW  Elec       q    Type
REMARK                         _______ _______ _______ _____ _____    ______ ____
ROOT
ATOM      1  C   UNL     1       3.446   2.058  18.213  0.00  0.00    +0.000 C 
ENDROOT
BRANCH   1   2
ATOM      2  C   UNL     1       2.653   2.377  19.433  0.00  0.00    +0.000 A 
ATOM      3  C   UNL     1       1.314   2.616  19.666  0.00  0.00    +0.000 A 
ATOM      4  C   UNL     1       1.188   2.903  21.046  0.00  0.00    +0.000 A 
ATOM      5  C   UNL     1       2.456   2.821  21.569  0.00  0.00    +0.000 A 
ATOM      6  O   UNL     1       3.357   2.507  20.600  0.00  0.00    +0.000 OA
ENDBRANCH   1   2
BRANCH   1   8
ATOM      7  O   UNL     1       4.221   3.956  16.892  0.00  0.00    +0.000 OA
ATOM      8  C   UNL     1       4.385   3.225  17.862  0.00  0.00    +0.000 C 
BRANCH   8   9
ATOM      9  O   UNL     1       5.416   3.409  18.730  0.00  0.00    +0.000 OA
ATOM     10  H   UNL     1       6.106   4.011  18.374  0.00  0.00    +0.000 HD
ENDBRANCH   8   9
ENDBRANCH   1   8
BRANCH   1  11
ATOM     11  O   UNL     1       4.143   0.843  18.464  0.00  0.00    +0.000 OA
ATOM     12  H   UNL     1       3.708   0.166  17.908  0.00  0.00    +0.000 HD
ENDBRANCH   1  11
TORSDOF 4
ENDMDL
MODEL 5
REMARK VINA RESULT:      -4.9      1.293      3.712
REMARK  Name = 
REMARK  4 active torsions:
REMARK  status: ('A' for Active; 'I' for Inactive)
REMARK    1  A    between atoms: C_2  and  O_3
REMARK    2  A    between atoms: C_2  and  C_4
REMARK    3  A    between atoms: C_4  and  O_5
REMARK    4  A    between atoms: C_4  and  C_6
REMARK                            x       y       z     vdW  Elec       q    Type
REMARK                         _______ _______ _______ _____ _____    ______ ____
ROOT
ATOM      1  C   UNL     1       6.010   4.648  15.798  0.00  0.00    +0.000 C 
ENDROOT
BRANCH   1   2
ATOM      2  C   UNL     1       6.738   5.484  16.793  0.00  0.00    +0.000 A 
ATOM      3  C   UNL     1       7.366   5.213  17.992  0.00  0.00    +0.000 A 
ATOM      4  C   UNL     1       7.842   6.450  18.489  0.00  0.00    +0.000 A 
ATOM      5  C   UNL     1       7.476   7.397  17.564  0.00  0.00    +0.000 A 
ATOM      6  O   UNL     1       6.801   6.826  16.531  0.00  0.00    +0.000 OA
ENDBRANCH   1   2
BRANCH   1   8
ATOM      7  O   UNL     1       6.447   3.913  13.514  0.00  0.00    +0.000 OA
ATOM      8  C   UNL     1       6.766   4.627  14.458  0.00  0.00    +0.000 C 
BRANCH   8   9
ATOM      9  O   UNL     1       7.817   5.486  14.382  0.00  0.00    +0.000 OA
ATOM     10  H   UNL     1       8.550   5.138  13.828  0.00  0.00    +0.000 HD
ENDBRANCH   8   9
ENDBRANCH   1   8
BRANCH   1  11
ATOM     11  O   UNL     1       5.851   3.352  16.365  0.00  0.00    +0.000 OA
ATOM     12  H   UNL     1       4.940   3.074  16.141  0.00  0.00    +0.000 HD
ENDBRANCH   1  11
TORSDOF 4
ENDMDL
MODEL 6
REMARK VINA RESULT:      -4.8      4.897      5.954
REMARK  Name = 
REMARK  4 active torsions:
REMARK  status: ('A' for Active; 'I' for Inactive)
REMARK    1  A    between atoms: C_2  and  O_3
REMARK    2  A    between atoms: C_2  and  C_4
REMARK    3  A    between atoms: C_4  and  O_5
REMARK    4  A    between atoms: C_4  and  C_6
REMARK                            x       y       z     vdW  Elec       q    Type
REMARK                         _______ _______ _______ _____ _____    ______ ____
ROOT
ATOM      1  C   UNL     1       4.355   2.701  19.302  0.00  0.00    +0.000 C 
ENDROOT
BRANCH   1   2
ATOM      2  C   UNL     1       3.045   2.856  19.993  0.00  0.00    +0.000 A 
ATOM      3  C   UNL     1       2.641   2.757  21.310  0.00  0.00    +0.000 A 
ATOM      4  C   UNL     1       1.243   2.977  21.322  0.00  0.00    +0.000 A 
ATOM      5  C   UNL     1       0.881   3.197  20.015  0.00  0.00    +0.000 A 
ATOM      6  O   UNL     1       1.964   3.122  19.197  0.00  0.00    +0.000 OA
ENDBRANCH   1   2
BRANCH   1   8
ATOM      7  O   UNL     1       4.532   5.127  19.486  0.00  0.00    +0.000 OA
ATOM      8  C   UNL     1       5.040   4.069  19.135  0.00  0.00    +0.000 C 
BRANCH   8   9
ATOM      9  O   UNL     1       6.282   4.021  18.583  0.00  0.00    +0.000 OA
ATOM     10  H   UNL     1       6.460   4.781  17.986  0.00  0.00    +0.000 HD
ENDBRANCH   8   9
ENDBRANCH   1   8
BRANCH   1  11
ATOM     11  O   UNL     1       5.132   1.782  20.062  0.00  0.00    +0.000 OA
ATOM     12  H   UNL     1       4.489   1.221  20.540  0.00  0.00    +0.000 HD
ENDBRANCH   1  11
TORSDOF 4
ENDMDL
MODEL 7
REMARK VINA RESULT:      -4.7      1.045      2.034
REMARK  Name = 
REMARK  4 active torsions:
REMARK  status: ('A' for Active; 'I' for Inactive)
REMARK    1  A    between atoms: C_2  and  O_3
REMARK    2  A    between atoms: C_2  and  C_4
REMARK    3  A    between atoms: C_4  and  O_5
REMARK    4  A    between atoms: C_4  and  C_6
REMARK                            x       y       z     vdW  Elec       q    Type
REMARK                         _______ _______ _______ _____ _____    ______ ____
ROOT
ATOM      1  C   UNL     1       6.853   6.772  17.503  0.00  0.00    +0.000 C 
ENDROOT
BRANCH   1   2
ATOM      2  C   UNL     1       6.468   5.897  16.361  0.00  0.00    +0.000 A 
ATOM      3  C   UNL     1       5.309   5.230  16.016  0.00  0.00    +0.000 A 
ATOM      4  C   UNL     1       5.588   4.527  14.820  0.00  0.00    +0.000 A 
ATOM      5  C   UNL     1       6.896   4.808  14.510  0.00  0.00    +0.000 A 
ATOM      6  O   UNL     1       7.445   5.635  15.439  0.00  0.00    +0.000 OA
ENDBRANCH   1   2
BRANCH   1   8
ATOM      7  O   UNL     1       7.593   4.757  18.660  0.00  0.00    +0.000 OA
ATOM      8  C   UNL     1       7.657   5.975  18.545  0.00  0.00    +0.000 C 
BRANCH   8   9
ATOM      9  O   UNL     1       8.476   6.725  19.328  0.00  0.00    +0.000 OA
ATOM     10  H   UNL     1       8.211   6.711  20.275  0.00  0.00    +0.000 HD
ENDBRANCH   8   9
ENDBRANCH   1   8
BRANCH   1  11
ATOM     11  O   UNL     1       7.577   7.875  16.970  0.00  0.00    +0.000 OA
ATOM     12  H   UNL     1       6.963   8.327  16.357  0.00  0.00    +0.000 HD
ENDBRANCH   1  11
TORSDOF 4
ENDMDL
MODEL 8
REMARK VINA RESULT:      -4.7      0.969      1.866
REMARK  Name = 
REMARK  4 active torsions:
REMARK  status: ('A' for Active; 'I' for Inactive)
REMARK    1  A    between atoms: C_2  and  O_3
REMARK    2  A    between atoms: C_2  and  C_4
REMARK    3  A    between atoms: C_4  and  O_5
REMARK    4  A    between atoms: C_4  and  C_6
REMARK                            x       y       z     vdW  Elec       q    Type
REMARK                         _______ _______ _______ _____ _____    ______ ____
ROOT
ATOM      1  C   UNL     1       6.741   5.967  17.049  0.00  0.00    +0.000 C 
ENDROOT
BRANCH   1   2
ATOM      2  C   UNL     1       6.506   5.264  15.758  0.00  0.00    +0.000 A 
ATOM      3  C   UNL     1       5.514   4.423  15.295  0.00  0.00    +0.000 A 
ATOM      4  C   UNL     1       5.881   4.050  13.979  0.00  0.00    +0.000 A 
ATOM      5  C   UNL     1       7.070   4.687  13.722  0.00  0.00    +0.000 A 
ATOM      6  O   UNL     1       7.464   5.424  14.794  0.00  0.00    +0.000 OA
ENDBRANCH   1   2
BRANCH   1   8
ATOM      7  O   UNL     1       8.184   4.315  18.116  0.00  0.00    +0.000 OA
ATOM      8  C   UNL     1       7.144   4.962  18.143  0.00  0.00    +0.000 C 
BRANCH   8   9
ATOM      9  O   UNL     1       6.262   4.856  19.173  0.00  0.00    +0.000 OA
ATOM     10  H   UNL     1       5.339   5.063  18.903  0.00  0.00    +0.000 HD
ENDBRANCH   8   9
ENDBRANCH   1   8
BRANCH   1  11
ATOM     11  O   UNL     1       7.733   6.961  16.819  0.00  0.00    +0.000 OA
ATOM     12  H   UNL     1       8.591   6.531  17.006  0.00  0.00    +0.000 HD
ENDBRANCH   1  11
TORSDOF 4
ENDMDL
MODEL 9
REMARK VINA RESULT:      -4.7      4.761      5.882
REMARK  Name = 
REMARK  4 active torsions:
REMARK  status: ('A' for Active; 'I' for Inactive)
REMARK    1  A    between atoms: C_2  and  O_3
REMARK    2  A    between atoms: C_2  and  C_4
REMARK    3  A    between atoms: C_4  and  O_5
REMARK    4  A    between atoms: C_4  and  C_6
REMARK                            x       y       z     vdW  Elec       q    Type
REMARK                         _______ _______ _______ _____ _____    ______ ____
ROOT
ATOM      1  C   UNL     1       4.365   2.836  19.174  0.00  0.00    +0.000 C 
ENDROOT
BRANCH   1   2
ATOM      2  C   UNL     1       2.990   2.936  19.737  0.00  0.00    +0.000 A 
ATOM      3  C   UNL     1       1.733   3.051  19.176  0.00  0.00    +0.000 A 
ATOM      4  C   UNL     1       0.817   3.142  20.250  0.00  0.00    +0.000 A 
ATOM      5  C   UNL     1       1.569   3.077  21.398  0.00  0.00    +0.000 A 
ATOM      6  O   UNL     1       2.890   2.956  21.102  0.00  0.00    +0.000 OA
ENDBRANCH   1   2
BRANCH   1   8
ATOM      7  O   UNL     1       6.230   4.381  18.882  0.00  0.00    +0.000 OA
ATOM      8  C   UNL     1       5.063   4.207  19.214  0.00  0.00    +0.000 C 
BRANCH   8   9
ATOM      9  O   UNL     1       4.276   5.235  19.628  0.00  0.00    +0.000 OA
ATOM     10  H   UNL     1       4.492   6.081  19.176  0.00  0.00    +0.000 HD
ENDBRANCH   8   9
ENDBRANCH   1   8
BRANCH   1  11
ATOM     11  O   UNL     1       5.058   1.839  19.917  0.00  0.00    +0.000 OA
ATOM     12  H   UNL     1       4.413   1.118  20.061  0.00  0.00    +0.000 HD
ENDBRANCH   1  11
TORSDOF 4
ENDMDL
