MODEL 1
REMARK VINA RESULT:      -6.6      0.000      0.000
REMARK  Name = 
REMARK  9 active torsions:
REMARK  status: ('A' for Active; 'I' for Inactive)
REMARK    1  A    between atoms: C_1  and  O_2
REMARK    2  A    between atoms: O_2  and  C_3
REMARK    3  A    between atoms: C_6  and  C_7
REMARK    4  A    between atoms: C_7  and  N_8
REMARK    5  A    between atoms: C_15  and  C_16
REMARK    6  A    between atoms: C_16  and  O_17
REMARK    7  A    between atoms: O_17  and  C_18
REMARK    8  A    between atoms: C_18  and  C_19
REMARK    9  A    between atoms: C_18  and  C_20
REMARK                            x       y       z     vdW  Elec       q    Type
REMARK                         _______ _______ _______ _____ _____    ______ ____
ROOT
ATOM      1  N   UNL     1       2.455   6.169  18.285  0.00  0.00    +0.000 NA
ATOM      2  C   UNL     1       1.517   5.155  17.856  0.00  0.00    +0.000 C 
ATOM      3  C   UNL     1       1.782   3.782  18.445  0.00  0.00    +0.000 C 
ATOM      4  C   UNL     1       3.076   3.086  18.045  0.00  0.00    +0.000 C 
ATOM      5  N   UNL     1       4.103   3.747  17.281  0.00  0.00    +0.000 N 
ATOM      6  C   UNL     1       5.086   3.008  16.662  0.00  0.00    +0.000 A 
ATOM      7  N   UNL     1       5.950   3.760  16.033  0.00  0.00    +0.000 NA
ATOM      8  C   UNL     1       5.533   5.045  16.265  0.00  0.00    +0.000 A 
ATOM      9  C   UNL     1       4.390   5.070  17.065  0.00  0.00    +0.000 A 
ATOM     10  C   UNL     1       3.686   6.296  17.534  0.00  0.00    +0.000 C 
ENDROOT
BRANCH   1  11
ATOM     11  C   UNL     1       2.524   6.497  19.704  0.00  0.00    +0.000 C 
BRANCH  11  15
ATOM     12  C   UNL     1       0.171  10.006  20.665  0.00  0.00    +0.000 A 
ATOM     13  C   UNL     1       0.806   9.908  19.426  0.00  0.00    +0.000 A 
ATOM     14  C   UNL     1       1.599   8.796  19.117  0.00  0.00    +0.000 A 
ATOM     15  C   UNL     1       1.783   7.775  20.057  0.00  0.00    +0.000 A 
ATOM     16  C   UNL     1       1.194   7.918  21.324  0.00  0.00    +0.000 A 
ATOM     17  C   UNL     1       0.401   9.027  21.630  0.00  0.00    +0.000 A 
BRANCH  12  19
ATOM     18  C   UNL     1      -0.975  11.379  22.196  0.00  0.00    +0.000 C 
ATOM     19  O   UNL     1      -0.636  11.096  20.837  0.00  0.00    +0.000 OA
ENDBRANCH  12  19
ENDBRANCH  11  15
ENDBRANCH   1  11
BRANCH   8  20
ATOM     20  C   UNL     1       6.322   6.190  15.715  0.00  0.00    +0.000 C 
BRANCH  20  21
ATOM     21  O   UNL     1       7.525   6.478  16.443  0.00  0.00    +0.000 OA
BRANCH  21  22
ATOM     22  C   UNL     1       7.331   7.039  17.746  0.00  0.00    +0.000 C 
ATOM     23  C   UNL     1       7.892   6.157  18.856  0.00  0.00    +0.000 C 
ATOM     24  C   UNL     1       8.034   8.392  17.738  0.00  0.00    +0.000 C 
ENDBRANCH  21  22
ENDBRANCH  20  21
ENDBRANCH   8  20
TORSDOF 6
ENDMDL
MODEL 2
REMARK VINA RESULT:      -6.5      2.469      4.017
REMARK  Name = 
REMARK  9 active torsions:
REMARK  status: ('A' for Active; 'I' for Inactive)
REMARK    1  A    between atoms: C_1  and  O_2
REMARK    2  A    between atoms: O_2  and  C_3
REMARK    3  A    between atoms: C_6  and  C_7
REMARK    4  A    between atoms: C_7  and  N_8
REMARK    5  A    between atoms: C_15  and  C_16
REMARK    6  A    between atoms: C_16  and  O_17
REMARK    7  A    between atoms: O_17  and  C_18
REMARK    8  A    between atoms: C_18  and  C_19
REMARK    9  A    between atoms: C_18  and  C_20
REMARK                            x       y       z     vdW  Elec       q    Type
REMARK                         _______ _______ _______ _____ _____    ______ ____
ROOT
ATOM      1  N   UNL     1       2.958   2.599  17.551  0.00  0.00    +0.000 NA
ATOM      2  C   UNL     1       3.704   1.867  18.550  0.00  0.00    +0.000 C 
ATOM      3  C   UNL     1       4.173   2.718  19.716  0.00  0.00    +0.000 C 
ATOM      4  C   UNL     1       5.191   3.811  19.420  0.00  0.00    +0.000 C 
ATOM      5  N   UNL     1       5.581   4.159  18.077  0.00  0.00    +0.000 N 
ATOM      6  C   UNL     1       6.722   4.898  17.859  0.00  0.00    +0.000 A 
ATOM      7  N   UNL     1       6.917   5.147  16.591  0.00  0.00    +0.000 NA
ATOM      8  C   UNL     1       5.852   4.569  15.951  0.00  0.00    +0.000 A 
ATOM      9  C   UNL     1       4.985   3.961  16.859  0.00  0.00    +0.000 A 
ATOM     10  C   UNL     1       3.715   3.264  16.511  0.00  0.00    +0.000 C 
ENDROOT
BRANCH   1  11
ATOM     11  C   UNL     1       1.703   3.229  17.943  0.00  0.00    +0.000 C 
BRANCH  11  15
ATOM     12  C   UNL     1       1.989   7.018  20.026  0.00  0.00    +0.000 A 
ATOM     13  C   UNL     1       2.350   6.931  18.680  0.00  0.00    +0.000 A 
ATOM     14  C   UNL     1       2.297   5.705  18.006  0.00  0.00    +0.000 A 
ATOM     15  C   UNL     1       1.900   4.543  18.679  0.00  0.00    +0.000 A 
ATOM     16  C   UNL     1       1.604   4.632  20.049  0.00  0.00    +0.000 A 
ATOM     17  C   UNL     1       1.655   5.857  20.720  0.00  0.00    +0.000 A 
BRANCH  12  19
ATOM     18  C   UNL     1       0.827   8.629  21.290  0.00  0.00    +0.000 C 
ATOM     19  O   UNL     1       2.008   8.272  20.569  0.00  0.00    +0.000 OA
ENDBRANCH  12  19
ENDBRANCH  11  15
ENDBRANCH   1  11
BRANCH   8  20
ATOM     20  C   UNL     1       5.728   4.689  14.466  0.00  0.00    +0.000 C 
BRANCH  20  21
ATOM     21  O   UNL     1       6.056   3.491  13.748  0.00  0.00    +0.000 OA
BRANCH  21  22
ATOM     22  C   UNL     1       6.065   3.616  12.322  0.00  0.00    +0.000 C 
ATOM     23  C   UNL     1       7.063   2.676  11.654  0.00  0.00    +0.000 C 
ATOM     24  C   UNL     1       4.647   3.301  11.856  0.00  0.00    +0.000 C 
ENDBRANCH  21  22
ENDBRANCH  20  21
ENDBRANCH   8  20
TORSDOF 6
ENDMDL
MODEL 3
REMARK VINA RESULT:      -6.4      1.976      3.395
REMARK  Name = 
REMARK  9 active torsions:
REMARK  status: ('A' for Active; 'I' for Inactive)
REMARK    1  A    between atoms: C_1  and  O_2
REMARK    2  A    between atoms: O_2  and  C_3
REMARK    3  A    between atoms: C_6  and  C_7
REMARK    4  A    between atoms: C_7  and  N_8
REMARK    5  A    between atoms: C_15  and  C_16
REMARK    6  A    between atoms: C_16  and  O_17
REMARK    7  A    between atoms: O_17  and  C_18
REMARK    8  A    between atoms: C_18  and  C_19
REMARK    9  A    between atoms: C_18  and  C_20
REMARK                            x       y       z     vdW  Elec       q    Type
REMARK                         _______ _______ _______ _____ _____    ______ ____
ROOT
ATOM      1  N   UNL     1       2.975   2.957  17.408  0.00  0.00    +0.000 NA
ATOM      2  C   UNL     1       3.574   1.910  18.206  0.00  0.00    +0.000 C 
ATOM      3  C   UNL     1       3.919   2.335  19.621  0.00  0.00    +0.000 C 
ATOM      4  C   UNL     1       4.996   3.399  19.789  0.00  0.00    +0.000 C 
ATOM      5  N   UNL     1       5.556   4.113  18.670  0.00  0.00    +0.000 N 
ATOM      6  C   UNL     1       6.735   4.809  18.815  0.00  0.00    +0.000 A 
ATOM      7  N   UNL     1       7.091   5.418  17.715  0.00  0.00    +0.000 NA
ATOM      8  C   UNL     1       6.096   5.131  16.817  0.00  0.00    +0.000 A 
ATOM      9  C   UNL     1       5.108   4.333  17.393  0.00  0.00    +0.000 A 
ATOM     10  C   UNL     1       3.871   3.856  16.712  0.00  0.00    +0.000 C 
ENDROOT
BRANCH   1  11
ATOM     11  C   UNL     1       1.699   3.516  17.837  0.00  0.00    +0.000 C 
BRANCH  11  15
ATOM     12  C   UNL     1       1.857   7.151  20.191  0.00  0.00    +0.000 A 
ATOM     13  C   UNL     1       2.214   7.176  18.842  0.00  0.00    +0.000 A 
ATOM     14  C   UNL     1       2.202   6.002  18.080  0.00  0.00    +0.000 A 
ATOM     15  C   UNL     1       1.852   4.780  18.667  0.00  0.00    +0.000 A 
ATOM     16  C   UNL     1       1.561   4.757  20.041  0.00  0.00    +0.000 A 
ATOM     17  C   UNL     1       1.570   5.931  20.800  0.00  0.00    +0.000 A 
BRANCH  12  19
ATOM     18  C   UNL     1       0.878   9.290  20.305  0.00  0.00    +0.000 C 
ATOM     19  O   UNL     1       1.833   8.362  20.825  0.00  0.00    +0.000 OA
ENDBRANCH  12  19
ENDBRANCH  11  15
ENDBRANCH   1  11
BRANCH   8  20
ATOM     20  C   UNL     1       6.158   5.704  15.437  0.00  0.00    +0.000 C 
BRANCH  20  21
ATOM     21  O   UNL     1       7.393   5.456  14.751  0.00  0.00    +0.000 OA
BRANCH  21  22
ATOM     22  C   UNL     1       7.313   4.526  13.666  0.00  0.00    +0.000 C 
ATOM     23  C   UNL     1       5.916   3.943  13.491  0.00  0.00    +0.000 C 
ATOM     24  C   UNL     1       7.727   5.293  12.414  0.00  0.00    +0.000 C 
ENDBRANCH  21  22
ENDBRANCH  20  21
ENDBRANCH   8  20
TORSDOF 6
ENDMDL
MODEL 4
REMARK VINA RESULT:      -6.3      2.077      3.734
REMARK  Name = 
REMARK  9 active torsions:
REMARK  status: ('A' for Active; 'I' for Inactive)
REMARK    1  A    between atoms: C_1  and  O_2
REMARK    2  A    between atoms: O_2  and  C_3
REMARK    3  A    between atoms: C_6  and  C_7
REMARK    4  A    between atoms: C_7  and  N_8
REMARK    5  A    between atoms: C_15  and  C_16
REMARK    6  A    between atoms: C_16  and  O_17
REMARK    7  A    between atoms: O_17  and  C_18
REMARK    8  A    between atoms: C_18  and  C_19
REMARK    9  A    between atoms: C_18  and  C_20
REMARK                            x       y       z     vdW  Elec       q    Type
REMARK                         _______ _______ _______ _____ _____    ______ ____
ROOT
ATOM      1  N   UNL     1       2.945   2.488  17.666  0.00  0.00    +0.000 NA
ATOM      2  C   UNL     1       3.737   1.605  18.493  0.00  0.00    +0.000 C 
ATOM      3  C   UNL     1       4.103   2.189  19.845  0.00  0.00    +0.000 C 
ATOM      4  C   UNL     1       5.020   3.404  19.858  0.00  0.00    +0.000 C 
ATOM      5  N   UNL     1       5.401   4.096  18.653  0.00  0.00    +0.000 N 
ATOM      6  C   UNL     1       6.473   4.960  18.662  0.00  0.00    +0.000 A 
ATOM      7  N   UNL     1       6.668   5.521  17.498  0.00  0.00    +0.000 NA
ATOM      8  C   UNL     1       5.674   5.024  16.697  0.00  0.00    +0.000 A 
ATOM      9  C   UNL     1       4.849   4.145  17.399  0.00  0.00    +0.000 A 
ATOM     10  C   UNL     1       3.656   3.445  16.845  0.00  0.00    +0.000 C 
ENDROOT
BRANCH   1  11
ATOM     11  C   UNL     1       1.630   2.896  18.145  0.00  0.00    +0.000 C 
BRANCH  11  15
ATOM     12  C   UNL     1       1.903   6.819  19.965  0.00  0.00    +0.000 A 
ATOM     13  C   UNL     1       1.548   5.713  20.739  0.00  0.00    +0.000 A 
ATOM     14  C   UNL     1       1.420   4.446  20.155  0.00  0.00    +0.000 A 
ATOM     15  C   UNL     1       1.628   4.276  18.781  0.00  0.00    +0.000 A 
ATOM     16  C   UNL     1       1.919   5.408  18.002  0.00  0.00    +0.000 A 
ATOM     17  C   UNL     1       2.048   6.671  18.587  0.00  0.00    +0.000 A 
BRANCH  12  19
ATOM     18  C   UNL     1       1.079   8.986  20.374  0.00  0.00    +0.000 C 
ATOM     19  O   UNL     1       2.070   7.993  20.645  0.00  0.00    +0.000 OA
ENDBRANCH  12  19
ENDBRANCH  11  15
ENDBRANCH   1  11
BRANCH   8  20
ATOM     20  C   UNL     1       5.567   5.485  15.278  0.00  0.00    +0.000 C 
BRANCH  20  21
ATOM     21  O   UNL     1       6.828   5.620  14.606  0.00  0.00    +0.000 OA
BRANCH  21  22
ATOM     22  C   UNL     1       7.145   4.569  13.687  0.00  0.00    +0.000 C 
ATOM     23  C   UNL     1       5.920   3.768  13.262  0.00  0.00    +0.000 C 
ATOM     24  C   UNL     1       7.786   5.239  12.476  0.00  0.00    +0.000 C 
ENDBRANCH  21  22
ENDBRANCH  20  21
ENDBRANCH   8  20
TORSDOF 6
ENDMDL
MODEL 5
REMARK VINA RESULT:      -6.2      1.906      2.684
REMARK  Name = 
REMARK  9 active torsions:
REMARK  status: ('A' for Active; 'I' for Inactive)
REMARK    1  A    between atoms: C_1  and  O_2
REMARK    2  A    between atoms: O_2  and  C_3
REMARK    3  A    between atoms: C_6  and  C_7
REMARK    4  A    between atoms: C_7  and  N_8
REMARK    5  A    between atoms: C_15  and  C_16
REMARK    6  A    between atoms: C_16  and  O_17
REMARK    7  A    between atoms: O_17  and  C_18
REMARK    8  A    between atoms: C_18  and  C_19
REMARK    9  A    between atoms: C_18  and  C_20
REMARK                            x       y       z     vdW  Elec       q    Type
REMARK                         _______ _______ _______ _____ _____    ______ ____
ROOT
ATOM      1  N   UNL     1       2.097   6.221  19.591  0.00  0.00    +0.000 NA
ATOM      2  C   UNL     1       1.071   5.224  19.380  0.00  0.00    +0.000 C 
ATOM      3  C   UNL     1       0.955   4.211  20.504  0.00  0.00    +0.000 C 
ATOM      4  C   UNL     1       2.140   3.281  20.732  0.00  0.00    +0.000 C 
ATOM      5  N   UNL     1       3.394   3.446  20.043  0.00  0.00    +0.000 N 
ATOM      6  C   UNL     1       4.309   2.417  20.019  0.00  0.00    +0.000 A 
ATOM      7  N   UNL     1       5.400   2.738  19.374  0.00  0.00    +0.000 NA
ATOM      8  C   UNL     1       5.205   4.035  18.978  0.00  0.00    +0.000 A 
ATOM      9  C   UNL     1       3.966   4.515  19.403  0.00  0.00    +0.000 A 
ATOM     10  C   UNL     1       3.442   5.890  19.171  0.00  0.00    +0.000 C 
ENDROOT
BRANCH   1  11
ATOM     11  C   UNL     1       1.977   7.110  20.740  0.00  0.00    +0.000 C 
BRANCH  11  15
ATOM     12  C   UNL     1      -0.239  10.698  19.741  0.00  0.00    +0.000 A 
ATOM     13  C   UNL     1       0.682  10.169  18.835  0.00  0.00    +0.000 A 
ATOM     14  C   UNL     1       1.430   9.032  19.160  0.00  0.00    +0.000 A 
ATOM     15  C   UNL     1       1.281   8.420  20.411  0.00  0.00    +0.000 A 
ATOM     16  C   UNL     1       0.402   9.001  21.339  0.00  0.00    +0.000 A 
ATOM     17  C   UNL     1      -0.347  10.135  21.012  0.00  0.00    +0.000 A 
BRANCH  12  19
ATOM     18  C   UNL     1      -1.678  11.539  18.079  0.00  0.00    +0.000 C 
ATOM     19  O   UNL     1      -0.968  11.766  19.298  0.00  0.00    +0.000 OA
ENDBRANCH  12  19
ENDBRANCH  11  15
ENDBRANCH   1  11
BRANCH   8  20
ATOM     20  C   UNL     1       6.287   4.751  18.233  0.00  0.00    +0.000 C 
BRANCH  20  21
ATOM     21  O   UNL     1       6.510   4.259  16.904  0.00  0.00    +0.000 OA
BRANCH  21  22
ATOM     22  C   UNL     1       5.499   4.600  15.948  0.00  0.00    +0.000 C 
ATOM     23  C   UNL     1       5.266   6.103  15.848  0.00  0.00    +0.000 C 
ATOM     24  C   UNL     1       5.973   4.047  14.608  0.00  0.00    +0.000 C 
ENDBRANCH  21  22
ENDBRANCH  20  21
ENDBRANCH   8  20
TORSDOF 6
ENDMDL
MODEL 6
REMARK VINA RESULT:      -6.2      1.750      2.349
REMARK  Name = 
REMARK  9 active torsions:
REMARK  status: ('A' for Active; 'I' for Inactive)
REMARK    1  A    between atoms: C_1  and  O_2
REMARK    2  A    between atoms: O_2  and  C_3
REMARK    3  A    between atoms: C_6  and  C_7
REMARK    4  A    between atoms: C_7  and  N_8
REMARK    5  A    between atoms: C_15  and  C_16
REMARK    6  A    between atoms: C_16  and  O_17
REMARK    7  A    between atoms: O_17  and  C_18
REMARK    8  A    between atoms: C_18  and  C_19
REMARK    9  A    between atoms: C_18  and  C_20
REMARK                            x       y       z     vdW  Elec       q    Type
REMARK                         _______ _______ _______ _____ _____    ______ ____
ROOT
ATOM      1  N   UNL     1       1.712   5.406  19.668  0.00  0.00    +0.000 NA
ATOM      2  C   UNL     1       0.794   4.406  20.168  0.00  0.00    +0.000 C 
ATOM      3  C   UNL     1       1.392   3.491  21.220  0.00  0.00    +0.000 C 
ATOM      4  C   UNL     1       2.524   2.570  20.784  0.00  0.00    +0.000 C 
ATOM      5  N   UNL     1       3.137   2.663  19.485  0.00  0.00    +0.000 N 
ATOM      6  C   UNL     1       3.907   1.626  19.009  0.00  0.00    +0.000 A 
ATOM      7  N   UNL     1       4.408   1.880  17.829  0.00  0.00    +0.000 NA
ATOM      8  C   UNL     1       3.970   3.142  17.525  0.00  0.00    +0.000 A 
ATOM      9  C   UNL     1       3.190   3.669  18.555  0.00  0.00    +0.000 A 
ATOM     10  C   UNL     1       2.575   5.026  18.570  0.00  0.00    +0.000 C 
ENDROOT
BRANCH   1  11
ATOM     11  C   UNL     1       2.247   6.388  20.604  0.00  0.00    +0.000 C 
BRANCH  11  15
ATOM     12  C   UNL     1       0.465  10.273  19.887  0.00  0.00    +0.000 A 
ATOM     13  C   UNL     1       1.225   9.658  18.891  0.00  0.00    +0.000 A 
ATOM     14  C   UNL     1       1.836   8.419  19.123  0.00  0.00    +0.000 A 
ATOM     15  C   UNL     1       1.710   7.790  20.367  0.00  0.00    +0.000 A 
ATOM     16  C   UNL     1       1.001   8.451  21.383  0.00  0.00    +0.000 A 
ATOM     17  C   UNL     1       0.389   9.686  21.149  0.00  0.00    +0.000 A 
BRANCH  12  19
ATOM     18  C   UNL     1      -1.347  11.731  20.254  0.00  0.00    +0.000 C 
ATOM     19  O   UNL     1      -0.146  11.444  19.535  0.00  0.00    +0.000 OA
ENDBRANCH  12  19
ENDBRANCH  11  15
ENDBRANCH   1  11
BRANCH   8  20
ATOM     20  C   UNL     1       4.389   3.782  16.240  0.00  0.00    +0.000 C 
BRANCH  20  21
ATOM     21  O   UNL     1       5.787   3.653  15.946  0.00  0.00    +0.000 OA
BRANCH  21  22
ATOM     22  C   UNL     1       6.560   4.846  16.116  0.00  0.00    +0.000 C 
ATOM     23  C   UNL     1       5.694   6.093  16.262  0.00  0.00    +0.000 C 
ATOM     24  C   UNL     1       7.402   4.636  17.370  0.00  0.00    +0.000 C 
ENDBRANCH  21  22
ENDBRANCH  20  21
ENDBRANCH   8  20
TORSDOF 6
ENDMDL
MODEL 7
REMARK VINA RESULT:      -6.2      2.359      4.051
REMARK  Name = 
REMARK  9 active torsions:
REMARK  status: ('A' for Active; 'I' for Inactive)
REMARK    1  A    between atoms: C_1  and  O_2
REMARK    2  A    between atoms: O_2  and  C_3
REMARK    3  A    between atoms: C_6  and  C_7
REMARK    4  A    between atoms: C_7  and  N_8
REMARK    5  A    between atoms: C_15  and  C_16
REMARK    6  A    between atoms: C_16  and  O_17
REMARK    7  A    between atoms: O_17  and  C_18
REMARK    8  A    between atoms: C_18  and  C_19
REMARK    9  A    between atoms: C_18  and  C_20
REMARK                            x       y       z     vdW  Elec       q    Type
REMARK                         _______ _______ _______ _____ _____    ______ ____
ROOT
ATOM      1  N   UNL     1       3.587   2.873  17.803  0.00  0.00    +0.000 NA
ATOM      2  C   UNL     1       4.430   2.593  18.944  0.00  0.00    +0.000 C 
ATOM      3  C   UNL     1       4.588   3.764  19.896  0.00  0.00    +0.000 C 
ATOM      4  C   UNL     1       5.308   4.999  19.373  0.00  0.00    +0.000 C 
ATOM      5  N   UNL     1       5.681   5.147  17.989  0.00  0.00    +0.000 N 
ATOM      6  C   UNL     1       6.605   6.098  17.621  0.00  0.00    +0.000 A 
ATOM      7  N   UNL     1       6.812   6.117  16.330  0.00  0.00    +0.000 NA
ATOM      8  C   UNL     1       5.975   5.155  15.827  0.00  0.00    +0.000 A 
ATOM      9  C   UNL     1       5.235   4.546  16.841  0.00  0.00    +0.000 A 
ATOM     10  C   UNL     1       4.212   3.479  16.647  0.00  0.00    +0.000 C 
ENDROOT
BRANCH   1  11
ATOM     11  C   UNL     1       2.189   3.216  18.039  0.00  0.00    +0.000 C 
BRANCH  11  15
ATOM     12  C   UNL     1       1.955   7.131  19.881  0.00  0.00    +0.000 A 
ATOM     13  C   UNL     1       1.628   5.992  20.617  0.00  0.00    +0.000 A 
ATOM     14  C   UNL     1       1.665   4.724  20.023  0.00  0.00    +0.000 A 
ATOM     15  C   UNL     1       2.010   4.585  18.673  0.00  0.00    +0.000 A 
ATOM     16  C   UNL     1       2.271   5.745  17.926  0.00  0.00    +0.000 A 
ATOM     17  C   UNL     1       2.236   7.009  18.521  0.00  0.00    +0.000 A 
BRANCH  12  19
ATOM     18  C   UNL     1       1.032   9.287  20.093  0.00  0.00    +0.000 C 
ATOM     19  O   UNL     1       1.957   8.310  20.574  0.00  0.00    +0.000 OA
ENDBRANCH  12  19
ENDBRANCH  11  15
ENDBRANCH   1  11
BRANCH   8  20
ATOM     20  C   UNL     1       5.919   4.922  14.351  0.00  0.00    +0.000 C 
BRANCH  20  21
ATOM     21  O   UNL     1       6.312   3.602  13.948  0.00  0.00    +0.000 OA
BRANCH  21  22
ATOM     22  C   UNL     1       6.302   3.366  12.536  0.00  0.00    +0.000 C 
ATOM     23  C   UNL     1       4.902   3.433  11.936  0.00  0.00    +0.000 C 
ATOM     24  C   UNL     1       7.195   4.438  11.917  0.00  0.00    +0.000 C 
ENDBRANCH  21  22
ENDBRANCH  20  21
ENDBRANCH   8  20
TORSDOF 6
ENDMDL
MODEL 8
REMARK VINA RESULT:      -6.1      2.070      2.738
REMARK  Name = 
REMARK  9 active torsions:
REMARK  status: ('A' for Active; 'I' for Inactive)
REMARK    1  A    between atoms: C_1  and  O_2
REMARK    2  A    between atoms: O_2  and  C_3
REMARK    3  A    between atoms: C_6  and  C_7
REMARK    4  A    between atoms: C_7  and  N_8
REMARK    5  A    between atoms: C_15  and  C_16
REMARK    6  A    between atoms: C_16  and  O_17
REMARK    7  A    between atoms: O_17  and  C_18
REMARK    8  A    between atoms: C_18  and  C_19
REMARK    9  A    between atoms: C_18  and  C_20
REMARK                            x       y       z     vdW  Elec       q    Type
REMARK                         _______ _______ _______ _____ _____    ______ ____
ROOT
ATOM      1  N   UNL     1       1.789   5.468  19.610  0.00  0.00    +0.000 NA
ATOM      2  C   UNL     1       0.840   4.519  20.148  0.00  0.00    +0.000 C 
ATOM      3  C   UNL     1       1.413   3.620  21.228  0.00  0.00    +0.000 C 
ATOM      4  C   UNL     1       2.509   2.645  20.818  0.00  0.00    +0.000 C 
ATOM      5  N   UNL     1       3.116   2.672  19.512  0.00  0.00    +0.000 N 
ATOM      6  C   UNL     1       3.846   1.592  19.068  0.00  0.00    +0.000 A 
ATOM      7  N   UNL     1       4.347   1.788  17.877  0.00  0.00    +0.000 NA
ATOM      8  C   UNL     1       3.951   3.054  17.532  0.00  0.00    +0.000 A 
ATOM      9  C   UNL     1       3.197   3.643  18.548  0.00  0.00    +0.000 A 
ATOM     10  C   UNL     1       2.630   5.021  18.520  0.00  0.00    +0.000 C 
ENDROOT
BRANCH   1  11
ATOM     11  C   UNL     1       2.364   6.462  20.507  0.00  0.00    +0.000 C 
BRANCH  11  15
ATOM     12  C   UNL     1       0.248  10.224  20.121  0.00  0.00    +0.000 A 
ATOM     13  C   UNL     1       0.999   9.732  19.052  0.00  0.00    +0.000 A 
ATOM     14  C   UNL     1       1.717   8.536  19.177  0.00  0.00    +0.000 A 
ATOM     15  C   UNL     1       1.708   7.827  20.384  0.00  0.00    +0.000 A 
ATOM     16  C   UNL     1       1.003   8.368  21.472  0.00  0.00    +0.000 A 
ATOM     17  C   UNL     1       0.285   9.560  21.346  0.00  0.00    +0.000 A 
BRANCH  12  19
ATOM     18  C   UNL     1      -0.822  11.556  18.500  0.00  0.00    +0.000 C 
ATOM     19  O   UNL     1      -0.472  11.359  19.872  0.00  0.00    +0.000 OA
ENDBRANCH  12  19
ENDBRANCH  11  15
ENDBRANCH   1  11
BRANCH   8  20
ATOM     20  C   UNL     1       4.383   3.634  16.223  0.00  0.00    +0.000 C 
BRANCH  20  21
ATOM     21  O   UNL     1       5.780   3.470  15.940  0.00  0.00    +0.000 OA
BRANCH  21  22
ATOM     22  C   UNL     1       6.323   4.395  14.991  0.00  0.00    +0.000 C 
ATOM     23  C   UNL     1       6.185   3.913  13.552  0.00  0.00    +0.000 C 
ATOM     24  C   UNL     1       5.562   5.703  15.186  0.00  0.00    +0.000 C 
ENDBRANCH  21  22
ENDBRANCH  20  21
ENDBRANCH   8  20
TORSDOF 6
ENDMDL
MODEL 9
REMARK VINA RESULT:      -6.1      0.536      1.325
REMARK  Name = 
REMARK  9 active torsions:
REMARK  status: ('A' for Active; 'I' for Inactive)
REMARK    1  A    between atoms: C_1  and  O_2
REMARK    2  A    between atoms: O_2  and  C_3
REMARK    3  A    between atoms: C_6  and  C_7
REMARK    4  A    between atoms: C_7  and  N_8
REMARK    5  A    between atoms: C_15  and  C_16
REMARK    6  A    between atoms: C_16  and  O_17
REMARK    7  A    between atoms: O_17  and  C_18
REMARK    8  A    between atoms: C_18  and  C_19
REMARK    9  A    between atoms: C_18  and  C_20
REMARK                            x       y       z     vdW  Elec       q    Type
REMARK                         _______ _______ _______ _____ _____    ______ ____
ROOT
ATOM      1  N   UNL     1       2.387   6.460  18.432  0.00  0.00    +0.000 NA
ATOM      2  C   UNL     1       1.427   5.496  17.942  0.00  0.00    +0.000 C 
ATOM      3  C   UNL     1       1.618   4.097  18.500  0.00  0.00    +0.000 C 
ATOM      4  C   UNL     1       2.898   3.363  18.124  0.00  0.00    +0.000 C 
ATOM      5  N   UNL     1       3.975   4.004  17.415  0.00  0.00    +0.000 N 
ATOM      6  C   UNL     1       4.951   3.245  16.808  0.00  0.00    +0.000 A 
ATOM      7  N   UNL     1       5.865   3.979  16.231  0.00  0.00    +0.000 NA
ATOM      8  C   UNL     1       5.489   5.272  16.486  0.00  0.00    +0.000 A 
ATOM      9  C   UNL     1       4.320   5.320  17.247  0.00  0.00    +0.000 A 
ATOM     10  C   UNL     1       3.647   6.559  17.727  0.00  0.00    +0.000 C 
ENDROOT
BRANCH   1  11
ATOM     11  C   UNL     1       2.419   6.745  19.862  0.00  0.00    +0.000 C 
BRANCH  11  15
ATOM     12  C   UNL     1       0.067  10.174  21.079  0.00  0.00    +0.000 A 
ATOM     13  C   UNL     1       0.115   9.037  21.887  0.00  0.00    +0.000 A 
ATOM     14  C   UNL     1       0.842   7.909  21.488  0.00  0.00    +0.000 A 
ATOM     15  C   UNL     1       1.515   7.899  20.260  0.00  0.00    +0.000 A 
ATOM     16  C   UNL     1       1.402   9.023  19.426  0.00  0.00    +0.000 A 
ATOM     17  C   UNL     1       0.679  10.149  19.827  0.00  0.00    +0.000 A 
BRANCH  12  19
ATOM     18  C   UNL     1      -1.090  11.062  22.928  0.00  0.00    +0.000 C 
ATOM     19  O   UNL     1      -0.610  11.244  21.594  0.00  0.00    +0.000 OA
ENDBRANCH  12  19
ENDBRANCH  11  15
ENDBRANCH   1  11
BRANCH   8  20
ATOM     20  C   UNL     1       6.340   6.400  15.997  0.00  0.00    +0.000 C 
BRANCH  20  21
ATOM     21  O   UNL     1       6.537   7.448  16.957  0.00  0.00    +0.000 OA
BRANCH  21  22
ATOM     22  C   UNL     1       7.852   7.521  17.522  0.00  0.00    +0.000 C 
ATOM     23  C   UNL     1       8.202   8.917  18.023  0.00  0.00    +0.000 C 
ATOM     24  C   UNL     1       7.877   6.522  18.675  0.00  0.00    +0.000 C 
ENDBRANCH  21  22
ENDBRANCH  20  21
ENDBRANCH   8  20
TORSDOF 6
ENDMDL
