MODEL 1
REMARK VINA RESULT:      -7.2      0.000      0.000
REMARK  Name = 
REMARK  4 active torsions:
REMARK  status: ('A' for Active; 'I' for Inactive)
REMARK    1  A    between atoms: C_2  and  O_3
REMARK    2  A    between atoms: C_2  and  C_15
REMARK    3  A    between atoms: O_3  and  C_4
REMARK    4  A    between atoms: C_4  and  C_5
REMARK                            x       y       z     vdW  Elec       q    Type
REMARK                         _______ _______ _______ _____ _____    ______ ____
ROOT
ATOM      1  C   UNL     1       4.341   3.949  16.632  0.00  0.00    +0.000 C 
ENDROOT
BRANCH   1   2
ATOM      2  C   UNL     1       3.275   4.756  17.416  0.00  0.00    +0.000 C 
ATOM      3  C   UNL     1       3.763   6.214  17.542  0.00  0.00    +0.000 C 
ATOM      4  C   UNL     1       2.726   7.058  18.268  0.00  0.00    +0.000 C 
ATOM      5  C   UNL     1       2.456   6.461  19.643  0.00  0.00    +0.000 C 
ATOM      6  N   UNL     1       1.961   5.074  19.518  0.00  0.00    +0.000 NA
ATOM      7  C   UNL     1       1.608   4.573  20.864  0.00  0.00    +0.000 C 
ATOM      8  C   UNL     1       1.006   3.172  20.779  0.00  0.00    +0.000 C 
ATOM      9  C   UNL     1       2.015   2.228  20.134  0.00  0.00    +0.000 C 
ATOM     10  C   UNL     1       2.394   2.753  18.749  0.00  0.00    +0.000 C 
ATOM     11  C   UNL     1       2.959   4.191  18.840  0.00  0.00    +0.000 C 
ENDBRANCH   1   2
BRANCH   1  12
ATOM     12  O   UNL     1       5.047   4.809  15.805  0.00  0.00    +0.000 OA
BRANCH  12  14
ATOM     13  O   UNL     1       7.063   4.444  14.906  0.00  0.00    +0.000 OA
ATOM     14  C   UNL     1       6.403   4.915  15.823  0.00  0.00    +0.000 C 
BRANCH  14  15
ATOM     15  C   UNL     1       7.088   5.641  16.923  0.00  0.00    +0.000 A 
ATOM     16  C   UNL     1       7.290   7.029  16.830  0.00  0.00    +0.000 A 
ATOM     17  C   UNL     1       7.897   7.713  17.884  0.00  0.00    +0.000 A 
ATOM     18  N   UNL     1       8.287   7.041  18.999  0.00  0.00    +0.000 NA
ATOM     19  C   UNL     1       8.107   5.699  19.119  0.00  0.00    +0.000 A 
ATOM     20  C   UNL     1       7.506   4.973  18.085  0.00  0.00    +0.000 A 
ENDBRANCH  14  15
ENDBRANCH  12  14
ENDBRANCH   1  12
TORSDOF 4
ENDMDL
MODEL 2
REMARK VINA RESULT:      -7.1      2.360      3.270
REMARK  Name = 
REMARK  4 active torsions:
REMARK  status: ('A' for Active; 'I' for Inactive)
REMARK    1  A    between atoms: C_2  and  O_3
REMARK    2  A    between atoms: C_2  and  C_15
REMARK    3  A    between atoms: O_3  and  C_4
REMARK    4  A    between atoms: C_4  and  C_5
REMARK                            x       y       z     vdW  Elec       q    Type
REMARK                         _______ _______ _______ _____ _____    ______ ____
ROOT
ATOM      1  C   UNL     1       4.729   4.190  16.887  0.00  0.00    +0.000 C 
ENDROOT
BRANCH   1   2
ATOM      2  C   UNL     1       3.554   4.959  17.544  0.00  0.00    +0.000 C 
ATOM      3  C   UNL     1       3.916   6.458  17.589  0.00  0.00    +0.000 C 
ATOM      4  C   UNL     1       2.770   7.262  18.185  0.00  0.00    +0.000 C 
ATOM      5  C   UNL     1       2.458   6.741  19.584  0.00  0.00    +0.000 C 
ATOM      6  N   UNL     1       2.083   5.313  19.533  0.00  0.00    +0.000 NA
ATOM      7  C   UNL     1       1.683   4.879  20.890  0.00  0.00    +0.000 C 
ATOM      8  C   UNL     1       1.200   3.431  20.874  0.00  0.00    +0.000 C 
ATOM      9  C   UNL     1       2.321   2.531  20.364  0.00  0.00    +0.000 C 
ATOM     10  C   UNL     1       2.747   2.987  18.968  0.00  0.00    +0.000 C 
ATOM     11  C   UNL     1       3.190   4.471  18.985  0.00  0.00    +0.000 C 
ENDBRANCH   1   2
BRANCH   1  12
ATOM     12  O   UNL     1       5.723   5.091  16.538  0.00  0.00    +0.000 OA
BRANCH  12  14
ATOM     13  O   UNL     1       7.870   4.468  16.647  0.00  0.00    +0.000 OA
ATOM     14  C   UNL     1       6.893   4.719  15.952  0.00  0.00    +0.000 C 
BRANCH  14  15
ATOM     15  C   UNL     1       6.982   4.564  14.477  0.00  0.00    +0.000 A 
ATOM     16  C   UNL     1       6.179   3.616  13.820  0.00  0.00    +0.000 A 
ATOM     17  C   UNL     1       6.237   3.504  12.430  0.00  0.00    +0.000 A 
ATOM     18  N   UNL     1       7.062   4.312  11.714  0.00  0.00    +0.000 NA
ATOM     19  C   UNL     1       7.851   5.237  12.319  0.00  0.00    +0.000 A 
ATOM     20  C   UNL     1       7.828   5.382  13.711  0.00  0.00    +0.000 A 
ENDBRANCH  14  15
ENDBRANCH  12  14
ENDBRANCH   1  12
TORSDOF 4
ENDMDL
MODEL 3
REMARK VINA RESULT:      -7.0      0.810      2.426
REMARK  Name = 
REMARK  4 active torsions:
REMARK  status: ('A' for Active; 'I' for Inactive)
REMARK    1  A    between atoms: C_2  and  O_3
REMARK    2  A    between atoms: C_2  and  C_15
REMARK    3  A    between atoms: O_3  and  C_4
REMARK    4  A    between atoms: C_4  and  C_5
REMARK                            x       y       z     vdW  Elec       q    Type
REMARK                         _______ _______ _______ _____ _____    ______ ____
ROOT
ATOM      1  C   UNL     1       4.402   4.092  16.006  0.00  0.00    +0.000 C 
ENDROOT
BRANCH   1   2
ATOM      2  C   UNL     1       4.110   3.920  17.519  0.00  0.00    +0.000 C 
ATOM      3  C   UNL     1       3.645   2.470  17.764  0.00  0.00    +0.000 C 
ATOM      4  C   UNL     1       3.389   2.239  19.245  0.00  0.00    +0.000 C 
ATOM      5  C   UNL     1       2.343   3.230  19.741  0.00  0.00    +0.000 C 
ATOM      6  N   UNL     1       2.804   4.618  19.532  0.00  0.00    +0.000 NA
ATOM      7  C   UNL     1       1.812   5.542  20.125  0.00  0.00    +0.000 C 
ATOM      8  C   UNL     1       2.287   6.989  20.014  0.00  0.00    +0.000 C 
ATOM      9  C   UNL     1       2.493   7.341  18.544  0.00  0.00    +0.000 C 
ATOM     10  C   UNL     1       3.506   6.377  17.925  0.00  0.00    +0.000 C 
ATOM     11  C   UNL     1       3.039   4.910  18.084  0.00  0.00    +0.000 C 
ENDBRANCH   1   2
BRANCH   1  12
ATOM     12  O   UNL     1       5.743   3.836  15.769  0.00  0.00    +0.000 OA
BRANCH  12  14
ATOM     13  O   UNL     1       7.030   5.136  14.480  0.00  0.00    +0.000 OA
ATOM     14  C   UNL     1       6.672   4.816  15.607  0.00  0.00    +0.000 C 
BRANCH  14  15
ATOM     15  C   UNL     1       7.220   5.538  16.784  0.00  0.00    +0.000 A 
ATOM     16  C   UNL     1       7.310   6.940  16.769  0.00  0.00    +0.000 A 
ATOM     17  C   UNL     1       7.786   7.616  17.894  0.00  0.00    +0.000 A 
ATOM     18  N   UNL     1       8.157   6.921  19.000  0.00  0.00    +0.000 NA
ATOM     19  C   UNL     1       8.084   5.565  19.046  0.00  0.00    +0.000 A 
ATOM     20  C   UNL     1       7.615   4.847  17.941  0.00  0.00    +0.000 A 
ENDBRANCH  14  15
ENDBRANCH  12  14
ENDBRANCH   1  12
TORSDOF 4
ENDMDL
MODEL 4
REMARK VINA RESULT:      -7.0      0.201      1.089
REMARK  Name = 
REMARK  4 active torsions:
REMARK  status: ('A' for Active; 'I' for Inactive)
REMARK    1  A    between atoms: C_2  and  O_3
REMARK    2  A    between atoms: C_2  and  C_15
REMARK    3  A    between atoms: O_3  and  C_4
REMARK    4  A    between atoms: C_4  and  C_5
REMARK                            x       y       z     vdW  Elec       q    Type
REMARK                         _______ _______ _______ _____ _____    ______ ____
ROOT
ATOM      1  C   UNL     1       4.193   3.986  16.633  0.00  0.00    +0.000 C 
ENDROOT
BRANCH   1   2
ATOM      2  C   UNL     1       3.173   4.792  17.478  0.00  0.00    +0.000 C 
ATOM      3  C   UNL     1       3.629   6.265  17.517  0.00  0.00    +0.000 C 
ATOM      4  C   UNL     1       2.632   7.107  18.301  0.00  0.00    +0.000 C 
ATOM      5  C   UNL     1       2.494   6.548  19.712  0.00  0.00    +0.000 C 
ATOM      6  N   UNL     1       2.029   5.146  19.672  0.00  0.00    +0.000 NA
ATOM      7  C   UNL     1       1.804   4.681  21.058  0.00  0.00    +0.000 C 
ATOM      8  C   UNL     1       1.237   3.263  21.067  0.00  0.00    +0.000 C 
ATOM      9  C   UNL     1       2.216   2.324  20.369  0.00  0.00    +0.000 C 
ATOM     10  C   UNL     1       2.463   2.812  18.941  0.00  0.00    +0.000 C 
ATOM     11  C   UNL     1       2.993   4.267  18.941  0.00  0.00    +0.000 C 
ENDBRANCH   1   2
BRANCH   1  12
ATOM     12  O   UNL     1       4.992   4.868  15.922  0.00  0.00    +0.000 OA
BRANCH  12  14
ATOM     13  O   UNL     1       7.021   4.263  15.196  0.00  0.00    +0.000 OA
ATOM     14  C   UNL     1       6.349   4.881  16.012  0.00  0.00    +0.000 C 
BRANCH  14  15
ATOM     15  C   UNL     1       7.027   5.681  17.065  0.00  0.00    +0.000 A 
ATOM     16  C   UNL     1       7.464   5.061  18.248  0.00  0.00    +0.000 A 
ATOM     17  C   UNL     1       8.137   5.809  19.215  0.00  0.00    +0.000 A 
ATOM     18  N   UNL     1       8.373   7.131  19.012  0.00  0.00    +0.000 NA
ATOM     19  C   UNL     1       7.962   7.761  17.880  0.00  0.00    +0.000 A 
ATOM     20  C   UNL     1       7.281   7.051  16.886  0.00  0.00    +0.000 A 
ENDBRANCH  14  15
ENDBRANCH  12  14
ENDBRANCH   1  12
TORSDOF 4
ENDMDL
MODEL 5
REMARK VINA RESULT:      -7.0      3.624      6.170
REMARK  Name = 
REMARK  4 active torsions:
REMARK  status: ('A' for Active; 'I' for Inactive)
REMARK    1  A    between atoms: C_2  and  O_3
REMARK    2  A    between atoms: C_2  and  C_15
REMARK    3  A    between atoms: O_3  and  C_4
REMARK    4  A    between atoms: C_4  and  C_5
REMARK                            x       y       z     vdW  Elec       q    Type
REMARK                         _______ _______ _______ _____ _____    ______ ____
ROOT
ATOM      1  C   UNL     1       2.211   7.317  18.225  0.00  0.00    +0.000 C 
ENDROOT
BRANCH   1   2
ATOM      2  C   UNL     1       3.284   6.373  18.827  0.00  0.00    +0.000 C 
ATOM      3  C   UNL     1       4.417   6.201  17.793  0.00  0.00    +0.000 C 
ATOM      4  C   UNL     1       5.518   5.317  18.358  0.00  0.00    +0.000 C 
ATOM      5  C   UNL     1       4.935   3.964  18.747  0.00  0.00    +0.000 C 
ATOM      6  N   UNL     1       3.871   4.130  19.759  0.00  0.00    +0.000 NA
ATOM      7  C   UNL     1       3.411   2.791  20.188  0.00  0.00    +0.000 C 
ATOM      8  C   UNL     1       2.371   2.907  21.300  0.00  0.00    +0.000 C 
ATOM      9  C   UNL     1       1.180   3.715  20.794  0.00  0.00    +0.000 C 
ATOM     10  C   UNL     1       1.656   5.094  20.336  0.00  0.00    +0.000 C 
ATOM     11  C   UNL     1       2.744   4.965  19.242  0.00  0.00    +0.000 C 
ENDBRANCH   1   2
BRANCH   1  12
ATOM     12  O   UNL     1       2.264   8.540  18.875  0.00  0.00    +0.000 OA
BRANCH  12  14
ATOM     13  O   UNL     1       0.560   9.742  18.063  0.00  0.00    +0.000 OA
ATOM     14  C   UNL     1       1.179   9.342  19.042  0.00  0.00    +0.000 C 
BRANCH  14  15
ATOM     15  C   UNL     1       0.706   9.698  20.405  0.00  0.00    +0.000 A 
ATOM     16  C   UNL     1       1.070   8.903  21.505  0.00  0.00    +0.000 A 
ATOM     17  C   UNL     1       0.657   9.266  22.788  0.00  0.00    +0.000 A 
ATOM     18  N   UNL     1      -0.088  10.386  22.974  0.00  0.00    +0.000 NA
ATOM     19  C   UNL     1      -0.457  11.175  21.931  0.00  0.00    +0.000 A 
ATOM     20  C   UNL     1      -0.069  10.847  20.627  0.00  0.00    +0.000 A 
ENDBRANCH  14  15
ENDBRANCH  12  14
ENDBRANCH   1  12
TORSDOF 4
ENDMDL
MODEL 6
REMARK VINA RESULT:      -7.0      3.728      6.213
REMARK  Name = 
REMARK  4 active torsions:
REMARK  status: ('A' for Active; 'I' for Inactive)
REMARK    1  A    between atoms: C_2  and  O_3
REMARK    2  A    between atoms: C_2  and  C_15
REMARK    3  A    between atoms: O_3  and  C_4
REMARK    4  A    between atoms: C_4  and  C_5
REMARK                            x       y       z     vdW  Elec       q    Type
REMARK                         _______ _______ _______ _____ _____    ______ ____
ROOT
ATOM      1  C   UNL     1       2.223   7.432  18.246  0.00  0.00    +0.000 C 
ENDROOT
BRANCH   1   2
ATOM      2  C   UNL     1       3.295   6.410  18.702  0.00  0.00    +0.000 C 
ATOM      3  C   UNL     1       4.291   6.198  17.544  0.00  0.00    +0.000 C 
ATOM      4  C   UNL     1       5.391   5.234  17.961  0.00  0.00    +0.000 C 
ATOM      5  C   UNL     1       4.771   3.908  18.387  0.00  0.00    +0.000 C 
ATOM      6  N   UNL     1       3.840   4.110  19.515  0.00  0.00    +0.000 NA
ATOM      7  C   UNL     1       3.347   2.790  19.966  0.00  0.00    +0.000 C 
ATOM      8  C   UNL     1       2.448   2.938  21.191  0.00  0.00    +0.000 C 
ATOM      9  C   UNL     1       1.261   3.830  20.840  0.00  0.00    +0.000 C 
ATOM     10  C   UNL     1       1.768   5.190  20.359  0.00  0.00    +0.000 C 
ATOM     11  C   UNL     1       2.717   5.026  19.147  0.00  0.00    +0.000 C 
ENDBRANCH   1   2
BRANCH   1  12
ATOM     12  O   UNL     1       2.185   8.485  19.146  0.00  0.00    +0.000 OA
BRANCH  12  14
ATOM     13  O   UNL     1       0.532   9.702  18.255  0.00  0.00    +0.000 OA
ATOM     14  C   UNL     1       1.126   9.331  19.260  0.00  0.00    +0.000 C 
BRANCH  14  15
ATOM     15  C   UNL     1       0.651   9.769  20.597  0.00  0.00    +0.000 A 
ATOM     16  C   UNL     1      -0.042  10.984  20.734  0.00  0.00    +0.000 A 
ATOM     17  C   UNL     1      -0.522  11.371  21.986  0.00  0.00    +0.000 A 
ATOM     18  N   UNL     1      -0.324  10.574  23.068  0.00  0.00    +0.000 NA
ATOM     19  C   UNL     1       0.343   9.394  22.970  0.00  0.00    +0.000 A 
ATOM     20  C   UNL     1       0.845   8.969  21.735  0.00  0.00    +0.000 A 
ENDBRANCH  14  15
ENDBRANCH  12  14
ENDBRANCH   1  12
TORSDOF 4
ENDMDL
MODEL 7
REMARK VINA RESULT:      -7.0      0.942      2.785
REMARK  Name = 
REMARK  4 active torsions:
REMARK  status: ('A' for Active; 'I' for Inactive)
REMARK    1  A    between atoms: C_2  and  O_3
REMARK    2  A    between atoms: C_2  and  C_15
REMARK    3  A    between atoms: O_3  and  C_4
REMARK    4  A    between atoms: C_4  and  C_5
REMARK                            x       y       z     vdW  Elec       q    Type
REMARK                         _______ _______ _______ _____ _____    ______ ____
ROOT
ATOM      1  C   UNL     1       3.703   3.440  17.180  0.00  0.00    +0.000 C 
ENDROOT
BRANCH   1   2
ATOM      2  C   UNL     1       3.502   3.811  18.671  0.00  0.00    +0.000 C 
ATOM      3  C   UNL     1       2.959   2.573  19.413  0.00  0.00    +0.000 C 
ATOM      4  C   UNL     1       2.789   2.875  20.894  0.00  0.00    +0.000 C 
ATOM      5  C   UNL     1       1.847   4.061  21.066  0.00  0.00    +0.000 C 
ATOM      6  N   UNL     1       2.384   5.254  20.379  0.00  0.00    +0.000 NA
ATOM      7  C   UNL     1       1.498   6.404  20.663  0.00  0.00    +0.000 C 
ATOM      8  C   UNL     1       2.060   7.683  20.047  0.00  0.00    +0.000 C 
ATOM      9  C   UNL     1       2.189   7.502  18.538  0.00  0.00    +0.000 C 
ATOM     10  C   UNL     1       3.092   6.304  18.242  0.00  0.00    +0.000 C 
ATOM     11  C   UNL     1       2.540   5.021  18.910  0.00  0.00    +0.000 C 
ENDBRANCH   1   2
BRANCH   1  12
ATOM     12  O   UNL     1       5.052   3.508  16.871  0.00  0.00    +0.000 OA
BRANCH  12  14
ATOM     13  O   UNL     1       5.428   4.916  15.172  0.00  0.00    +0.000 OA
ATOM     14  C   UNL     1       5.640   4.614  16.340  0.00  0.00    +0.000 C 
BRANCH  14  15
ATOM     15  C   UNL     1       6.498   5.489  17.181  0.00  0.00    +0.000 A 
ATOM     16  C   UNL     1       7.043   4.997  18.379  0.00  0.00    +0.000 A 
ATOM     17  C   UNL     1       7.881   5.810  19.143  0.00  0.00    +0.000 A 
ATOM     18  N   UNL     1       8.174   7.070  18.729  0.00  0.00    +0.000 NA
ATOM     19  C   UNL     1       7.662   7.575  17.576  0.00  0.00    +0.000 A 
ATOM     20  C   UNL     1       6.814   6.797  16.781  0.00  0.00    +0.000 A 
ENDBRANCH  14  15
ENDBRANCH  12  14
ENDBRANCH   1  12
TORSDOF 4
ENDMDL
MODEL 8
REMARK VINA RESULT:      -6.9      2.549      3.528
REMARK  Name = 
REMARK  4 active torsions:
REMARK  status: ('A' for Active; 'I' for Inactive)
REMARK    1  A    between atoms: C_2  and  O_3
REMARK    2  A    between atoms: C_2  and  C_15
REMARK    3  A    between atoms: O_3  and  C_4
REMARK    4  A    between atoms: C_4  and  C_5
REMARK                            x       y       z     vdW  Elec       q    Type
REMARK                         _______ _______ _______ _____ _____    ______ ____
ROOT
ATOM      1  C   UNL     1       6.253   4.775  18.104  0.00  0.00    +0.000 C 
ENDROOT
BRANCH   1   2
ATOM      2  C   UNL     1       4.775   5.122  17.792  0.00  0.00    +0.000 C 
ATOM      3  C   UNL     1       4.542   6.610  18.127  0.00  0.00    +0.000 C 
ATOM      4  C   UNL     1       3.113   7.010  17.793  0.00  0.00    +0.000 C 
ATOM      5  C   UNL     1       2.143   6.125  18.567  0.00  0.00    +0.000 C 
ATOM      6  N   UNL     1       2.349   4.703  18.222  0.00  0.00    +0.000 NA
ATOM      7  C   UNL     1       1.319   3.894  18.909  0.00  0.00    +0.000 C 
ATOM      8  C   UNL     1       1.434   2.424  18.513  0.00  0.00    +0.000 C 
ATOM      9  C   UNL     1       2.819   1.907  18.889  0.00  0.00    +0.000 C 
ATOM     10  C   UNL     1       3.886   2.752  18.193  0.00  0.00    +0.000 C 
ATOM     11  C   UNL     1       3.732   4.248  18.563  0.00  0.00    +0.000 C 
ENDBRANCH   1   2
BRANCH   1  12
ATOM     12  O   UNL     1       6.883   4.370  16.938  0.00  0.00    +0.000 OA
BRANCH  12  14
ATOM     13  O   UNL     1       7.542   6.345  16.116  0.00  0.00    +0.000 OA
ATOM     14  C   UNL     1       7.137   5.210  15.898  0.00  0.00    +0.000 C 
BRANCH  14  15
ATOM     15  C   UNL     1       6.975   4.745  14.496  0.00  0.00    +0.000 A 
ATOM     16  C   UNL     1       5.972   3.815  14.175  0.00  0.00    +0.000 A 
ATOM     17  C   UNL     1       5.798   3.413  12.850  0.00  0.00    +0.000 A 
ATOM     18  N   UNL     1       6.592   3.923  11.873  0.00  0.00    +0.000 NA
ATOM     19  C   UNL     1       7.572   4.823  12.151  0.00  0.00    +0.000 A 
ATOM     20  C   UNL     1       7.784   5.250  13.466  0.00  0.00    +0.000 A 
ENDBRANCH  14  15
ENDBRANCH  12  14
ENDBRANCH   1  12
TORSDOF 4
ENDMDL
MODEL 9
REMARK VINA RESULT:      -6.9      0.962      2.600
REMARK  Name = 
REMARK  4 active torsions:
REMARK  status: ('A' for Active; 'I' for Inactive)
REMARK    1  A    between atoms: C_2  and  O_3
REMARK    2  A    between atoms: C_2  and  C_15
REMARK    3  A    between atoms: O_3  and  C_4
REMARK    4  A    between atoms: C_4  and  C_5
REMARK                            x       y       z     vdW  Elec       q    Type
REMARK                         _______ _______ _______ _____ _____    ______ ____
ROOT
ATOM      1  C   UNL     1       3.466   3.693  17.012  0.00  0.00    +0.000 C 
ENDROOT
BRANCH   1   2
ATOM      2  C   UNL     1       3.274   4.007  18.518  0.00  0.00    +0.000 C 
ATOM      3  C   UNL     1       2.652   2.771  19.198  0.00  0.00    +0.000 C 
ATOM      4  C   UNL     1       2.486   3.015  20.691  0.00  0.00    +0.000 C 
ATOM      5  C   UNL     1       1.614   4.246  20.910  0.00  0.00    +0.000 C 
ATOM      6  N   UNL     1       2.227   5.435  20.282  0.00  0.00    +0.000 NA
ATOM      7  C   UNL     1       1.408   6.622  20.612  0.00  0.00    +0.000 C 
ATOM      8  C   UNL     1       2.050   7.892  20.059  0.00  0.00    +0.000 C 
ATOM      9  C   UNL     1       2.182   7.772  18.544  0.00  0.00    +0.000 C 
ATOM     10  C   UNL     1       3.015   6.537  18.200  0.00  0.00    +0.000 C 
ATOM     11  C   UNL     1       2.382   5.260  18.805  0.00  0.00    +0.000 C 
ENDBRANCH   1   2
BRANCH   1  12
ATOM     12  O   UNL     1       4.801   3.411  16.772  0.00  0.00    +0.000 OA
BRANCH  12  14
ATOM     13  O   UNL     1       5.697   4.359  14.954  0.00  0.00    +0.000 OA
ATOM     14  C   UNL     1       5.652   4.289  16.175  0.00  0.00    +0.000 C 
BRANCH  14  15
ATOM     15  C   UNL     1       6.492   5.200  16.995  0.00  0.00    +0.000 A 
ATOM     16  C   UNL     1       6.553   6.569  16.685  0.00  0.00    +0.000 A 
ATOM     17  C   UNL     1       7.311   7.427  17.483  0.00  0.00    +0.000 A 
ATOM     18  N   UNL     1       7.983   6.942  18.559  0.00  0.00    +0.000 NA
ATOM     19  C   UNL     1       7.945   5.624  18.886  0.00  0.00    +0.000 A 
ATOM     20  C   UNL     1       7.201   4.727  18.111  0.00  0.00    +0.000 A 
ENDBRANCH  14  15
ENDBRANCH  12  14
ENDBRANCH   1  12
TORSDOF 4
ENDMDL
