MODEL 1
REMARK VINA RESULT:      -6.3      0.000      0.000
REMARK  Name = 
REMARK  13 active torsions:
REMARK  status: ('A' for Active; 'I' for Inactive)
REMARK    1  A    between atoms: C_1  and  N_2
REMARK    2  A    between atoms: N_2  and  C_3
REMARK    3  A    between atoms: N_2  and  C_4
REMARK    4  A    between atoms: C_4  and  C_5
REMARK    5  A    between atoms: C_5  and  O_6
REMARK    6  A    between atoms: O_6  and  C_7
REMARK    7  A    between atoms: C_10  and  C_11
REMARK    8  A    between atoms: C_11  and  C_23
REMARK    9  A    between atoms: C_12  and  C_13
REMARK   10  A    between atoms: C_12  and  C_17
REMARK   11  A    between atoms: C_13  and  C_14
REMARK   12  A    between atoms: C_14  and  C_15
REMARK   13  A    between atoms: C_15  and  O_16
REMARK                            x       y       z     vdW  Elec       q    Type
REMARK                         _______ _______ _______ _____ _____    ______ ____
ROOT
ATOM      1  C   UNL     1       4.126   5.311  18.082  0.00  0.00    +0.000 C 
ATOM      2  C   UNL     1       3.824   4.023  18.421  0.00  0.00    +0.000 C 
ENDROOT
BRANCH   1   6
ATOM      3  C   UNL     1       1.621   8.669  19.140  0.00  0.00    +0.000 A 
ATOM      4  C   UNL     1       2.086   8.471  17.820  0.00  0.00    +0.000 A 
ATOM      5  C   UNL     1       2.892   7.379  17.501  0.00  0.00    +0.000 A 
ATOM      6  C   UNL     1       3.249   6.444  18.476  0.00  0.00    +0.000 A 
ATOM      7  C   UNL     1       2.766   6.597  19.784  0.00  0.00    +0.000 A 
ATOM      8  C   UNL     1       1.957   7.705  20.112  0.00  0.00    +0.000 A 
BRANCH   3   9
ATOM      9  O   UNL     1       0.865   9.751  19.507  0.00  0.00    +0.000 OA
BRANCH   9  10
ATOM     10  C   UNL     1       0.143  10.552  18.636  0.00  0.00    +0.000 C 
BRANCH  10  11
ATOM     11  C   UNL     1      -1.252  10.901  19.181  0.00  0.00    +0.000 C 
BRANCH  11  13
ATOM     12  C   UNL     1      -3.338  11.439  18.055  0.00  0.00    +0.000 C 
ATOM     13  N   UNL     1      -2.336  10.387  18.299  0.00  0.00    +0.000 NA
ATOM     14  C   UNL     1      -1.837   9.893  17.000  0.00  0.00    +0.000 C 
ENDBRANCH  11  13
ENDBRANCH  10  11
ENDBRANCH   9  10
ENDBRANCH   3   9
ENDBRANCH   1   6
BRANCH   2  15
ATOM     15  C   UNL     1       2.555   3.684  19.106  0.00  0.00    +0.000 A 
ATOM     16  C   UNL     1       1.416   3.393  18.337  0.00  0.00    +0.000 A 
ATOM     17  C   UNL     1       0.224   3.015  18.961  0.00  0.00    +0.000 A 
ATOM     18  C   UNL     1       0.160   2.931  20.354  0.00  0.00    +0.000 A 
ATOM     19  C   UNL     1       1.290   3.226  21.125  0.00  0.00    +0.000 A 
ATOM     20  C   UNL     1       2.488   3.599  20.505  0.00  0.00    +0.000 A 
ENDBRANCH   2  15
BRANCH   1  21
ATOM     21  C   UNL     1       5.341   5.654  17.311  0.00  0.00    +0.000 A 
ATOM     22  C   UNL     1       6.348   6.395  17.941  0.00  0.00    +0.000 A 
ATOM     23  C   UNL     1       7.507   6.722  17.235  0.00  0.00    +0.000 A 
ATOM     24  N   UNL     1       7.656   6.316  15.947  0.00  0.00    +0.000 NA
ATOM     25  C   UNL     1       6.696   5.590  15.313  0.00  0.00    +0.000 A 
ATOM     26  C   UNL     1       5.517   5.246  15.982  0.00  0.00    +0.000 A 
ENDBRANCH   1  21
BRANCH   2  27
ATOM     27  C   UNL     1       4.747   2.850  18.127  0.00  0.00    +0.000 C 
BRANCH  27  28
ATOM     28  C   UNL     1       4.072   1.491  18.356  0.00  0.00    +0.000 C 
BRANCH  28  29
ATOM     29  C   UNL     1       4.735   0.721  19.510  0.00  0.00    +0.000 C 
BRANCH  29  30
ATOM     30  O   UNL     1       5.310   1.593  20.446  0.00  0.00    +0.000 OA
ATOM     31  H   UNL     1       6.046   2.069  19.980  0.00  0.00    +0.000 HD
ENDBRANCH  29  30
ENDBRANCH  28  29
ENDBRANCH  27  28
ENDBRANCH   2  27
TORSDOF 11
ENDMDL
MODEL 2
REMARK VINA RESULT:      -6.2      1.404      2.053
REMARK  Name = 
REMARK  13 active torsions:
REMARK  status: ('A' for Active; 'I' for Inactive)
REMARK    1  A    between atoms: C_1  and  N_2
REMARK    2  A    between atoms: N_2  and  C_3
REMARK    3  A    between atoms: N_2  and  C_4
REMARK    4  A    between atoms: C_4  and  C_5
REMARK    5  A    between atoms: C_5  and  O_6
REMARK    6  A    between atoms: O_6  and  C_7
REMARK    7  A    between atoms: C_10  and  C_11
REMARK    8  A    between atoms: C_11  and  C_23
REMARK    9  A    between atoms: C_12  and  C_13
REMARK   10  A    between atoms: C_12  and  C_17
REMARK   11  A    between atoms: C_13  and  C_14
REMARK   12  A    between atoms: C_14  and  C_15
REMARK   13  A    between atoms: C_15  and  O_16
REMARK                            x       y       z     vdW  Elec       q    Type
REMARK                         _______ _______ _______ _____ _____    ______ ____
ROOT
ATOM      1  C   UNL     1       4.143   5.390  18.107  0.00  0.00    +0.000 C 
ATOM      2  C   UNL     1       3.848   4.102  18.450  0.00  0.00    +0.000 C 
ENDROOT
BRANCH   1   6
ATOM      3  C   UNL     1       1.587   8.732  19.091  0.00  0.00    +0.000 A 
ATOM      4  C   UNL     1       2.099   8.542  17.787  0.00  0.00    +0.000 A 
ATOM      5  C   UNL     1       2.920   7.454  17.491  0.00  0.00    +0.000 A 
ATOM      6  C   UNL     1       3.248   6.517  18.474  0.00  0.00    +0.000 A 
ATOM      7  C   UNL     1       2.719   6.664  19.765  0.00  0.00    +0.000 A 
ATOM      8  C   UNL     1       1.895   7.766  20.070  0.00  0.00    +0.000 A 
BRANCH   3   9
ATOM      9  O   UNL     1       0.814   9.809  19.436  0.00  0.00    +0.000 OA
BRANCH   9  10
ATOM     10  C   UNL     1      -0.220   9.785  20.360  0.00  0.00    +0.000 C 
BRANCH  10  11
ATOM     11  C   UNL     1      -0.489  11.170  20.971  0.00  0.00    +0.000 C 
BRANCH  11  13
ATOM     12  C   UNL     1      -0.541  10.071  23.139  0.00  0.00    +0.000 C 
ATOM     13  N   UNL     1      -1.195  11.071  22.279  0.00  0.00    +0.000 NA
ATOM     14  C   UNL     1      -1.253  12.358  23.001  0.00  0.00    +0.000 C 
ENDBRANCH  11  13
ENDBRANCH  10  11
ENDBRANCH   9  10
ENDBRANCH   3   9
ENDBRANCH   1   6
BRANCH   2  15
ATOM     15  C   UNL     1       2.569   3.755  19.114  0.00  0.00    +0.000 A 
ATOM     16  C   UNL     1       1.430   3.519  18.328  0.00  0.00    +0.000 A 
ATOM     17  C   UNL     1       0.228   3.136  18.929  0.00  0.00    +0.000 A 
ATOM     18  C   UNL     1       0.155   2.991  20.316  0.00  0.00    +0.000 A 
ATOM     19  C   UNL     1       1.285   3.233  21.106  0.00  0.00    +0.000 A 
ATOM     20  C   UNL     1       2.493   3.611  20.507  0.00  0.00    +0.000 A 
ENDBRANCH   2  15
BRANCH   1  21
ATOM     21  C   UNL     1       5.370   5.739  17.357  0.00  0.00    +0.000 A 
ATOM     22  C   UNL     1       5.497   5.295  16.036  0.00  0.00    +0.000 A 
ATOM     23  C   UNL     1       6.642   5.621  15.306  0.00  0.00    +0.000 A 
ATOM     24  N   UNL     1       7.621   6.370  15.877  0.00  0.00    +0.000 NA
ATOM     25  C   UNL     1       7.521   6.819  17.158  0.00  0.00    +0.000 A 
ATOM     26  C   UNL     1       6.393   6.511  17.926  0.00  0.00    +0.000 A 
ENDBRANCH   1  21
BRANCH   2  27
ATOM     27  C   UNL     1       4.787   2.935  18.184  0.00  0.00    +0.000 C 
BRANCH  27  28
ATOM     28  C   UNL     1       4.063   1.583  18.153  0.00  0.00    +0.000 C 
BRANCH  28  29
ATOM     29  C   UNL     1       4.438   0.716  19.367  0.00  0.00    +0.000 C 
BRANCH  29  30
ATOM     30  O   UNL     1       5.290   1.402  20.245  0.00  0.00    +0.000 OA
ATOM     31  H   UNL     1       6.218   1.189  19.968  0.00  0.00    +0.000 HD
ENDBRANCH  29  30
ENDBRANCH  28  29
ENDBRANCH  27  28
ENDBRANCH   2  27
TORSDOF 11
ENDMDL
MODEL 3
REMARK VINA RESULT:      -6.1      1.479      1.700
REMARK  Name = 
REMARK  13 active torsions:
REMARK  status: ('A' for Active; 'I' for Inactive)
REMARK    1  A    between atoms: C_1  and  N_2
REMARK    2  A    between atoms: N_2  and  C_3
REMARK    3  A    between atoms: N_2  and  C_4
REMARK    4  A    between atoms: C_4  and  C_5
REMARK    5  A    between atoms: C_5  and  O_6
REMARK    6  A    between atoms: O_6  and  C_7
REMARK    7  A    between atoms: C_10  and  C_11
REMARK    8  A    between atoms: C_11  and  C_23
REMARK    9  A    between atoms: C_12  and  C_13
REMARK   10  A    between atoms: C_12  and  C_17
REMARK   11  A    between atoms: C_13  and  C_14
REMARK   12  A    between atoms: C_14  and  C_15
REMARK   13  A    between atoms: C_15  and  O_16
REMARK                            x       y       z     vdW  Elec       q    Type
REMARK                         _______ _______ _______ _____ _____    ______ ____
ROOT
ATOM      1  C   UNL     1       4.126   5.398  18.098  0.00  0.00    +0.000 C 
ATOM      2  C   UNL     1       3.839   4.107  18.439  0.00  0.00    +0.000 C 
ENDROOT
BRANCH   1   6
ATOM      3  C   UNL     1       1.573   8.726  19.135  0.00  0.00    +0.000 A 
ATOM      4  C   UNL     1       2.054   8.536  17.819  0.00  0.00    +0.000 A 
ATOM      5  C   UNL     1       2.875   7.453  17.507  0.00  0.00    +0.000 A 
ATOM      6  C   UNL     1       3.233   6.520  18.484  0.00  0.00    +0.000 A 
ATOM      7  C   UNL     1       2.734   6.667  19.787  0.00  0.00    +0.000 A 
ATOM      8  C   UNL     1       1.910   7.765  20.109  0.00  0.00    +0.000 A 
BRANCH   3   9
ATOM      9  O   UNL     1       0.802   9.800  19.495  0.00  0.00    +0.000 OA
BRANCH   9  10
ATOM     10  C   UNL     1       0.850  10.439  20.726  0.00  0.00    +0.000 C 
BRANCH  10  11
ATOM     11  C   UNL     1      -0.464  10.297  21.510  0.00  0.00    +0.000 C 
BRANCH  11  13
ATOM     12  C   UNL     1      -1.702  11.661  23.096  0.00  0.00    +0.000 C 
ATOM     13  N   UNL     1      -1.114  11.616  21.747  0.00  0.00    +0.000 NA
ATOM     14  C   UNL     1      -0.183  12.752  21.593  0.00  0.00    +0.000 C 
ENDBRANCH  11  13
ENDBRANCH  10  11
ENDBRANCH   9  10
ENDBRANCH   3   9
ENDBRANCH   1   6
BRANCH   2  15
ATOM     15  C   UNL     1       2.571   3.753  19.119  0.00  0.00    +0.000 A 
ATOM     16  C   UNL     1       1.425   3.501  18.348  0.00  0.00    +0.000 A 
ATOM     17  C   UNL     1       0.234   3.111  18.964  0.00  0.00    +0.000 A 
ATOM     18  C   UNL     1       0.177   2.975  20.353  0.00  0.00    +0.000 A 
ATOM     19  C   UNL     1       1.313   3.233  21.128  0.00  0.00    +0.000 A 
ATOM     20  C   UNL     1       2.511   3.618  20.514  0.00  0.00    +0.000 A 
ENDBRANCH   2  15
BRANCH   1  21
ATOM     21  C   UNL     1       5.341   5.755  17.332  0.00  0.00    +0.000 A 
ATOM     22  C   UNL     1       6.358   6.462  17.981  0.00  0.00    +0.000 A 
ATOM     23  C   UNL     1       7.517   6.801  17.280  0.00  0.00    +0.000 A 
ATOM     24  N   UNL     1       7.654   6.438  15.978  0.00  0.00    +0.000 NA
ATOM     25  C   UNL     1       6.683   5.745  15.325  0.00  0.00    +0.000 A 
ATOM     26  C   UNL     1       5.504   5.390  15.988  0.00  0.00    +0.000 A 
ENDBRANCH   1  21
BRANCH   2  27
ATOM     27  C   UNL     1       4.778   2.945  18.154  0.00  0.00    +0.000 C 
BRANCH  27  28
ATOM     28  C   UNL     1       4.062   1.588  18.157  0.00  0.00    +0.000 C 
BRANCH  28  29
ATOM     29  C   UNL     1       4.505   0.722  19.349  0.00  0.00    +0.000 C 
BRANCH  29  30
ATOM     30  O   UNL     1       5.306   1.448  20.242  0.00  0.00    +0.000 OA
ATOM     31  H   UNL     1       5.660   2.227  19.741  0.00  0.00    +0.000 HD
ENDBRANCH  29  30
ENDBRANCH  28  29
ENDBRANCH  27  28
ENDBRANCH   2  27
TORSDOF 11
ENDMDL
MODEL 4
REMARK VINA RESULT:      -6.1      2.550      6.685
REMARK  Name = 
REMARK  13 active torsions:
REMARK  status: ('A' for Active; 'I' for Inactive)
REMARK    1  A    between atoms: C_1  and  N_2
REMARK    2  A    between atoms: N_2  and  C_3
REMARK    3  A    between atoms: N_2  and  C_4
REMARK    4  A    between atoms: C_4  and  C_5
REMARK    5  A    between atoms: C_5  and  O_6
REMARK    6  A    between atoms: O_6  and  C_7
REMARK    7  A    between atoms: C_10  and  C_11
REMARK    8  A    between atoms: C_11  and  C_23
REMARK    9  A    between atoms: C_12  and  C_13
REMARK   10  A    between atoms: C_12  and  C_17
REMARK   11  A    between atoms: C_13  and  C_14
REMARK   12  A    between atoms: C_14  and  C_15
REMARK   13  A    between atoms: C_15  and  O_16
REMARK                            x       y       z     vdW  Elec       q    Type
REMARK                         _______ _______ _______ _____ _____    ______ ____
ROOT
ATOM      1  C   UNL     1       3.157   5.810  18.700  0.00  0.00    +0.000 C 
ATOM      2  C   UNL     1       2.676   4.684  19.306  0.00  0.00    +0.000 C 
ENDROOT
BRANCH   1   6
ATOM      3  C   UNL     1       6.486   5.605  15.952  0.00  0.00    +0.000 A 
ATOM      4  C   UNL     1       5.146   5.558  15.506  0.00  0.00    +0.000 A 
ATOM      5  C   UNL     1       4.087   5.629  16.411  0.00  0.00    +0.000 A 
ATOM      6  C   UNL     1       4.324   5.760  17.782  0.00  0.00    +0.000 A 
ATOM      7  C   UNL     1       5.646   5.849  18.243  0.00  0.00    +0.000 A 
ATOM      8  C   UNL     1       6.719   5.770  17.333  0.00  0.00    +0.000 A 
BRANCH   3   9
ATOM      9  O   UNL     1       7.556   5.494  15.104  0.00  0.00    +0.000 OA
BRANCH   9  10
ATOM     10  C   UNL     1       7.490   5.049  13.791  0.00  0.00    +0.000 C 
BRANCH  10  11
ATOM     11  C   UNL     1       6.460   3.924  13.606  0.00  0.00    +0.000 C 
BRANCH  11  13
ATOM     12  C   UNL     1       7.110   2.695  11.612  0.00  0.00    +0.000 C 
ATOM     13  N   UNL     1       6.163   3.676  12.168  0.00  0.00    +0.000 NA
ATOM     14  C   UNL     1       4.785   3.194  11.939  0.00  0.00    +0.000 C 
ENDBRANCH  11  13
ENDBRANCH  10  11
ENDBRANCH   9  10
ENDBRANCH   3   9
ENDBRANCH   1   6
BRANCH   2  15
ATOM     15  C   UNL     1       3.360   3.378  19.158  0.00  0.00    +0.000 A 
ATOM     16  C   UNL     1       4.301   2.983  20.122  0.00  0.00    +0.000 A 
ATOM     17  C   UNL     1       4.916   1.731  20.034  0.00  0.00    +0.000 A 
ATOM     18  C   UNL     1       4.599   0.870  18.980  0.00  0.00    +0.000 A 
ATOM     19  C   UNL     1       3.668   1.261  18.012  0.00  0.00    +0.000 A 
ATOM     20  C   UNL     1       3.045   2.512  18.100  0.00  0.00    +0.000 A 
ENDBRANCH   2  15
BRANCH   1  21
ATOM     21  C   UNL     1       2.544   7.139  18.916  0.00  0.00    +0.000 A 
ATOM     22  C   UNL     1       2.496   8.038  17.845  0.00  0.00    +0.000 A 
ATOM     23  C   UNL     1       1.914   9.294  18.024  0.00  0.00    +0.000 A 
ATOM     24  N   UNL     1       1.392   9.634  19.232  0.00  0.00    +0.000 NA
ATOM     25  C   UNL     1       1.420   8.778  20.288  0.00  0.00    +0.000 A 
ATOM     26  C   UNL     1       1.999   7.512  20.153  0.00  0.00    +0.000 A 
ENDBRANCH   1  21
BRANCH   2  27
ATOM     27  C   UNL     1       1.424   4.677  20.168  0.00  0.00    +0.000 C 
BRANCH  27  28
ATOM     28  C   UNL     1       0.816   3.276  20.321  0.00  0.00    +0.000 C 
BRANCH  28  29
ATOM     29  C   UNL     1       1.166   2.657  21.684  0.00  0.00    +0.000 C 
BRANCH  29  30
ATOM     30  O   UNL     1       2.133   3.416  22.360  0.00  0.00    +0.000 OA
ATOM     31  H   UNL     1       2.954   2.860  22.404  0.00  0.00    +0.000 HD
ENDBRANCH  29  30
ENDBRANCH  28  29
ENDBRANCH  27  28
ENDBRANCH   2  27
TORSDOF 11
ENDMDL
MODEL 5
REMARK VINA RESULT:      -6.0      1.411      2.057
REMARK  Name = 
REMARK  13 active torsions:
REMARK  status: ('A' for Active; 'I' for Inactive)
REMARK    1  A    between atoms: C_1  and  N_2
REMARK    2  A    between atoms: N_2  and  C_3
REMARK    3  A    between atoms: N_2  and  C_4
REMARK    4  A    between atoms: C_4  and  C_5
REMARK    5  A    between atoms: C_5  and  O_6
REMARK    6  A    between atoms: O_6  and  C_7
REMARK    7  A    between atoms: C_10  and  C_11
REMARK    8  A    between atoms: C_11  and  C_23
REMARK    9  A    between atoms: C_12  and  C_13
REMARK   10  A    between atoms: C_12  and  C_17
REMARK   11  A    between atoms: C_13  and  C_14
REMARK   12  A    between atoms: C_14  and  C_15
REMARK   13  A    between atoms: C_15  and  O_16
REMARK                            x       y       z     vdW  Elec       q    Type
REMARK                         _______ _______ _______ _____ _____    ______ ____
ROOT
ATOM      1  C   UNL     1       4.146   5.469  18.077  0.00  0.00    +0.000 C 
ATOM      2  C   UNL     1       3.863   4.181  18.430  0.00  0.00    +0.000 C 
ENDROOT
BRANCH   1   6
ATOM      3  C   UNL     1       1.463   8.664  19.201  0.00  0.00    +0.000 A 
ATOM      4  C   UNL     1       1.920   7.709  20.137  0.00  0.00    +0.000 A 
ATOM      5  C   UNL     1       2.788   6.688  19.752  0.00  0.00    +0.000 A 
ATOM      6  C   UNL     1       3.239   6.590  18.433  0.00  0.00    +0.000 A 
ATOM      7  C   UNL     1       2.830   7.551  17.496  0.00  0.00    +0.000 A 
ATOM      8  C   UNL     1       1.947   8.581  17.880  0.00  0.00    +0.000 A 
BRANCH   3   9
ATOM      9  O   UNL     1       0.577   9.657  19.525  0.00  0.00    +0.000 OA
BRANCH   9  10
ATOM     10  C   UNL     1       0.609  10.950  19.025  0.00  0.00    +0.000 C 
BRANCH  10  11
ATOM     11  C   UNL     1       1.147  11.961  20.052  0.00  0.00    +0.000 C 
BRANCH  11  13
ATOM     12  C   UNL     1       2.546  12.572  18.161  0.00  0.00    +0.000 C 
ATOM     13  N   UNL     1       1.917  13.056  19.400  0.00  0.00    +0.000 NA
ATOM     14  C   UNL     1       1.086  14.236  19.086  0.00  0.00    +0.000 C 
ENDBRANCH  11  13
ENDBRANCH  10  11
ENDBRANCH   9  10
ENDBRANCH   3   9
ENDBRANCH   1   6
BRANCH   2  15
ATOM     15  C   UNL     1       2.586   3.827  19.093  0.00  0.00    +0.000 A 
ATOM     16  C   UNL     1       1.453   3.564  18.306  0.00  0.00    +0.000 A 
ATOM     17  C   UNL     1       0.254   3.173  18.907  0.00  0.00    +0.000 A 
ATOM     18  C   UNL     1       0.177   3.047  20.296  0.00  0.00    +0.000 A 
ATOM     19  C   UNL     1       1.300   3.315  21.087  0.00  0.00    +0.000 A 
ATOM     20  C   UNL     1       2.506   3.701  20.488  0.00  0.00    +0.000 A 
ENDBRANCH   2  15
BRANCH   1  21
ATOM     21  C   UNL     1       5.371   5.825  17.327  0.00  0.00    +0.000 A 
ATOM     22  C   UNL     1       6.369   6.556  17.980  0.00  0.00    +0.000 A 
ATOM     23  C   UNL     1       7.537   6.894  17.295  0.00  0.00    +0.000 A 
ATOM     24  N   UNL     1       7.702   6.508  16.002  0.00  0.00    +0.000 NA
ATOM     25  C   UNL     1       6.751   5.792  15.344  0.00  0.00    +0.000 A 
ATOM     26  C   UNL     1       5.563   5.437  15.993  0.00  0.00    +0.000 A 
ENDBRANCH   1  21
BRANCH   2  27
ATOM     27  C   UNL     1       4.815   3.022  18.175  0.00  0.00    +0.000 C 
BRANCH  27  28
ATOM     28  C   UNL     1       4.088   1.681  18.010  0.00  0.00    +0.000 C 
BRANCH  28  29
ATOM     29  C   UNL     1       4.258   0.792  19.253  0.00  0.00    +0.000 C 
BRANCH  29  30
ATOM     30  O   UNL     1       5.220   1.313  20.130  0.00  0.00    +0.000 OA
ATOM     31  H   UNL     1       5.299   2.281  19.926  0.00  0.00    +0.000 HD
ENDBRANCH  29  30
ENDBRANCH  28  29
ENDBRANCH  27  28
ENDBRANCH   2  27
TORSDOF 11
ENDMDL
MODEL 6
REMARK VINA RESULT:      -6.0      0.232      1.662
REMARK  Name = 
REMARK  13 active torsions:
REMARK  status: ('A' for Active; 'I' for Inactive)
REMARK    1  A    between atoms: C_1  and  N_2
REMARK    2  A    between atoms: N_2  and  C_3
REMARK    3  A    between atoms: N_2  and  C_4
REMARK    4  A    between atoms: C_4  and  C_5
REMARK    5  A    between atoms: C_5  and  O_6
REMARK    6  A    between atoms: O_6  and  C_7
REMARK    7  A    between atoms: C_10  and  C_11
REMARK    8  A    between atoms: C_11  and  C_23
REMARK    9  A    between atoms: C_12  and  C_13
REMARK   10  A    between atoms: C_12  and  C_17
REMARK   11  A    between atoms: C_13  and  C_14
REMARK   12  A    between atoms: C_14  and  C_15
REMARK   13  A    between atoms: C_15  and  O_16
REMARK                            x       y       z     vdW  Elec       q    Type
REMARK                         _______ _______ _______ _____ _____    ______ ____
ROOT
ATOM      1  C   UNL     1       4.183   5.356  18.088  0.00  0.00    +0.000 C 
ATOM      2  C   UNL     1       3.891   4.067  18.431  0.00  0.00    +0.000 C 
ENDROOT
BRANCH   1   6
ATOM      3  C   UNL     1       1.514   8.559  19.220  0.00  0.00    +0.000 A 
ATOM      4  C   UNL     1       1.970   7.602  20.155  0.00  0.00    +0.000 A 
ATOM      5  C   UNL     1       2.834   6.579  19.767  0.00  0.00    +0.000 A 
ATOM      6  C   UNL     1       3.280   6.479  18.447  0.00  0.00    +0.000 A 
ATOM      7  C   UNL     1       2.872   7.442  17.512  0.00  0.00    +0.000 A 
ATOM      8  C   UNL     1       1.993   8.474  17.897  0.00  0.00    +0.000 A 
BRANCH   3   9
ATOM      9  O   UNL     1       0.631   9.554  19.547  0.00  0.00    +0.000 OA
BRANCH   9  10
ATOM     10  C   UNL     1       0.177  10.535  18.677  0.00  0.00    +0.000 C 
BRANCH  10  11
ATOM     11  C   UNL     1      -1.230  11.035  19.042  0.00  0.00    +0.000 C 
BRANCH  11  13
ATOM     12  C   UNL     1      -2.003   9.999  16.984  0.00  0.00    +0.000 C 
ATOM     13  N   UNL     1      -2.092  11.195  17.839  0.00  0.00    +0.000 NA
ATOM     14  C   UNL     1      -3.509  11.440  18.173  0.00  0.00    +0.000 C 
ENDBRANCH  11  13
ENDBRANCH  10  11
ENDBRANCH   9  10
ENDBRANCH   3   9
ENDBRANCH   1   6
BRANCH   2  15
ATOM     15  C   UNL     1       2.608   3.716  19.085  0.00  0.00    +0.000 A 
ATOM     16  C   UNL     1       2.551   3.635  20.485  0.00  0.00    +0.000 A 
ATOM     17  C   UNL     1       1.339   3.362  21.125  0.00  0.00    +0.000 A 
ATOM     18  C   UNL     1       0.180   3.163  20.372  0.00  0.00    +0.000 A 
ATOM     19  C   UNL     1       0.232   3.235  18.975  0.00  0.00    +0.000 A 
ATOM     20  C   UNL     1       1.443   3.514  18.330  0.00  0.00    +0.000 A 
ENDBRANCH   2  15
BRANCH   1  21
ATOM     21  C   UNL     1       5.414   5.710  17.347  0.00  0.00    +0.000 A 
ATOM     22  C   UNL     1       5.559   5.255  16.032  0.00  0.00    +0.000 A 
ATOM     23  C   UNL     1       6.708   5.585  15.311  0.00  0.00    +0.000 A 
ATOM     24  N   UNL     1       7.675   6.348  15.885  0.00  0.00    +0.000 NA
ATOM     25  C   UNL     1       7.557   6.808  17.160  0.00  0.00    +0.000 A 
ATOM     26  C   UNL     1       6.424   6.496  17.920  0.00  0.00    +0.000 A 
ENDBRANCH   1  21
BRANCH   2  27
ATOM     27  C   UNL     1       4.837   2.904  18.174  0.00  0.00    +0.000 C 
BRANCH  27  28
ATOM     28  C   UNL     1       4.122   1.547  18.159  0.00  0.00    +0.000 C 
BRANCH  28  29
ATOM     29  C   UNL     1       4.486   0.706  19.393  0.00  0.00    +0.000 C 
BRANCH  29  30
ATOM     30  O   UNL     1       5.315   1.417  20.273  0.00  0.00    +0.000 OA
ATOM     31  H   UNL     1       5.886   0.748  20.732  0.00  0.00    +0.000 HD
ENDBRANCH  29  30
ENDBRANCH  28  29
ENDBRANCH  27  28
ENDBRANCH   2  27
TORSDOF 11
ENDMDL
MODEL 7
REMARK VINA RESULT:      -6.0      0.724      1.217
REMARK  Name = 
REMARK  13 active torsions:
REMARK  status: ('A' for Active; 'I' for Inactive)
REMARK    1  A    between atoms: C_1  and  N_2
REMARK    2  A    between atoms: N_2  and  C_3
REMARK    3  A    between atoms: N_2  and  C_4
REMARK    4  A    between atoms: C_4  and  C_5
REMARK    5  A    between atoms: C_5  and  O_6
REMARK    6  A    between atoms: O_6  and  C_7
REMARK    7  A    between atoms: C_10  and  C_11
REMARK    8  A    between atoms: C_11  and  C_23
REMARK    9  A    between atoms: C_12  and  C_13
REMARK   10  A    between atoms: C_12  and  C_17
REMARK   11  A    between atoms: C_13  and  C_14
REMARK   12  A    between atoms: C_14  and  C_15
REMARK   13  A    between atoms: C_15  and  O_16
REMARK                            x       y       z     vdW  Elec       q    Type
REMARK                         _______ _______ _______ _____ _____    ______ ____
ROOT
ATOM      1  C   UNL     1       4.121   5.439  18.139  0.00  0.00    +0.000 C 
ATOM      2  C   UNL     1       3.851   4.137  18.454  0.00  0.00    +0.000 C 
ENDROOT
BRANCH   1   6
ATOM      3  C   UNL     1       1.476   8.586  19.469  0.00  0.00    +0.000 A 
ATOM      4  C   UNL     1       1.951   7.588  20.350  0.00  0.00    +0.000 A 
ATOM      5  C   UNL     1       2.806   6.583  19.899  0.00  0.00    +0.000 A 
ATOM      6  C   UNL     1       3.226   6.544  18.567  0.00  0.00    +0.000 A 
ATOM      7  C   UNL     1       2.799   7.547  17.684  0.00  0.00    +0.000 A 
ATOM      8  C   UNL     1       1.928   8.561  18.134  0.00  0.00    +0.000 A 
BRANCH   3   9
ATOM      9  O   UNL     1       0.600   9.564  19.857  0.00  0.00    +0.000 OA
BRANCH   9  10
ATOM     10  C   UNL     1       0.237  10.661  19.090  0.00  0.00    +0.000 C 
BRANCH  10  11
ATOM     11  C   UNL     1      -1.038  11.343  19.610  0.00  0.00    +0.000 C 
BRANCH  11  13
ATOM     12  C   UNL     1      -0.568  13.251  18.179  0.00  0.00    +0.000 C 
ATOM     13  N   UNL     1      -1.602  12.298  18.616  0.00  0.00    +0.000 NA
ATOM     14  C   UNL     1      -2.166  11.626  17.428  0.00  0.00    +0.000 C 
ENDBRANCH  11  13
ENDBRANCH  10  11
ENDBRANCH   9  10
ENDBRANCH   3   9
ENDBRANCH   1   6
BRANCH   2  15
ATOM     15  C   UNL     1       2.596   3.758  19.146  0.00  0.00    +0.000 A 
ATOM     16  C   UNL     1       1.440   3.515  18.387  0.00  0.00    +0.000 A 
ATOM     17  C   UNL     1       0.262   3.101  19.014  0.00  0.00    +0.000 A 
ATOM     18  C   UNL     1       0.230   2.931  20.400  0.00  0.00    +0.000 A 
ATOM     19  C   UNL     1       1.377   3.177  21.162  0.00  0.00    +0.000 A 
ATOM     20  C   UNL     1       2.561   3.587  20.538  0.00  0.00    +0.000 A 
ENDBRANCH   2  15
BRANCH   1  21
ATOM     21  C   UNL     1       5.321   5.823  17.363  0.00  0.00    +0.000 A 
ATOM     22  C   UNL     1       6.354   6.502  18.017  0.00  0.00    +0.000 A 
ATOM     23  C   UNL     1       7.499   6.866  17.306  0.00  0.00    +0.000 A 
ATOM     24  N   UNL     1       7.607   6.556  15.988  0.00  0.00    +0.000 NA
ATOM     25  C   UNL     1       6.619   5.892  15.328  0.00  0.00    +0.000 A 
ATOM     26  C   UNL     1       5.453   5.513  16.002  0.00  0.00    +0.000 A 
ENDBRANCH   1  21
BRANCH   2  27
ATOM     27  C   UNL     1       4.794   2.990  18.126  0.00  0.00    +0.000 C 
BRANCH  27  28
ATOM     28  C   UNL     1       4.061   1.658  17.921  0.00  0.00    +0.000 C 
BRANCH  28  29
ATOM     29  C   UNL     1       4.286   0.705  19.106  0.00  0.00    +0.000 C 
BRANCH  29  30
ATOM     30  O   UNL     1       5.201   1.236  20.026  0.00  0.00    +0.000 OA
ATOM     31  H   UNL     1       5.318   0.556  20.739  0.00  0.00    +0.000 HD
ENDBRANCH  29  30
ENDBRANCH  28  29
ENDBRANCH  27  28
ENDBRANCH   2  27
TORSDOF 11
ENDMDL
MODEL 8
REMARK VINA RESULT:      -5.9      4.224     10.969
REMARK  Name = 
REMARK  13 active torsions:
REMARK  status: ('A' for Active; 'I' for Inactive)
REMARK    1  A    between atoms: C_1  and  N_2
REMARK    2  A    between atoms: N_2  and  C_3
REMARK    3  A    between atoms: N_2  and  C_4
REMARK    4  A    between atoms: C_4  and  C_5
REMARK    5  A    between atoms: C_5  and  O_6
REMARK    6  A    between atoms: O_6  and  C_7
REMARK    7  A    between atoms: C_10  and  C_11
REMARK    8  A    between atoms: C_11  and  C_23
REMARK    9  A    between atoms: C_12  and  C_13
REMARK   10  A    between atoms: C_12  and  C_17
REMARK   11  A    between atoms: C_13  and  C_14
REMARK   12  A    between atoms: C_14  and  C_15
REMARK   13  A    between atoms: C_15  and  O_16
REMARK                            x       y       z     vdW  Elec       q    Type
REMARK                         _______ _______ _______ _____ _____    ______ ____
ROOT
ATOM      1  C   UNL     1      -1.631  12.720  21.582  0.00  0.00    +0.000 C 
ATOM      2  C   UNL     1      -1.036  13.897  21.228  0.00  0.00    +0.000 C 
ENDROOT
BRANCH   1   6
ATOM      3  C   UNL     1       0.455   8.956  21.194  0.00  0.00    +0.000 A 
ATOM      4  C   UNL     1       0.315   9.607  22.440  0.00  0.00    +0.000 A 
ATOM      5  C   UNL     1      -0.365  10.820  22.543  0.00  0.00    +0.000 A 
ATOM      6  C   UNL     1      -0.936  11.418  21.416  0.00  0.00    +0.000 A 
ATOM      7  C   UNL     1      -0.844  10.770  20.175  0.00  0.00    +0.000 A 
ATOM      8  C   UNL     1      -0.151   9.547  20.066  0.00  0.00    +0.000 A 
BRANCH   3   9
ATOM      9  O   UNL     1       1.152   7.787  21.040  0.00  0.00    +0.000 OA
BRANCH   9  10
ATOM     10  C   UNL     1       2.032   7.514  20.003  0.00  0.00    +0.000 C 
BRANCH  10  11
ATOM     11  C   UNL     1       2.528   6.059  20.025  0.00  0.00    +0.000 C 
BRANCH  11  13
ATOM     12  C   UNL     1       1.900   4.959  17.950  0.00  0.00    +0.000 C 
ATOM     13  N   UNL     1       2.996   5.613  18.684  0.00  0.00    +0.000 NA
ATOM     14  C   UNL     1       3.529   6.718  17.862  0.00  0.00    +0.000 C 
ENDBRANCH  11  13
ENDBRANCH  10  11
ENDBRANCH   9  10
ENDBRANCH   3   9
ENDBRANCH   1   6
BRANCH   2  15
ATOM     15  C   UNL     1       0.288  13.922  20.564  0.00  0.00    +0.000 A 
ATOM     16  C   UNL     1       1.451  13.866  21.349  0.00  0.00    +0.000 A 
ATOM     17  C   UNL     1       2.709  13.830  20.742  0.00  0.00    +0.000 A 
ATOM     18  C   UNL     1       2.814  13.855  19.349  0.00  0.00    +0.000 A 
ATOM     19  C   UNL     1       1.659  13.918  18.561  0.00  0.00    +0.000 A 
ATOM     20  C   UNL     1       0.396  13.947  19.165  0.00  0.00    +0.000 A 
ENDBRANCH   2  15
BRANCH   1  21
ATOM     21  C   UNL     1      -2.994  12.673  22.155  0.00  0.00    +0.000 A 
ATOM     22  C   UNL     1      -3.135  12.542  23.541  0.00  0.00    +0.000 A 
ATOM     23  C   UNL     1      -4.412  12.504  24.105  0.00  0.00    +0.000 A 
ATOM     24  N   UNL     1      -5.509  12.601  23.308  0.00  0.00    +0.000 NA
ATOM     25  C   UNL     1      -5.401  12.735  21.959  0.00  0.00    +0.000 A 
ATOM     26  C   UNL     1      -4.140  12.771  21.353  0.00  0.00    +0.000 A 
ENDBRANCH   1  21
BRANCH   2  27
ATOM     27  C   UNL     1      -1.672  15.257  21.477  0.00  0.00    +0.000 C 
BRANCH  27  28
ATOM     28  C   UNL     1      -1.247  15.874  22.816  0.00  0.00    +0.000 C 
BRANCH  28  29
ATOM     29  C   UNL     1      -2.456  16.101  23.739  0.00  0.00    +0.000 C 
BRANCH  29  30
ATOM     30  O   UNL     1      -3.665  15.988  23.039  0.00  0.00    +0.000 OA
ATOM     31  H   UNL     1      -3.479  15.445  22.230  0.00  0.00    +0.000 HD
ENDBRANCH  29  30
ENDBRANCH  28  29
ENDBRANCH  27  28
ENDBRANCH   2  27
TORSDOF 11
ENDMDL
MODEL 9
REMARK VINA RESULT:      -5.9      4.039     10.851
REMARK  Name = 
REMARK  13 active torsions:
REMARK  status: ('A' for Active; 'I' for Inactive)
REMARK    1  A    between atoms: C_1  and  N_2
REMARK    2  A    between atoms: N_2  and  C_3
REMARK    3  A    between atoms: N_2  and  C_4
REMARK    4  A    between atoms: C_4  and  C_5
REMARK    5  A    between atoms: C_5  and  O_6
REMARK    6  A    between atoms: O_6  and  C_7
REMARK    7  A    between atoms: C_10  and  C_11
REMARK    8  A    between atoms: C_11  and  C_23
REMARK    9  A    between atoms: C_12  and  C_13
REMARK   10  A    between atoms: C_12  and  C_17
REMARK   11  A    between atoms: C_13  and  C_14
REMARK   12  A    between atoms: C_14  and  C_15
REMARK   13  A    between atoms: C_15  and  O_16
REMARK                            x       y       z     vdW  Elec       q    Type
REMARK                         _______ _______ _______ _____ _____    ______ ____
ROOT
ATOM      1  C   UNL     1      -1.019  12.978  20.976  0.00  0.00    +0.000 C 
ATOM      2  C   UNL     1      -0.386  14.187  20.945  0.00  0.00    +0.000 C 
ENDROOT
BRANCH   1   6
ATOM      3  C   UNL     1       1.013   9.371  19.738  0.00  0.00    +0.000 A 
ATOM      4  C   UNL     1       0.955   9.767  21.093  0.00  0.00    +0.000 A 
ATOM      5  C   UNL     1       0.291  10.934  21.470  0.00  0.00    +0.000 A 
ATOM      6  C   UNL     1      -0.345  11.736  20.519  0.00  0.00    +0.000 A 
ATOM      7  C   UNL     1      -0.334  11.341  19.173  0.00  0.00    +0.000 A 
ATOM      8  C   UNL     1       0.343  10.166  18.786  0.00  0.00    +0.000 A 
BRANCH   3   9
ATOM      9  O   UNL     1       1.692   8.258  19.318  0.00  0.00    +0.000 OA
BRANCH   9  10
ATOM     10  C   UNL     1       2.334   8.129  18.095  0.00  0.00    +0.000 C 
BRANCH  10  11
ATOM     11  C   UNL     1       3.171   6.843  18.007  0.00  0.00    +0.000 C 
BRANCH  11  13
ATOM     12  C   UNL     1       2.018   4.706  17.889  0.00  0.00    +0.000 C 
ATOM     13  N   UNL     1       2.566   5.732  18.792  0.00  0.00    +0.000 NA
ATOM     14  C   UNL     1       3.522   5.093  19.718  0.00  0.00    +0.000 C 
ENDBRANCH  11  13
ENDBRANCH  10  11
ENDBRANCH   9  10
ENDBRANCH   3   9
ENDBRANCH   1   6
BRANCH   2  15
ATOM     15  C   UNL     1       0.965  14.334  20.354  0.00  0.00    +0.000 A 
ATOM     16  C   UNL     1       1.089  14.698  19.004  0.00  0.00    +0.000 A 
ATOM     17  C   UNL     1       2.352  14.898  18.442  0.00  0.00    +0.000 A 
ATOM     18  C   UNL     1       3.499  14.730  19.222  0.00  0.00    +0.000 A 
ATOM     19  C   UNL     1       3.382  14.360  20.566  0.00  0.00    +0.000 A 
ATOM     20  C   UNL     1       2.118  14.165  21.136  0.00  0.00    +0.000 A 
ENDBRANCH   2  15
BRANCH   1  21
ATOM     21  C   UNL     1      -2.406  12.832  21.472  0.00  0.00    +0.000 A 
ATOM     22  C   UNL     1      -2.614  12.686  22.848  0.00  0.00    +0.000 A 
ATOM     23  C   UNL     1      -3.915  12.556  23.338  0.00  0.00    +0.000 A 
ATOM     24  N   UNL     1      -4.969  12.578  22.481  0.00  0.00    +0.000 NA
ATOM     25  C   UNL     1      -4.796  12.724  21.140  0.00  0.00    +0.000 A 
ATOM     26  C   UNL     1      -3.508  12.852  20.606  0.00  0.00    +0.000 A 
ENDBRANCH   1  21
BRANCH   2  27
ATOM     27  C   UNL     1      -1.003  15.462  21.499  0.00  0.00    +0.000 C 
BRANCH  27  28
ATOM     28  C   UNL     1      -1.850  16.212  20.464  0.00  0.00    +0.000 C 
BRANCH  28  29
ATOM     29  C   UNL     1      -3.251  16.535  21.011  0.00  0.00    +0.000 C 
BRANCH  29  30
ATOM     30  O   UNL     1      -3.408  16.073  22.325  0.00  0.00    +0.000 OA
ATOM     31  H   UNL     1      -2.521  15.741  22.621  0.00  0.00    +0.000 HD
ENDBRANCH  29  30
ENDBRANCH  28  29
ENDBRANCH  27  28
ENDBRANCH   2  27
TORSDOF 11
ENDMDL
