MODEL 1
REMARK VINA RESULT:      -7.7      0.000      0.000
REMARK  Name = 
REMARK  12 active torsions:
REMARK  status: ('A' for Active; 'I' for Inactive)
REMARK    1  A    between atoms: C_1  and  C_2
REMARK    2  A    between atoms: C_2  and  C_3
REMARK    3  A    between atoms: C_3  and  C_4
REMARK    4  A    between atoms: C_4  and  C_5
REMARK    5  A    between atoms: C_5  and  C_6
REMARK    6  A    between atoms: C_6  and  C_7
REMARK    7  A    between atoms: C_7  and  C_8
REMARK    8  A    between atoms: C_8  and  C_9
REMARK    9  A    between atoms: C_9  and  C_10
REMARK   10  A    between atoms: C_10  and  C_11
REMARK   11  A    between atoms: C_11  and  C_12
REMARK   12  A    between atoms: C_12  and  N_13
REMARK                            x       y       z     vdW  Elec       q    Type
REMARK                         _______ _______ _______ _____ _____    ______ ____
ROOT
ATOM      1  C   UNL     1       5.264   5.119  19.411  0.00  0.00    +0.000 C 
ENDROOT
BRANCH   1   2
ATOM      2  N   UNL     1       4.163   4.275  19.006  0.00  0.00    +0.000 N 
ATOM      3  C   UNL     1       3.094   4.734  18.288  0.00  0.00    +0.000 C 
ATOM      4  O   UNL     1       2.878   5.892  17.955  0.00  0.00    +0.000 OA
ATOM      5  C   UNL     1       2.192   3.584  17.986  0.00  0.00    +0.000 C 
ATOM      6  C   UNL     1       0.834   3.627  18.674  0.00  0.00    +0.000 C 
ATOM      7  C   UNL     1       0.900   4.047  20.145  0.00  0.00    +0.000 C 
ATOM      8  C   UNL     1       1.547   2.826  20.803  0.00  0.00    +0.000 C 
ATOM      9  C   UNL     1       1.773   1.898  19.609  0.00  0.00    +0.000 C 
ATOM     10  O   UNL     1       0.584   2.201  18.826  0.00  0.00    +0.000 OA
ATOM     11  C   UNL     1       2.858   2.378  18.653  0.00  0.00    +0.000 C 
ATOM     12  C   UNL     1       4.095   2.937  19.286  0.00  0.00    +0.000 C 
ATOM     13  O   UNL     1       4.889   2.284  19.949  0.00  0.00    +0.000 OA
ENDBRANCH   1   2
BRANCH   1  14
ATOM     14  C   UNL     1       5.916   5.880  18.256  0.00  0.00    +0.000 C 
BRANCH  14  15
ATOM     15  C   UNL     1       6.636   4.873  17.362  0.00  0.00    +0.000 C 
BRANCH  15  16
ATOM     16  C   UNL     1       5.806   4.455  16.156  0.00  0.00    +0.000 C 
BRANCH  16  17
ATOM     17  C   UNL     1       6.040   5.435  15.008  0.00  0.00    +0.000 C 
BRANCH  17  18
ATOM     18  C   UNL     1       6.913   4.811  13.929  0.00  0.00    +0.000 C 
BRANCH  18  19
ATOM     19  C   UNL     1       6.389   3.432  13.544  0.00  0.00    +0.000 C 
BRANCH  19  20
ATOM     20  C   UNL     1       6.673   3.147  12.074  0.00  0.00    +0.000 C 
BRANCH  20  21
ATOM     21  C   UNL     1       5.445   2.563  11.386  0.00  0.00    +0.000 C 
BRANCH  21  22
ATOM     22  C   UNL     1       4.253   3.504  11.526  0.00  0.00    +0.000 C 
BRANCH  22  24
ATOM     23  C   UNL     1       2.866   4.277   9.585  0.00  0.00    +0.000 C 
ATOM     24  C   UNL     1       3.143   3.134  10.547  0.00  0.00    +0.000 C 
ENDBRANCH  22  24
ENDBRANCH  21  22
ENDBRANCH  20  21
ENDBRANCH  19  20
ENDBRANCH  18  19
ENDBRANCH  17  18
ENDBRANCH  16  17
ENDBRANCH  15  16
ENDBRANCH  14  15
ENDBRANCH   1  14
TORSDOF 11
ENDMDL
MODEL 2
REMARK VINA RESULT:      -7.7      1.340      1.676
REMARK  Name = 
REMARK  12 active torsions:
REMARK  status: ('A' for Active; 'I' for Inactive)
REMARK    1  A    between atoms: C_1  and  C_2
REMARK    2  A    between atoms: C_2  and  C_3
REMARK    3  A    between atoms: C_3  and  C_4
REMARK    4  A    between atoms: C_4  and  C_5
REMARK    5  A    between atoms: C_5  and  C_6
REMARK    6  A    between atoms: C_6  and  C_7
REMARK    7  A    between atoms: C_7  and  C_8
REMARK    8  A    between atoms: C_8  and  C_9
REMARK    9  A    between atoms: C_9  and  C_10
REMARK   10  A    between atoms: C_10  and  C_11
REMARK   11  A    between atoms: C_11  and  C_12
REMARK   12  A    between atoms: C_12  and  N_13
REMARK                            x       y       z     vdW  Elec       q    Type
REMARK                         _______ _______ _______ _____ _____    ______ ____
ROOT
ATOM      1  C   UNL     1       4.864   3.916  17.375  0.00  0.00    +0.000 C 
ENDROOT
BRANCH   1   2
ATOM      2  N   UNL     1       3.948   3.279  18.293  0.00  0.00    +0.000 N 
ATOM      3  C   UNL     1       2.645   3.009  17.982  0.00  0.00    +0.000 C 
ATOM      4  O   UNL     1       2.058   3.315  16.952  0.00  0.00    +0.000 OA
ATOM      5  C   UNL     1       2.019   2.288  19.130  0.00  0.00    +0.000 C 
ATOM      6  C   UNL     1       0.933   3.061  19.867  0.00  0.00    +0.000 C 
ATOM      7  C   UNL     1       1.284   4.530  20.120  0.00  0.00    +0.000 C 
ATOM      8  C   UNL     1       2.374   4.423  21.190  0.00  0.00    +0.000 C 
ATOM      9  C   UNL     1       2.498   2.911  21.375  0.00  0.00    +0.000 C 
ATOM     10  O   UNL     1       1.106   2.522  21.207  0.00  0.00    +0.000 OA
ATOM     11  C   UNL     1       3.125   2.195  20.183  0.00  0.00    +0.000 C 
ATOM     12  C   UNL     1       4.302   2.873  19.552  0.00  0.00    +0.000 C 
ATOM     13  O   UNL     1       5.384   3.032  20.098  0.00  0.00    +0.000 OA
ENDBRANCH   1   2
BRANCH   1  14
ATOM     14  C   UNL     1       4.359   5.249  16.824  0.00  0.00    +0.000 C 
BRANCH  14  15
ATOM     15  C   UNL     1       5.196   5.613  15.600  0.00  0.00    +0.000 C 
BRANCH  15  16
ATOM     16  C   UNL     1       6.654   5.197  15.735  0.00  0.00    +0.000 C 
BRANCH  16  17
ATOM     17  C   UNL     1       7.188   4.750  14.376  0.00  0.00    +0.000 C 
BRANCH  17  18
ATOM     18  C   UNL     1       6.061   4.242  13.489  0.00  0.00    +0.000 C 
BRANCH  18  19
ATOM     19  C   UNL     1       6.603   3.310  12.410  0.00  0.00    +0.000 C 
BRANCH  19  20
ATOM     20  C   UNL     1       5.460   2.725  11.591  0.00  0.00    +0.000 C 
BRANCH  20  21
ATOM     21  C   UNL     1       4.196   3.565  11.741  0.00  0.00    +0.000 C 
BRANCH  21  22
ATOM     22  C   UNL     1       3.114   3.081  10.782  0.00  0.00    +0.000 C 
BRANCH  22  24
ATOM     23  C   UNL     1       2.371   4.888   9.211  0.00  0.00    +0.000 C 
ATOM     24  C   UNL     1       3.292   3.696   9.398  0.00  0.00    +0.000 C 
ENDBRANCH  22  24
ENDBRANCH  21  22
ENDBRANCH  20  21
ENDBRANCH  19  20
ENDBRANCH  18  19
ENDBRANCH  17  18
ENDBRANCH  16  17
ENDBRANCH  15  16
ENDBRANCH  14  15
ENDBRANCH   1  14
TORSDOF 11
ENDMDL
MODEL 3
REMARK VINA RESULT:      -7.3      1.070      1.614
REMARK  Name = 
REMARK  12 active torsions:
REMARK  status: ('A' for Active; 'I' for Inactive)
REMARK    1  A    between atoms: C_1  and  C_2
REMARK    2  A    between atoms: C_2  and  C_3
REMARK    3  A    between atoms: C_3  and  C_4
REMARK    4  A    between atoms: C_4  and  C_5
REMARK    5  A    between atoms: C_5  and  C_6
REMARK    6  A    between atoms: C_6  and  C_7
REMARK    7  A    between atoms: C_7  and  C_8
REMARK    8  A    between atoms: C_8  and  C_9
REMARK    9  A    between atoms: C_9  and  C_10
REMARK   10  A    between atoms: C_10  and  C_11
REMARK   11  A    between atoms: C_11  and  C_12
REMARK   12  A    between atoms: C_12  and  N_13
REMARK                            x       y       z     vdW  Elec       q    Type
REMARK                         _______ _______ _______ _____ _____    ______ ____
ROOT
ATOM      1  C   UNL     1       5.154   5.671  19.357  0.00  0.00    +0.000 C 
ENDROOT
BRANCH   1   2
ATOM      2  N   UNL     1       4.220   4.665  18.905  0.00  0.00    +0.000 N 
ATOM      3  C   UNL     1       3.103   4.958  18.172  0.00  0.00    +0.000 C 
ATOM      4  O   UNL     1       2.701   6.072  17.863  0.00  0.00    +0.000 OA
ATOM      5  C   UNL     1       2.415   3.681  17.820  0.00  0.00    +0.000 C 
ATOM      6  C   UNL     1       1.056   3.475  18.476  0.00  0.00    +0.000 C 
ATOM      7  C   UNL     1       1.020   3.859  19.958  0.00  0.00    +0.000 C 
ATOM      8  C   UNL     1       1.851   2.746  20.602  0.00  0.00    +0.000 C 
ATOM      9  C   UNL     1       2.254   1.903  19.392  0.00  0.00    +0.000 C 
ATOM     10  O   UNL     1       1.047   2.024  18.588  0.00  0.00    +0.000 OA
ATOM     11  C   UNL     1       3.262   2.587  18.474  0.00  0.00    +0.000 C 
ATOM     12  C   UNL     1       4.373   3.328  19.151  0.00  0.00    +0.000 C 
ATOM     13  O   UNL     1       5.253   2.799  19.816  0.00  0.00    +0.000 OA
ENDBRANCH   1   2
BRANCH   1  14
ATOM     14  C   UNL     1       6.513   5.611  18.658  0.00  0.00    +0.000 C 
BRANCH  14  15
ATOM     15  C   UNL     1       6.353   6.169  17.246  0.00  0.00    +0.000 C 
BRANCH  15  16
ATOM     16  C   UNL     1       7.028   5.306  16.189  0.00  0.00    +0.000 C 
BRANCH  16  17
ATOM     17  C   UNL     1       6.192   4.051  15.943  0.00  0.00    +0.000 C 
BRANCH  17  18
ATOM     18  C   UNL     1       5.795   3.942  14.478  0.00  0.00    +0.000 C 
BRANCH  18  19
ATOM     19  C   UNL     1       6.914   4.449  13.576  0.00  0.00    +0.000 C 
BRANCH  19  20
ATOM     20  C   UNL     1       6.749   3.902  12.165  0.00  0.00    +0.000 C 
BRANCH  20  21
ATOM     21  C   UNL     1       5.277   3.678  11.836  0.00  0.00    +0.000 C 
BRANCH  21  22
ATOM     22  C   UNL     1       5.046   2.247  11.362  0.00  0.00    +0.000 C 
BRANCH  22  24
ATOM     23  C   UNL     1       6.086  -0.008  11.010  0.00  0.00    +0.000 C 
ATOM     24  C   UNL     1       6.311   1.407  11.513  0.00  0.00    +0.000 C 
ENDBRANCH  22  24
ENDBRANCH  21  22
ENDBRANCH  20  21
ENDBRANCH  19  20
ENDBRANCH  18  19
ENDBRANCH  17  18
ENDBRANCH  16  17
ENDBRANCH  15  16
ENDBRANCH  14  15
ENDBRANCH   1  14
TORSDOF 11
ENDMDL
MODEL 4
REMARK VINA RESULT:      -7.2      1.336      1.663
REMARK  Name = 
REMARK  12 active torsions:
REMARK  status: ('A' for Active; 'I' for Inactive)
REMARK    1  A    between atoms: C_1  and  C_2
REMARK    2  A    between atoms: C_2  and  C_3
REMARK    3  A    between atoms: C_3  and  C_4
REMARK    4  A    between atoms: C_4  and  C_5
REMARK    5  A    between atoms: C_5  and  C_6
REMARK    6  A    between atoms: C_6  and  C_7
REMARK    7  A    between atoms: C_7  and  C_8
REMARK    8  A    between atoms: C_8  and  C_9
REMARK    9  A    between atoms: C_9  and  C_10
REMARK   10  A    between atoms: C_10  and  C_11
REMARK   11  A    between atoms: C_11  and  C_12
REMARK   12  A    between atoms: C_12  and  N_13
REMARK                            x       y       z     vdW  Elec       q    Type
REMARK                         _______ _______ _______ _____ _____    ______ ____
ROOT
ATOM      1  C   UNL     1       4.589   6.162  18.517  0.00  0.00    +0.000 C 
ENDROOT
BRANCH   1   2
ATOM      2  N   UNL     1       3.467   5.278  18.740  0.00  0.00    +0.000 N 
ATOM      3  C   UNL     1       2.366   5.637  19.467  0.00  0.00    +0.000 C 
ATOM      4  O   UNL     1       2.199   6.686  20.075  0.00  0.00    +0.000 OA
ATOM      5  C   UNL     1       1.383   4.514  19.431  0.00  0.00    +0.000 C 
ATOM      6  C   UNL     1       1.148   3.814  20.763  0.00  0.00    +0.000 C 
ATOM      7  C   UNL     1       2.431   3.544  21.554  0.00  0.00    +0.000 C 
ATOM      8  C   UNL     1       3.093   2.437  20.730  0.00  0.00    +0.000 C 
ATOM      9  C   UNL     1       2.101   2.252  19.581  0.00  0.00    +0.000 C 
ATOM     10  O   UNL     1       0.850   2.470  20.292  0.00  0.00    +0.000 OA
ATOM     11  C   UNL     1       2.066   3.422  18.605  0.00  0.00    +0.000 C 
ATOM     12  C   UNL     1       3.393   4.009  18.232  0.00  0.00    +0.000 C 
ATOM     13  O   UNL     1       4.252   3.424  17.588  0.00  0.00    +0.000 OA
ENDBRANCH   1   2
BRANCH   1  14
ATOM     14  C   UNL     1       4.597   6.810  17.132  0.00  0.00    +0.000 C 
BRANCH  14  15
ATOM     15  C   UNL     1       5.981   6.615  16.517  0.00  0.00    +0.000 C 
BRANCH  15  16
ATOM     16  C   UNL     1       6.873   5.702  17.346  0.00  0.00    +0.000 C 
BRANCH  16  17
ATOM     17  C   UNL     1       7.339   4.525  16.491  0.00  0.00    +0.000 C 
BRANCH  17  18
ATOM     18  C   UNL     1       7.093   4.795  15.014  0.00  0.00    +0.000 C 
BRANCH  18  19
ATOM     19  C   UNL     1       6.054   3.830  14.455  0.00  0.00    +0.000 C 
BRANCH  19  20
ATOM     20  C   UNL     1       6.098   3.825  12.932  0.00  0.00    +0.000 C 
BRANCH  20  21
ATOM     21  C   UNL     1       4.691   3.792  12.347  0.00  0.00    +0.000 C 
BRANCH  21  22
ATOM     22  C   UNL     1       4.614   2.798  11.193  0.00  0.00    +0.000 C 
BRANCH  22  24
ATOM     23  C   UNL     1       3.075   4.240   9.835  0.00  0.00    +0.000 C 
ATOM     24  C   UNL     1       3.264   2.881  10.486  0.00  0.00    +0.000 C 
ENDBRANCH  22  24
ENDBRANCH  21  22
ENDBRANCH  20  21
ENDBRANCH  19  20
ENDBRANCH  18  19
ENDBRANCH  17  18
ENDBRANCH  16  17
ENDBRANCH  15  16
ENDBRANCH  14  15
ENDBRANCH   1  14
TORSDOF 11
ENDMDL
MODEL 5
REMARK VINA RESULT:      -7.2      3.640      6.929
REMARK  Name = 
REMARK  12 active torsions:
REMARK  status: ('A' for Active; 'I' for Inactive)
REMARK    1  A    between atoms: C_1  and  C_2
REMARK    2  A    between atoms: C_2  and  C_3
REMARK    3  A    between atoms: C_3  and  C_4
REMARK    4  A    between atoms: C_4  and  C_5
REMARK    5  A    between atoms: C_5  and  C_6
REMARK    6  A    between atoms: C_6  and  C_7
REMARK    7  A    between atoms: C_7  and  C_8
REMARK    8  A    between atoms: C_8  and  C_9
REMARK    9  A    between atoms: C_9  and  C_10
REMARK   10  A    between atoms: C_10  and  C_11
REMARK   11  A    between atoms: C_11  and  C_12
REMARK   12  A    between atoms: C_12  and  N_13
REMARK                            x       y       z     vdW  Elec       q    Type
REMARK                         _______ _______ _______ _____ _____    ______ ____
ROOT
ATOM      1  C   UNL     1       4.509   3.993  17.044  0.00  0.00    +0.000 C 
ENDROOT
BRANCH   1   2
ATOM      2  N   UNL     1       3.722   3.347  18.069  0.00  0.00    +0.000 N 
ATOM      3  C   UNL     1       2.411   2.996  17.895  0.00  0.00    +0.000 C 
ATOM      4  O   UNL     1       1.713   3.230  16.917  0.00  0.00    +0.000 OA
ATOM      5  C   UNL     1       1.939   2.291  19.122  0.00  0.00    +0.000 C 
ATOM      6  C   UNL     1       0.886   3.035  19.934  0.00  0.00    +0.000 C 
ATOM      7  C   UNL     1       1.178   4.529  20.101  0.00  0.00    +0.000 C 
ATOM      8  C   UNL     1       2.368   4.523  21.062  0.00  0.00    +0.000 C 
ATOM      9  C   UNL     1       2.594   3.027  21.287  0.00  0.00    +0.000 C 
ATOM     10  O   UNL     1       1.215   2.560  21.269  0.00  0.00    +0.000 OA
ATOM     11  C   UNL     1       3.143   2.298  20.066  0.00  0.00    +0.000 C 
ATOM     12  C   UNL     1       4.215   3.010  19.300  0.00  0.00    +0.000 C 
ATOM     13  O   UNL     1       5.334   3.247  19.732  0.00  0.00    +0.000 OA
ENDBRANCH   1   2
BRANCH   1  14
ATOM     14  C   UNL     1       4.731   5.486  17.285  0.00  0.00    +0.000 C 
BRANCH  14  15
ATOM     15  C   UNL     1       3.377   6.135  17.567  0.00  0.00    +0.000 C 
BRANCH  15  16
ATOM     16  C   UNL     1       3.474   7.640  17.770  0.00  0.00    +0.000 C 
BRANCH  16  17
ATOM     17  C   UNL     1       2.273   8.127  18.578  0.00  0.00    +0.000 C 
BRANCH  17  18
ATOM     18  C   UNL     1       1.439   9.112  17.772  0.00  0.00    +0.000 C 
BRANCH  18  19
ATOM     19  C   UNL     1       1.297  10.434  18.518  0.00  0.00    +0.000 C 
BRANCH  19  20
ATOM     20  C   UNL     1      -0.173  10.786  18.704  0.00  0.00    +0.000 C 
BRANCH  20  21
ATOM     21  C   UNL     1      -0.582  10.662  20.167  0.00  0.00    +0.000 C 
BRANCH  21  22
ATOM     22  C   UNL     1       0.649  10.526  21.058  0.00  0.00    +0.000 C 
BRANCH  22  24
ATOM     23  C   UNL     1      -0.002   9.512  23.257  0.00  0.00    +0.000 C 
ATOM     24  C   UNL     1       0.590   9.246  21.884  0.00  0.00    +0.000 C 
ENDBRANCH  22  24
ENDBRANCH  21  22
ENDBRANCH  20  21
ENDBRANCH  19  20
ENDBRANCH  18  19
ENDBRANCH  17  18
ENDBRANCH  16  17
ENDBRANCH  15  16
ENDBRANCH  14  15
ENDBRANCH   1  14
TORSDOF 11
ENDMDL
MODEL 6
REMARK VINA RESULT:      -7.2      0.863      1.584
REMARK  Name = 
REMARK  12 active torsions:
REMARK  status: ('A' for Active; 'I' for Inactive)
REMARK    1  A    between atoms: C_1  and  C_2
REMARK    2  A    between atoms: C_2  and  C_3
REMARK    3  A    between atoms: C_3  and  C_4
REMARK    4  A    between atoms: C_4  and  C_5
REMARK    5  A    between atoms: C_5  and  C_6
REMARK    6  A    between atoms: C_6  and  C_7
REMARK    7  A    between atoms: C_7  and  C_8
REMARK    8  A    between atoms: C_8  and  C_9
REMARK    9  A    between atoms: C_9  and  C_10
REMARK   10  A    between atoms: C_10  and  C_11
REMARK   11  A    between atoms: C_11  and  C_12
REMARK   12  A    between atoms: C_12  and  N_13
REMARK                            x       y       z     vdW  Elec       q    Type
REMARK                         _______ _______ _______ _____ _____    ______ ____
ROOT
ATOM      1  C   UNL     1       4.967   5.776  18.924  0.00  0.00    +0.000 C 
ENDROOT
BRANCH   1   2
ATOM      2  N   UNL     1       4.005   4.739  18.631  0.00  0.00    +0.000 N 
ATOM      3  C   UNL     1       2.785   4.988  18.065  0.00  0.00    +0.000 C 
ATOM      4  O   UNL     1       2.312   6.085  17.799  0.00  0.00    +0.000 OA
ATOM      5  C   UNL     1       2.088   3.688  17.840  0.00  0.00    +0.000 C 
ATOM      6  C   UNL     1       0.846   3.462  18.691  0.00  0.00    +0.000 C 
ATOM      7  C   UNL     1       1.017   3.875  20.156  0.00  0.00    +0.000 C 
ATOM      8  C   UNL     1       1.963   2.797  20.689  0.00  0.00    +0.000 C 
ATOM      9  C   UNL     1       2.208   1.939  19.447  0.00  0.00    +0.000 C 
ATOM     10  O   UNL     1       0.893   2.014  18.827  0.00  0.00    +0.000 OA
ATOM     11  C   UNL     1       3.051   2.629  18.380  0.00  0.00    +0.000 C 
ATOM     12  C   UNL     1       4.229   3.411  18.874  0.00  0.00    +0.000 C 
ATOM     13  O   UNL     1       5.211   2.918  19.411  0.00  0.00    +0.000 OA
ENDBRANCH   1   2
BRANCH   1  14
ATOM     14  C   UNL     1       5.290   6.674  17.729  0.00  0.00    +0.000 C 
BRANCH  14  15
ATOM     15  C   UNL     1       6.805   6.852  17.657  0.00  0.00    +0.000 C 
BRANCH  15  16
ATOM     16  C   UNL     1       7.564   5.788  18.437  0.00  0.00    +0.000 C 
BRANCH  16  17
ATOM     17  C   UNL     1       7.660   4.511  17.603  0.00  0.00    +0.000 C 
BRANCH  17  18
ATOM     18  C   UNL     1       7.305   4.784  16.149  0.00  0.00    +0.000 C 
BRANCH  18  19
ATOM     19  C   UNL     1       6.239   3.808  15.662  0.00  0.00    +0.000 C 
BRANCH  19  20
ATOM     20  C   UNL     1       5.515   4.373  14.447  0.00  0.00    +0.000 C 
BRANCH  20  21
ATOM     21  C   UNL     1       6.118   3.833  13.155  0.00  0.00    +0.000 C 
BRANCH  21  22
ATOM     22  C   UNL     1       5.113   2.948  12.424  0.00  0.00    +0.000 C 
BRANCH  22  24
ATOM     23  C   UNL     1       3.313   3.208  10.697  0.00  0.00    +0.000 C 
ATOM     24  C   UNL     1       4.750   3.536  11.064  0.00  0.00    +0.000 C 
ENDBRANCH  22  24
ENDBRANCH  21  22
ENDBRANCH  20  21
ENDBRANCH  19  20
ENDBRANCH  18  19
ENDBRANCH  17  18
ENDBRANCH  16  17
ENDBRANCH  15  16
ENDBRANCH  14  15
ENDBRANCH   1  14
TORSDOF 11
ENDMDL
MODEL 7
REMARK VINA RESULT:      -7.1      2.830      6.933
REMARK  Name = 
REMARK  12 active torsions:
REMARK  status: ('A' for Active; 'I' for Inactive)
REMARK    1  A    between atoms: C_1  and  C_2
REMARK    2  A    between atoms: C_2  and  C_3
REMARK    3  A    between atoms: C_3  and  C_4
REMARK    4  A    between atoms: C_4  and  C_5
REMARK    5  A    between atoms: C_5  and  C_6
REMARK    6  A    between atoms: C_6  and  C_7
REMARK    7  A    between atoms: C_7  and  C_8
REMARK    8  A    between atoms: C_8  and  C_9
REMARK    9  A    between atoms: C_9  and  C_10
REMARK   10  A    between atoms: C_10  and  C_11
REMARK   11  A    between atoms: C_11  and  C_12
REMARK   12  A    between atoms: C_12  and  N_13
REMARK                            x       y       z     vdW  Elec       q    Type
REMARK                         _______ _______ _______ _____ _____    ______ ____
ROOT
ATOM      1  C   UNL     1       4.633   2.971  19.701  0.00  0.00    +0.000 C 
ENDROOT
BRANCH   1   2
ATOM      2  N   UNL     1       4.839   4.013  18.721  0.00  0.00    +0.000 N 
ATOM      3  C   UNL     1       4.180   4.054  17.523  0.00  0.00    +0.000 C 
ATOM      4  O   UNL     1       3.405   3.215  17.084  0.00  0.00    +0.000 OA
ATOM      5  C   UNL     1       4.581   5.297  16.801  0.00  0.00    +0.000 C 
ATOM      6  C   UNL     1       5.393   5.076  15.531  0.00  0.00    +0.000 C 
ATOM      7  C   UNL     1       6.485   4.012  15.674  0.00  0.00    +0.000 C 
ATOM      8  C   UNL     1       7.502   4.711  16.578  0.00  0.00    +0.000 C 
ATOM      9  C   UNL     1       6.832   6.062  16.834  0.00  0.00    +0.000 C 
ATOM     10  O   UNL     1       6.207   6.281  15.539  0.00  0.00    +0.000 OA
ATOM     11  C   UNL     1       5.596   5.976  17.722  0.00  0.00    +0.000 C 
ATOM     12  C   UNL     1       5.696   5.064  18.906  0.00  0.00    +0.000 C 
ATOM     13  O   UNL     1       6.438   5.248  19.860  0.00  0.00    +0.000 OA
ENDBRANCH   1   2
BRANCH   1  14
ATOM     14  C   UNL     1       3.179   2.512  19.818  0.00  0.00    +0.000 C 
BRANCH  14  15
ATOM     15  C   UNL     1       2.837   2.366  21.299  0.00  0.00    +0.000 C 
BRANCH  15  16
ATOM     16  C   UNL     1       1.716   3.296  21.741  0.00  0.00    +0.000 C 
BRANCH  16  17
ATOM     17  C   UNL     1       1.261   4.150  20.559  0.00  0.00    +0.000 C 
BRANCH  17  18
ATOM     18  C   UNL     1       1.742   5.585  20.709  0.00  0.00    +0.000 C 
BRANCH  18  19
ATOM     19  C   UNL     1       2.212   6.138  19.368  0.00  0.00    +0.000 C 
BRANCH  19  20
ATOM     20  C   UNL     1       2.213   7.661  19.392  0.00  0.00    +0.000 C 
BRANCH  20  21
ATOM     21  C   UNL     1       2.268   8.227  17.977  0.00  0.00    +0.000 C 
BRANCH  21  22
ATOM     22  C   UNL     1       1.586   9.590  17.919  0.00  0.00    +0.000 C 
BRANCH  22  24
ATOM     23  C   UNL     1       0.925  11.130  19.785  0.00  0.00    +0.000 C 
ATOM     24  C   UNL     1       0.661   9.793  19.114  0.00  0.00    +0.000 C 
ENDBRANCH  22  24
ENDBRANCH  21  22
ENDBRANCH  20  21
ENDBRANCH  19  20
ENDBRANCH  18  19
ENDBRANCH  17  18
ENDBRANCH  16  17
ENDBRANCH  15  16
ENDBRANCH  14  15
ENDBRANCH   1  14
TORSDOF 11
ENDMDL
MODEL 8
REMARK VINA RESULT:      -7.1      3.969      6.520
REMARK  Name = 
REMARK  12 active torsions:
REMARK  status: ('A' for Active; 'I' for Inactive)
REMARK    1  A    between atoms: C_1  and  C_2
REMARK    2  A    between atoms: C_2  and  C_3
REMARK    3  A    between atoms: C_3  and  C_4
REMARK    4  A    between atoms: C_4  and  C_5
REMARK    5  A    between atoms: C_5  and  C_6
REMARK    6  A    between atoms: C_6  and  C_7
REMARK    7  A    between atoms: C_7  and  C_8
REMARK    8  A    between atoms: C_8  and  C_9
REMARK    9  A    between atoms: C_9  and  C_10
REMARK   10  A    between atoms: C_10  and  C_11
REMARK   11  A    between atoms: C_11  and  C_12
REMARK   12  A    between atoms: C_12  and  N_13
REMARK                            x       y       z     vdW  Elec       q    Type
REMARK                         _______ _______ _______ _____ _____    ______ ____
ROOT
ATOM      1  C   UNL     1       5.205   4.864  17.681  0.00  0.00    +0.000 C 
ENDROOT
BRANCH   1   2
ATOM      2  N   UNL     1       3.870   4.472  18.074  0.00  0.00    +0.000 N 
ATOM      3  C   UNL     1       2.938   5.356  18.542  0.00  0.00    +0.000 C 
ATOM      4  O   UNL     1       3.104   6.549  18.759  0.00  0.00    +0.000 OA
ATOM      5  C   UNL     1       1.660   4.623  18.779  0.00  0.00    +0.000 C 
ATOM      6  C   UNL     1       1.238   4.511  20.239  0.00  0.00    +0.000 C 
ATOM      7  C   UNL     1       2.387   4.164  21.189  0.00  0.00    +0.000 C 
ATOM      8  C   UNL     1       2.673   2.703  20.833  0.00  0.00    +0.000 C 
ATOM      9  C   UNL     1       1.659   2.438  19.720  0.00  0.00    +0.000 C 
ATOM     10  O   UNL     1       0.541   3.235  20.203  0.00  0.00    +0.000 OA
ATOM     11  C   UNL     1       1.971   3.168  18.418  0.00  0.00    +0.000 C 
ATOM     12  C   UNL     1       3.409   3.185  18.000  0.00  0.00    +0.000 C 
ATOM     13  O   UNL     1       4.043   2.196  17.662  0.00  0.00    +0.000 OA
ENDBRANCH   1   2
BRANCH   1  14
ATOM     14  C   UNL     1       6.246   4.705  18.790  0.00  0.00    +0.000 C 
BRANCH  14  15
ATOM     15  C   UNL     1       7.155   5.932  18.776  0.00  0.00    +0.000 C 
BRANCH  15  16
ATOM     16  C   UNL     1       7.342   6.513  17.382  0.00  0.00    +0.000 C 
BRANCH  16  17
ATOM     17  C   UNL     1       7.427   8.036  17.468  0.00  0.00    +0.000 C 
BRANCH  17  18
ATOM     18  C   UNL     1       8.563   8.466  18.384  0.00  0.00    +0.000 C 
BRANCH  18  19
ATOM     19  C   UNL     1       8.725   9.982  18.366  0.00  0.00    +0.000 C 
BRANCH  19  20
ATOM     20  C   UNL     1       9.369  10.463  19.660  0.00  0.00    +0.000 C 
BRANCH  20  21
ATOM     21  C   UNL     1      10.264  11.671  19.406  0.00  0.00    +0.000 C 
BRANCH  21  22
ATOM     22  C   UNL     1      11.293  11.358  18.326  0.00  0.00    +0.000 C 
BRANCH  22  24
ATOM     23  C   UNL     1      10.386  13.445  17.271  0.00  0.00    +0.000 C 
ATOM     24  C   UNL     1      11.627  12.602  17.509  0.00  0.00    +0.000 C 
ENDBRANCH  22  24
ENDBRANCH  21  22
ENDBRANCH  20  21
ENDBRANCH  19  20
ENDBRANCH  18  19
ENDBRANCH  17  18
ENDBRANCH  16  17
ENDBRANCH  15  16
ENDBRANCH  14  15
ENDBRANCH   1  14
TORSDOF 11
ENDMDL
MODEL 9
REMARK VINA RESULT:      -7.0      3.516      6.071
REMARK  Name = 
REMARK  12 active torsions:
REMARK  status: ('A' for Active; 'I' for Inactive)
REMARK    1  A    between atoms: C_1  and  C_2
REMARK    2  A    between atoms: C_2  and  C_3
REMARK    3  A    between atoms: C_3  and  C_4
REMARK    4  A    between atoms: C_4  and  C_5
REMARK    5  A    between atoms: C_5  and  C_6
REMARK    6  A    between atoms: C_6  and  C_7
REMARK    7  A    between atoms: C_7  and  C_8
REMARK    8  A    between atoms: C_8  and  C_9
REMARK    9  A    between atoms: C_9  and  C_10
REMARK   10  A    between atoms: C_10  and  C_11
REMARK   11  A    between atoms: C_11  and  C_12
REMARK   12  A    between atoms: C_12  and  N_13
REMARK                            x       y       z     vdW  Elec       q    Type
REMARK                         _______ _______ _______ _____ _____    ______ ____
ROOT
ATOM      1  C   UNL     1       4.201   3.856  16.793  0.00  0.00    +0.000 C 
ENDROOT
BRANCH   1   2
ATOM      2  N   UNL     1       3.098   3.561  17.680  0.00  0.00    +0.000 N 
ATOM      3  C   UNL     1       2.167   4.491  18.049  0.00  0.00    +0.000 C 
ATOM      4  O   UNL     1       2.163   5.680  17.759  0.00  0.00    +0.000 OA
ATOM      5  C   UNL     1       1.141   3.826  18.905  0.00  0.00    +0.000 C 
ATOM      6  C   UNL     1       1.119   4.277  20.360  0.00  0.00    +0.000 C 
ATOM      7  C   UNL     1       2.510   4.418  20.984  0.00  0.00    +0.000 C 
ATOM      8  C   UNL     1       2.958   2.961  21.114  0.00  0.00    +0.000 C 
ATOM      9  C   UNL     1       1.766   2.203  20.528  0.00  0.00    +0.000 C 
ATOM     10  O   UNL     1       0.677   3.046  20.998  0.00  0.00    +0.000 OA
ATOM     11  C   UNL     1       1.609   2.374  19.021  0.00  0.00    +0.000 C 
ATOM     12  C   UNL     1       2.872   2.323  18.217  0.00  0.00    +0.000 C 
ATOM     13  O   UNL     1       3.572   1.328  18.089  0.00  0.00    +0.000 OA
ENDBRANCH   1   2
BRANCH   1  14
ATOM     14  C   UNL     1       5.542   4.016  17.510  0.00  0.00    +0.000 C 
BRANCH  14  15
ATOM     15  C   UNL     1       5.699   5.479  17.917  0.00  0.00    +0.000 C 
BRANCH  15  16
ATOM     16  C   UNL     1       6.546   5.656  19.170  0.00  0.00    +0.000 C 
BRANCH  16  17
ATOM     17  C   UNL     1       7.849   6.369  18.811  0.00  0.00    +0.000 C 
BRANCH  17  18
ATOM     18  C   UNL     1       7.719   7.106  17.487  0.00  0.00    +0.000 C 
BRANCH  18  19
ATOM     19  C   UNL     1       7.528   8.601  17.719  0.00  0.00    +0.000 C 
BRANCH  19  20
ATOM     20  C   UNL     1       8.734   9.185  18.443  0.00  0.00    +0.000 C 
BRANCH  20  21
ATOM     21  C   UNL     1       8.785  10.700  18.280  0.00  0.00    +0.000 C 
BRANCH  21  22
ATOM     22  C   UNL     1      10.176  11.146  17.844  0.00  0.00    +0.000 C 
BRANCH  22  24
ATOM     23  C   UNL     1      11.320  13.193  16.953  0.00  0.00    +0.000 C 
ATOM     24  C   UNL     1      10.336  12.657  17.979  0.00  0.00    +0.000 C 
ENDBRANCH  22  24
ENDBRANCH  21  22
ENDBRANCH  20  21
ENDBRANCH  19  20
ENDBRANCH  18  19
ENDBRANCH  17  18
ENDBRANCH  16  17
ENDBRANCH  15  16
ENDBRANCH  14  15
ENDBRANCH   1  14
TORSDOF 11
ENDMDL
