MODEL 1
REMARK VINA RESULT:      -9.3      0.000      0.000
REMARK  Name = 
REMARK  7 active torsions:
REMARK  status: ('A' for Active; 'I' for Inactive)
REMARK    1  A    between atoms: C_2  and  C_3
REMARK    2  A    between atoms: C_3  and  N_4
REMARK    3  A    between atoms: C_6  and  C_7
REMARK    4  A    between atoms: C_7  and  N_8
REMARK    5  A    between atoms: N_11  and  C_12
REMARK    6  A    between atoms: C_12  and  C_13
REMARK    7  A    between atoms: C_12  and  C_19
REMARK                            x       y       z     vdW  Elec       q    Type
REMARK                         _______ _______ _______ _____ _____    ______ ____
ROOT
ATOM      1  N   UNL     1       6.394   3.983  18.010  0.00  0.00    +0.000 NA
ATOM      2  C   UNL     1       6.348   4.974  19.103  0.00  0.00    +0.000 C 
ATOM      3  C   UNL     1       5.726   6.324  18.683  0.00  0.00    +0.000 C 
ATOM      4  N   UNL     1       4.327   6.233  18.187  0.00  0.00    +0.000 NA
ATOM      5  C   UNL     1       4.211   5.114  17.230  0.00  0.00    +0.000 C 
ATOM      6  C   UNL     1       4.997   3.811  17.542  0.00  0.00    +0.000 C 
ENDROOT
BRANCH   1   7
ATOM      7  C   UNL     1       7.307   4.382  16.909  0.00  0.00    +0.000 C 
BRANCH   7  10
ATOM      8  N   UNL     1       6.606   4.228  13.399  0.00  0.00    +0.000 N 
ATOM      9  C   UNL     1       6.161   3.802  14.689  0.00  0.00    +0.000 C 
ATOM     10  C   UNL     1       6.647   4.906  15.605  0.00  0.00    +0.000 C 
ATOM     11  O   UNL     1       7.531   5.712  14.807  0.00  0.00    +0.000 OA
ATOM     12  C   UNL     1       7.491   5.271  13.507  0.00  0.00    +0.000 C 
ATOM     13  O   UNL     1       8.177   5.742  12.620  0.00  0.00    +0.000 OA
BRANCH   8  14
ATOM     14  C   UNL     1       6.553   3.352  12.249  0.00  0.00    +0.000 C 
BRANCH  14  16
ATOM     15  C   UNL     1       4.286   3.271  11.160  0.00  0.00    +0.000 C 
ATOM     16  C   UNL     1       5.157   2.835  12.079  0.00  0.00    +0.000 C 
ENDBRANCH  14  16
ENDBRANCH   8  14
ENDBRANCH   7  10
ENDBRANCH   1   7
BRANCH   4  17
ATOM     17  C   UNL     1       3.362   6.252  19.320  0.00  0.00    +0.000 C 
BRANCH  17  18
ATOM     18  C   UNL     1       2.481   7.519  19.215  0.00  0.00    +0.000 A 
ATOM     19  C   UNL     1       1.737   7.978  20.322  0.00  0.00    +0.000 A 
ATOM     20  C   UNL     1       0.844   9.040  20.205  0.00  0.00    +0.000 A 
ATOM     21  C   UNL     1       0.659   9.652  18.970  0.00  0.00    +0.000 A 
ATOM     22  C   UNL     1       1.381   9.214  17.861  0.00  0.00    +0.000 A 
ATOM     23  C   UNL     1       2.297   8.163  17.981  0.00  0.00    +0.000 A 
ENDBRANCH  17  18
BRANCH  17  24
ATOM     24  C   UNL     1       2.478   5.004  19.487  0.00  0.00    +0.000 A 
ATOM     25  C   UNL     1       2.397   4.372  20.743  0.00  0.00    +0.000 A 
ATOM     26  C   UNL     1       1.537   3.290  20.953  0.00  0.00    +0.000 A 
ATOM     27  C   UNL     1       0.731   2.826  19.915  0.00  0.00    +0.000 A 
ATOM     28  C   UNL     1       0.807   3.425  18.663  0.00  0.00    +0.000 A 
ATOM     29  C   UNL     1       1.684   4.492  18.446  0.00  0.00    +0.000 A 
ENDBRANCH  17  24
ENDBRANCH   4  17
TORSDOF 7
ENDMDL
MODEL 2
REMARK VINA RESULT:      -8.9      0.739      1.234
REMARK  Name = 
REMARK  7 active torsions:
REMARK  status: ('A' for Active; 'I' for Inactive)
REMARK    1  A    between atoms: C_2  and  C_3
REMARK    2  A    between atoms: C_3  and  N_4
REMARK    3  A    between atoms: C_6  and  C_7
REMARK    4  A    between atoms: C_7  and  N_8
REMARK    5  A    between atoms: N_11  and  C_12
REMARK    6  A    between atoms: C_12  and  C_13
REMARK    7  A    between atoms: C_12  and  C_19
REMARK                            x       y       z     vdW  Elec       q    Type
REMARK                         _______ _______ _______ _____ _____    ______ ____
ROOT
ATOM      1  N   UNL     1       5.167   3.786  17.388  0.00  0.00    +0.000 NA
ATOM      2  C   UNL     1       5.277   4.002  18.844  0.00  0.00    +0.000 C 
ATOM      3  C   UNL     1       5.422   5.489  19.235  0.00  0.00    +0.000 C 
ATOM      4  N   UNL     1       4.295   6.356  18.800  0.00  0.00    +0.000 NA
ATOM      5  C   UNL     1       3.955   6.063  17.394  0.00  0.00    +0.000 C 
ATOM      6  C   UNL     1       3.999   4.580  16.933  0.00  0.00    +0.000 C 
ENDROOT
BRANCH   1   7
ATOM      7  C   UNL     1       6.408   4.147  16.656  0.00  0.00    +0.000 C 
BRANCH   7  10
ATOM      8  N   UNL     1       6.814   4.415  13.107  0.00  0.00    +0.000 N 
ATOM      9  C   UNL     1       5.956   3.929  14.141  0.00  0.00    +0.000 C 
ATOM     10  C   UNL     1       6.234   4.872  15.294  0.00  0.00    +0.000 C 
ATOM     11  O   UNL     1       7.390   5.632  14.904  0.00  0.00    +0.000 OA
ATOM     12  C   UNL     1       7.714   5.324  13.606  0.00  0.00    +0.000 C 
ATOM     13  O   UNL     1       8.681   5.786  13.030  0.00  0.00    +0.000 OA
BRANCH   8  14
ATOM     14  C   UNL     1       7.039   3.665  11.890  0.00  0.00    +0.000 C 
BRANCH  14  16
ATOM     15  C   UNL     1       6.241   1.395  11.156  0.00  0.00    +0.000 C 
ATOM     16  C   UNL     1       6.039   2.554  11.797  0.00  0.00    +0.000 C 
ENDBRANCH  14  16
ENDBRANCH   8  14
ENDBRANCH   7  10
ENDBRANCH   1   7
BRANCH   4  17
ATOM     17  C   UNL     1       3.180   6.308  19.786  0.00  0.00    +0.000 C 
BRANCH  17  18
ATOM     18  C   UNL     1       2.218   7.489  19.523  0.00  0.00    +0.000 A 
ATOM     19  C   UNL     1       2.162   8.110  18.258  0.00  0.00    +0.000 A 
ATOM     20  C   UNL     1       1.395   9.253  18.044  0.00  0.00    +0.000 A 
ATOM     21  C   UNL     1       0.685   9.813  19.100  0.00  0.00    +0.000 A 
ATOM     22  C   UNL     1       0.727   9.219  20.360  0.00  0.00    +0.000 A 
ATOM     23  C   UNL     1       1.477   8.057  20.572  0.00  0.00    +0.000 A 
ENDBRANCH  17  18
BRANCH  17  24
ATOM     24  C   UNL     1       2.392   4.989  19.862  0.00  0.00    +0.000 A 
ATOM     25  C   UNL     1       2.363   4.265  21.070  0.00  0.00    +0.000 A 
ATOM     26  C   UNL     1       1.586   3.109  21.200  0.00  0.00    +0.000 A 
ATOM     27  C   UNL     1       0.812   2.663  20.131  0.00  0.00    +0.000 A 
ATOM     28  C   UNL     1       0.838   3.354  18.925  0.00  0.00    +0.000 A 
ATOM     29  C   UNL     1       1.633   4.496  18.786  0.00  0.00    +0.000 A 
ENDBRANCH  17  24
ENDBRANCH   4  17
TORSDOF 7
ENDMDL
MODEL 3
REMARK VINA RESULT:      -8.9      0.390      1.001
REMARK  Name = 
REMARK  7 active torsions:
REMARK  status: ('A' for Active; 'I' for Inactive)
REMARK    1  A    between atoms: C_2  and  C_3
REMARK    2  A    between atoms: C_3  and  N_4
REMARK    3  A    between atoms: C_6  and  C_7
REMARK    4  A    between atoms: C_7  and  N_8
REMARK    5  A    between atoms: N_11  and  C_12
REMARK    6  A    between atoms: C_12  and  C_13
REMARK    7  A    between atoms: C_12  and  C_19
REMARK                            x       y       z     vdW  Elec       q    Type
REMARK                         _______ _______ _______ _____ _____    ______ ____
ROOT
ATOM      1  N   UNL     1       6.414   4.040  18.058  0.00  0.00    +0.000 NA
ATOM      2  C   UNL     1       6.330   5.076  19.106  0.00  0.00    +0.000 C 
ATOM      3  C   UNL     1       5.681   6.391  18.618  0.00  0.00    +0.000 C 
ATOM      4  N   UNL     1       4.292   6.244  18.108  0.00  0.00    +0.000 NA
ATOM      5  C   UNL     1       4.216   5.082  17.200  0.00  0.00    +0.000 C 
ATOM      6  C   UNL     1       5.029   3.813  17.580  0.00  0.00    +0.000 C 
ENDROOT
BRANCH   1   7
ATOM      7  C   UNL     1       7.333   4.412  16.953  0.00  0.00    +0.000 C 
BRANCH   7  10
ATOM      8  N   UNL     1       6.841   4.340  13.405  0.00  0.00    +0.000 N 
ATOM      9  C   UNL     1       6.389   3.800  14.648  0.00  0.00    +0.000 C 
ATOM     10  C   UNL     1       6.680   4.911  15.636  0.00  0.00    +0.000 C 
ATOM     11  O   UNL     1       7.493   5.860  14.924  0.00  0.00    +0.000 OA
ATOM     12  C   UNL     1       7.579   5.480  13.607  0.00  0.00    +0.000 C 
ATOM     13  O   UNL     1       8.244   6.076  12.781  0.00  0.00    +0.000 OA
BRANCH   8  14
ATOM     14  C   UNL     1       6.961   3.521  12.218  0.00  0.00    +0.000 C 
BRANCH  14  16
ATOM     15  C   UNL     1       5.562   1.628  11.329  0.00  0.00    +0.000 C 
ATOM     16  C   UNL     1       5.674   2.791  11.984  0.00  0.00    +0.000 C 
ENDBRANCH  14  16
ENDBRANCH   8  14
ENDBRANCH   7  10
ENDBRANCH   1   7
BRANCH   4  17
ATOM     17  C   UNL     1       3.311   6.290  19.227  0.00  0.00    +0.000 C 
BRANCH  17  18
ATOM     18  C   UNL     1       2.475   7.586  19.116  0.00  0.00    +0.000 A 
ATOM     19  C   UNL     1       1.720   8.057  20.210  0.00  0.00    +0.000 A 
ATOM     20  C   UNL     1       0.867   9.150  20.086  0.00  0.00    +0.000 A 
ATOM     21  C   UNL     1       0.733   9.783  18.854  0.00  0.00    +0.000 A 
ATOM     22  C   UNL     1       1.467   9.334  17.757  0.00  0.00    +0.000 A 
ATOM     23  C   UNL     1       2.344   8.252  17.887  0.00  0.00    +0.000 A 
ENDBRANCH  17  18
BRANCH  17  24
ATOM     24  C   UNL     1       2.382   5.072  19.372  0.00  0.00    +0.000 A 
ATOM     25  C   UNL     1       1.669   4.603  18.252  0.00  0.00    +0.000 A 
ATOM     26  C   UNL     1       0.885   3.447  18.328  0.00  0.00    +0.000 A 
ATOM     27  C   UNL     1       0.811   2.729  19.519  0.00  0.00    +0.000 A 
ATOM     28  C   UNL     1       1.495   3.183  20.641  0.00  0.00    +0.000 A 
ATOM     29  C   UNL     1       2.260   4.351  20.574  0.00  0.00    +0.000 A 
ENDBRANCH  17  24
ENDBRANCH   4  17
TORSDOF 7
ENDMDL
MODEL 4
REMARK VINA RESULT:      -8.4      1.517      2.197
REMARK  Name = 
REMARK  7 active torsions:
REMARK  status: ('A' for Active; 'I' for Inactive)
REMARK    1  A    between atoms: C_2  and  C_3
REMARK    2  A    between atoms: C_3  and  N_4
REMARK    3  A    between atoms: C_6  and  C_7
REMARK    4  A    between atoms: C_7  and  N_8
REMARK    5  A    between atoms: N_11  and  C_12
REMARK    6  A    between atoms: C_12  and  C_13
REMARK    7  A    between atoms: C_12  and  C_19
REMARK                            x       y       z     vdW  Elec       q    Type
REMARK                         _______ _______ _______ _____ _____    ______ ____
ROOT
ATOM      1  N   UNL     1       6.149   5.350  16.863  0.00  0.00    +0.000 NA
ATOM      2  C   UNL     1       5.742   6.616  17.503  0.00  0.00    +0.000 C 
ATOM      3  C   UNL     1       4.265   6.988  17.245  0.00  0.00    +0.000 C 
ATOM      4  N   UNL     1       3.281   5.980  17.723  0.00  0.00    +0.000 NA
ATOM      5  C   UNL     1       3.713   4.629  17.313  0.00  0.00    +0.000 C 
ATOM      6  C   UNL     1       5.232   4.305  17.379  0.00  0.00    +0.000 C 
ENDROOT
BRANCH   1   7
ATOM      7  C   UNL     1       6.134   5.424  15.380  0.00  0.00    +0.000 C 
BRANCH   7  10
ATOM      8  N   UNL     1       6.387   3.349  12.470  0.00  0.00    +0.000 N 
ATOM      9  C   UNL     1       7.072   3.783  13.646  0.00  0.00    +0.000 C 
ATOM     10  C   UNL     1       5.945   4.088  14.612  0.00  0.00    +0.000 C 
ATOM     11  O   UNL     1       4.741   4.049  13.827  0.00  0.00    +0.000 OA
ATOM     12  C   UNL     1       5.044   3.621  12.558  0.00  0.00    +0.000 C 
ATOM     13  O   UNL     1       4.222   3.537  11.666  0.00  0.00    +0.000 OA
BRANCH   8  14
ATOM     14  C   UNL     1       7.077   3.171  11.210  0.00  0.00    +0.000 C 
BRANCH  14  16
ATOM     15  C   UNL     1       6.376   0.758  11.087  0.00  0.00    +0.000 C 
ATOM     16  C   UNL     1       7.311   1.711  10.972  0.00  0.00    +0.000 C 
ENDBRANCH  14  16
ENDBRANCH   8  14
ENDBRANCH   7  10
ENDBRANCH   1   7
BRANCH   4  17
ATOM     17  C   UNL     1       2.977   6.180  19.166  0.00  0.00    +0.000 C 
BRANCH  17  18
ATOM     18  C   UNL     1       2.115   7.454  19.332  0.00  0.00    +0.000 A 
ATOM     19  C   UNL     1       1.904   8.331  18.248  0.00  0.00    +0.000 A 
ATOM     20  C   UNL     1       1.237   9.542  18.415  0.00  0.00    +0.000 A 
ATOM     21  C   UNL     1       0.788   9.913  19.678  0.00  0.00    +0.000 A 
ATOM     22  C   UNL     1       0.987   9.063  20.765  0.00  0.00    +0.000 A 
ATOM     23  C   UNL     1       1.635   7.835  20.595  0.00  0.00    +0.000 A 
ENDBRANCH  17  18
BRANCH  17  24
ATOM     24  C   UNL     1       2.321   4.997  19.898  0.00  0.00    +0.000 A 
ATOM     25  C   UNL     1       1.279   4.285  19.274  0.00  0.00    +0.000 A 
ATOM     26  C   UNL     1       0.720   3.151  19.872  0.00  0.00    +0.000 A 
ATOM     27  C   UNL     1       1.201   2.698  21.098  0.00  0.00    +0.000 A 
ATOM     28  C   UNL     1       2.219   3.395  21.739  0.00  0.00    +0.000 A 
ATOM     29  C   UNL     1       2.763   4.543  21.153  0.00  0.00    +0.000 A 
ENDBRANCH  17  24
ENDBRANCH   4  17
TORSDOF 7
ENDMDL
MODEL 5
REMARK VINA RESULT:      -8.1      3.721      7.762
REMARK  Name = 
REMARK  7 active torsions:
REMARK  status: ('A' for Active; 'I' for Inactive)
REMARK    1  A    between atoms: C_2  and  C_3
REMARK    2  A    between atoms: C_3  and  N_4
REMARK    3  A    between atoms: C_6  and  C_7
REMARK    4  A    between atoms: C_7  and  N_8
REMARK    5  A    between atoms: N_11  and  C_12
REMARK    6  A    between atoms: C_12  and  C_13
REMARK    7  A    between atoms: C_12  and  C_19
REMARK                            x       y       z     vdW  Elec       q    Type
REMARK                         _______ _______ _______ _____ _____    ______ ____
ROOT
ATOM      1  N   UNL     1       1.133   8.620  19.121  0.00  0.00    +0.000 NA
ATOM      2  C   UNL     1       1.633   8.393  17.751  0.00  0.00    +0.000 C 
ATOM      3  C   UNL     1       3.146   8.086  17.691  0.00  0.00    +0.000 C 
ATOM      4  N   UNL     1       3.563   6.882  18.459  0.00  0.00    +0.000 NA
ATOM      5  C   UNL     1       2.935   6.901  19.794  0.00  0.00    +0.000 C 
ATOM      6  C   UNL     1       1.466   7.400  19.896  0.00  0.00    +0.000 C 
ENDROOT
BRANCH   1   7
ATOM      7  C   UNL     1       1.692   9.847  19.742  0.00  0.00    +0.000 C 
BRANCH   7  10
ATOM      8  N   UNL     1      -1.340  11.673  19.185  0.00  0.00    +0.000 N 
ATOM      9  C   UNL     1      -0.758  10.587  19.910  0.00  0.00    +0.000 C 
ATOM     10  C   UNL     1       0.694  10.998  20.043  0.00  0.00    +0.000 C 
ATOM     11  O   UNL     1       0.858  12.132  19.175  0.00  0.00    +0.000 OA
ATOM     12  C   UNL     1      -0.368  12.495  18.673  0.00  0.00    +0.000 C 
ATOM     13  O   UNL     1      -0.522  13.398  17.872  0.00  0.00    +0.000 OA
BRANCH   8  14
ATOM     14  C   UNL     1      -2.677  11.591  18.637  0.00  0.00    +0.000 C 
BRANCH  14  16
ATOM     15  C   UNL     1      -2.338  10.086  16.650  0.00  0.00    +0.000 C 
ATOM     16  C   UNL     1      -2.827  10.309  17.877  0.00  0.00    +0.000 C 
ENDBRANCH  14  16
ENDBRANCH   8  14
ENDBRANCH   7  10
ENDBRANCH   1   7
BRANCH   4  17
ATOM     17  C   UNL     1       3.381   5.648  17.646  0.00  0.00    +0.000 C 
BRANCH  17  18
ATOM     18  C   UNL     1       4.728   5.270  16.988  0.00  0.00    +0.000 A 
ATOM     19  C   UNL     1       5.906   5.987  17.285  0.00  0.00    +0.000 A 
ATOM     20  C   UNL     1       7.097   5.739  16.607  0.00  0.00    +0.000 A 
ATOM     21  C   UNL     1       7.128   4.783  15.597  0.00  0.00    +0.000 A 
ATOM     22  C   UNL     1       5.976   4.064  15.284  0.00  0.00    +0.000 A 
ATOM     23  C   UNL     1       4.785   4.294  15.981  0.00  0.00    +0.000 A 
ENDBRANCH  17  18
BRANCH  17  24
ATOM     24  C   UNL     1       2.787   4.431  18.375  0.00  0.00    +0.000 A 
ATOM     25  C   UNL     1       1.479   4.008  18.070  0.00  0.00    +0.000 A 
ATOM     26  C   UNL     1       0.940   2.854  18.649  0.00  0.00    +0.000 A 
ATOM     27  C   UNL     1       1.702   2.094  19.533  0.00  0.00    +0.000 A 
ATOM     28  C   UNL     1       2.991   2.503  19.859  0.00  0.00    +0.000 A 
ATOM     29  C   UNL     1       3.522   3.668  19.300  0.00  0.00    +0.000 A 
ENDBRANCH  17  24
ENDBRANCH   4  17
TORSDOF 7
ENDMDL
MODEL 6
REMARK VINA RESULT:      -8.0      4.545      8.185
REMARK  Name = 
REMARK  7 active torsions:
REMARK  status: ('A' for Active; 'I' for Inactive)
REMARK    1  A    between atoms: C_2  and  C_3
REMARK    2  A    between atoms: C_3  and  N_4
REMARK    3  A    between atoms: C_6  and  C_7
REMARK    4  A    between atoms: C_7  and  N_8
REMARK    5  A    between atoms: N_11  and  C_12
REMARK    6  A    between atoms: C_12  and  C_13
REMARK    7  A    between atoms: C_12  and  C_19
REMARK                            x       y       z     vdW  Elec       q    Type
REMARK                         _______ _______ _______ _____ _____    ______ ____
ROOT
ATOM      1  N   UNL     1       0.493   9.665  19.166  0.00  0.00    +0.000 NA
ATOM      2  C   UNL     1       1.102   9.141  17.928  0.00  0.00    +0.000 C 
ATOM      3  C   UNL     1       2.542   8.618  18.124  0.00  0.00    +0.000 C 
ATOM      4  N   UNL     1       2.670   7.515  19.114  0.00  0.00    +0.000 NA
ATOM      5  C   UNL     1       1.906   7.849  20.332  0.00  0.00    +0.000 C 
ATOM      6  C   UNL     1       0.535   8.560  20.155  0.00  0.00    +0.000 C 
ENDROOT
BRANCH   1   7
ATOM      7  C   UNL     1       1.169  10.889  19.667  0.00  0.00    +0.000 C 
BRANCH   7  10
ATOM      8  N   UNL     1       2.289  14.122  18.604  0.00  0.00    +0.000 N 
ATOM      9  C   UNL     1       2.463  12.716  18.416  0.00  0.00    +0.000 C 
ATOM     10  C   UNL     1       1.102  12.148  18.762  0.00  0.00    +0.000 C 
ATOM     11  O   UNL     1       0.367  13.233  19.353  0.00  0.00    +0.000 OA
ATOM     12  C   UNL     1       1.109  14.385  19.255  0.00  0.00    +0.000 C 
ATOM     13  O   UNL     1       0.750  15.452  19.715  0.00  0.00    +0.000 OA
BRANCH   8  14
ATOM     14  C   UNL     1       3.411  15.034  18.602  0.00  0.00    +0.000 C 
BRANCH  14  16
ATOM     15  C   UNL     1       2.897  16.958  17.064  0.00  0.00    +0.000 C 
ATOM     16  C   UNL     1       3.459  15.764  17.295  0.00  0.00    +0.000 C 
ENDBRANCH  14  16
ENDBRANCH   8  14
ENDBRANCH   7  10
ENDBRANCH   1   7
BRANCH   4  17
ATOM     17  C   UNL     1       2.384   6.199  18.479  0.00  0.00    +0.000 C 
BRANCH  17  18
ATOM     18  C   UNL     1       3.595   5.779  17.613  0.00  0.00    +0.000 A 
ATOM     19  C   UNL     1       4.456   6.746  17.055  0.00  0.00    +0.000 A 
ATOM     20  C   UNL     1       5.473   6.389  16.173  0.00  0.00    +0.000 A 
ATOM     21  C   UNL     1       5.634   5.056  15.811  0.00  0.00    +0.000 A 
ATOM     22  C   UNL     1       4.793   4.082  16.348  0.00  0.00    +0.000 A 
ATOM     23  C   UNL     1       3.787   4.436  17.253  0.00  0.00    +0.000 A 
ENDBRANCH  17  18
BRANCH  17  24
ATOM     24  C   UNL     1       1.986   5.055  19.426  0.00  0.00    +0.000 A 
ATOM     25  C   UNL     1       1.121   4.042  18.970  0.00  0.00    +0.000 A 
ATOM     26  C   UNL     1       0.809   2.942  19.774  0.00  0.00    +0.000 A 
ATOM     27  C   UNL     1       1.367   2.824  21.045  0.00  0.00    +0.000 A 
ATOM     28  C   UNL     1       2.212   3.820  21.521  0.00  0.00    +0.000 A 
ATOM     29  C   UNL     1       2.506   4.933  20.727  0.00  0.00    +0.000 A 
ENDBRANCH  17  24
ENDBRANCH   4  17
TORSDOF 7
ENDMDL
MODEL 7
REMARK VINA RESULT:      -8.0      3.618      7.649
REMARK  Name = 
REMARK  7 active torsions:
REMARK  status: ('A' for Active; 'I' for Inactive)
REMARK    1  A    between atoms: C_2  and  C_3
REMARK    2  A    between atoms: C_3  and  N_4
REMARK    3  A    between atoms: C_6  and  C_7
REMARK    4  A    between atoms: C_7  and  N_8
REMARK    5  A    between atoms: N_11  and  C_12
REMARK    6  A    between atoms: C_12  and  C_13
REMARK    7  A    between atoms: C_12  and  C_19
REMARK                            x       y       z     vdW  Elec       q    Type
REMARK                         _______ _______ _______ _____ _____    ______ ____
ROOT
ATOM      1  N   UNL     1       1.177   8.199  19.589  0.00  0.00    +0.000 NA
ATOM      2  C   UNL     1       1.516   8.168  18.152  0.00  0.00    +0.000 C 
ATOM      3  C   UNL     1       3.028   8.001  17.881  0.00  0.00    +0.000 C 
ATOM      4  N   UNL     1       3.624   6.761  18.445  0.00  0.00    +0.000 NA
ATOM      5  C   UNL     1       3.169   6.579  19.837  0.00  0.00    +0.000 C 
ATOM      6  C   UNL     1       1.693   6.935  20.168  0.00  0.00    +0.000 C 
ENDROOT
BRANCH   1   7
ATOM      7  C   UNL     1       1.720   9.394  20.283  0.00  0.00    +0.000 C 
BRANCH   7  10
ATOM      8  N   UNL     1      -0.955  11.508  19.181  0.00  0.00    +0.000 N 
ATOM      9  C   UNL     1      -0.640  10.340  19.942  0.00  0.00    +0.000 C 
ATOM     10  C   UNL     1       0.769  10.612  20.429  0.00  0.00    +0.000 C 
ATOM     11  O   UNL     1       1.213  11.770  19.701  0.00  0.00    +0.000 OA
ATOM     12  C   UNL     1       0.168  12.265  18.961  0.00  0.00    +0.000 C 
ATOM     13  O   UNL     1       0.272  13.217  18.211  0.00  0.00    +0.000 OA
BRANCH   8  14
ATOM     14  C   UNL     1      -2.131  11.573  18.340  0.00  0.00    +0.000 C 
BRANCH  14  16
ATOM     15  C   UNL     1      -2.663  10.583  16.090  0.00  0.00    +0.000 C 
ATOM     16  C   UNL     1      -2.040  10.526  17.274  0.00  0.00    +0.000 C 
ENDBRANCH  14  16
ENDBRANCH   8  14
ENDBRANCH   7  10
ENDBRANCH   1   7
BRANCH   4  17
ATOM     17  C   UNL     1       3.431   5.613  17.517  0.00  0.00    +0.000 C 
BRANCH  17  18
ATOM     18  C   UNL     1       4.747   5.356  16.747  0.00  0.00    +0.000 A 
ATOM     19  C   UNL     1       4.812   4.383  15.728  0.00  0.00    +0.000 A 
ATOM     20  C   UNL     1       6.018   4.053  15.115  0.00  0.00    +0.000 A 
ATOM     21  C   UNL     1       7.192   4.676  15.526  0.00  0.00    +0.000 A 
ATOM     22  C   UNL     1       7.153   5.639  16.533  0.00  0.00    +0.000 A 
ATOM     23  C   UNL     1       5.939   5.989  17.133  0.00  0.00    +0.000 A 
ENDBRANCH  17  18
BRANCH  17  24
ATOM     24  C   UNL     1       2.920   4.305  18.145  0.00  0.00    +0.000 A 
ATOM     25  C   UNL     1       1.556   3.969  18.040  0.00  0.00    +0.000 A 
ATOM     26  C   UNL     1       1.074   2.748  18.521  0.00  0.00    +0.000 A 
ATOM     27  C   UNL     1       1.947   1.833  19.105  0.00  0.00    +0.000 A 
ATOM     28  C   UNL     1       3.294   2.152  19.234  0.00  0.00    +0.000 A 
ATOM     29  C   UNL     1       3.774   3.381  18.774  0.00  0.00    +0.000 A 
ENDBRANCH  17  24
ENDBRANCH   4  17
TORSDOF 7
ENDMDL
MODEL 8
REMARK VINA RESULT:      -7.9      3.715      7.758
REMARK  Name = 
REMARK  7 active torsions:
REMARK  status: ('A' for Active; 'I' for Inactive)
REMARK    1  A    between atoms: C_2  and  C_3
REMARK    2  A    between atoms: C_3  and  N_4
REMARK    3  A    between atoms: C_6  and  C_7
REMARK    4  A    between atoms: C_7  and  N_8
REMARK    5  A    between atoms: N_11  and  C_12
REMARK    6  A    between atoms: C_12  and  C_13
REMARK    7  A    between atoms: C_12  and  C_19
REMARK                            x       y       z     vdW  Elec       q    Type
REMARK                         _______ _______ _______ _____ _____    ______ ____
ROOT
ATOM      1  N   UNL     1       1.062   8.613  19.164  0.00  0.00    +0.000 NA
ATOM      2  C   UNL     1       1.609   8.423  17.807  0.00  0.00    +0.000 C 
ATOM      3  C   UNL     1       3.118   8.087  17.794  0.00  0.00    +0.000 C 
ATOM      4  N   UNL     1       3.483   6.850  18.534  0.00  0.00    +0.000 NA
ATOM      5  C   UNL     1       2.803   6.837  19.845  0.00  0.00    +0.000 C 
ATOM      6  C   UNL     1       1.342   7.361  19.909  0.00  0.00    +0.000 C 
ENDROOT
BRANCH   1   7
ATOM      7  C   UNL     1       1.620   9.807  19.848  0.00  0.00    +0.000 C 
BRANCH   7  10
ATOM      8  N   UNL     1      -1.379  11.676  19.254  0.00  0.00    +0.000 N 
ATOM      9  C   UNL     1      -0.820  10.586  19.990  0.00  0.00    +0.000 C 
ATOM     10  C   UNL     1       0.637  10.975  20.134  0.00  0.00    +0.000 C 
ATOM     11  O   UNL     1       0.826  12.102  19.261  0.00  0.00    +0.000 OA
ATOM     12  C   UNL     1      -0.389  12.480  18.746  0.00  0.00    +0.000 C 
ATOM     13  O   UNL     1      -0.522  13.381  17.939  0.00  0.00    +0.000 OA
BRANCH   8  14
ATOM     14  C   UNL     1      -2.712  11.612  18.695  0.00  0.00    +0.000 C 
BRANCH  14  16
ATOM     15  C   UNL     1      -1.970   9.976  16.933  0.00  0.00    +0.000 C 
ATOM     16  C   UNL     1      -2.846  10.371  17.866  0.00  0.00    +0.000 C 
ENDBRANCH  14  16
ENDBRANCH   8  14
ENDBRANCH   7  10
ENDBRANCH   1   7
BRANCH   4  17
ATOM     17  C   UNL     1       3.308   5.648  17.673  0.00  0.00    +0.000 C 
BRANCH  17  18
ATOM     18  C   UNL     1       4.644   5.338  16.958  0.00  0.00    +0.000 A 
ATOM     19  C   UNL     1       4.730   4.308  15.999  0.00  0.00    +0.000 A 
ATOM     20  C   UNL     1       5.951   3.936  15.442  0.00  0.00    +0.000 A 
ATOM     21  C   UNL     1       7.117   4.573  15.852  0.00  0.00    +0.000 A 
ATOM     22  C   UNL     1       7.058   5.593  16.800  0.00  0.00    +0.000 A 
ATOM     23  C   UNL     1       5.830   5.985  17.342  0.00  0.00    +0.000 A 
ENDBRANCH  17  18
BRANCH  17  24
ATOM     24  C   UNL     1       2.771   4.384  18.365  0.00  0.00    +0.000 A 
ATOM     25  C   UNL     1       3.513   3.790  19.403  0.00  0.00    +0.000 A 
ATOM     26  C   UNL     1       3.013   2.693  20.112  0.00  0.00    +0.000 A 
ATOM     27  C   UNL     1       1.756   2.177  19.807  0.00  0.00    +0.000 A 
ATOM     28  C   UNL     1       1.013   2.738  18.774  0.00  0.00    +0.000 A 
ATOM     29  C   UNL     1       1.522   3.820  18.049  0.00  0.00    +0.000 A 
ENDBRANCH  17  24
ENDBRANCH   4  17
TORSDOF 7
ENDMDL
MODEL 9
REMARK VINA RESULT:      -7.9      4.525      8.791
REMARK  Name = 
REMARK  7 active torsions:
REMARK  status: ('A' for Active; 'I' for Inactive)
REMARK    1  A    between atoms: C_2  and  C_3
REMARK    2  A    between atoms: C_3  and  N_4
REMARK    3  A    between atoms: C_6  and  C_7
REMARK    4  A    between atoms: C_7  and  N_8
REMARK    5  A    between atoms: N_11  and  C_12
REMARK    6  A    between atoms: C_12  and  C_13
REMARK    7  A    between atoms: C_12  and  C_19
REMARK                            x       y       z     vdW  Elec       q    Type
REMARK                         _______ _______ _______ _____ _____    ______ ____
ROOT
ATOM      1  N   UNL     1       0.468   9.529  19.070  0.00  0.00    +0.000 NA
ATOM      2  C   UNL     1       1.057   9.003  17.823  0.00  0.00    +0.000 C 
ATOM      3  C   UNL     1       2.526   8.552  17.980  0.00  0.00    +0.000 C 
ATOM      4  N   UNL     1       2.740   7.481  18.990  0.00  0.00    +0.000 NA
ATOM      5  C   UNL     1       2.004   7.810  20.227  0.00  0.00    +0.000 C 
ATOM      6  C   UNL     1       0.597   8.453  20.082  0.00  0.00    +0.000 C 
ENDROOT
BRANCH   1   7
ATOM      7  C   UNL     1       1.103  10.795  19.517  0.00  0.00    +0.000 C 
BRANCH   7  10
ATOM      8  N   UNL     1      -0.335  13.837  20.748  0.00  0.00    +0.000 N 
ATOM      9  C   UNL     1      -0.588  12.671  19.961  0.00  0.00    +0.000 C 
ATOM     10  C   UNL     1       0.332  11.633  20.571  0.00  0.00    +0.000 C 
ATOM     11  O   UNL     1       1.196  12.358  21.464  0.00  0.00    +0.000 OA
ATOM     12  C   UNL     1       0.779  13.664  21.532  0.00  0.00    +0.000 C 
ATOM     13  O   UNL     1       1.357  14.517  22.179  0.00  0.00    +0.000 OA
BRANCH   8  14
ATOM     14  C   UNL     1      -0.838  15.138  20.365  0.00  0.00    +0.000 C 
BRANCH  14  16
ATOM     15  C   UNL     1      -0.348  16.731  18.481  0.00  0.00    +0.000 C 
ATOM     16  C   UNL     1      -0.297  15.504  19.017  0.00  0.00    +0.000 C 
ENDBRANCH  14  16
ENDBRANCH   8  14
ENDBRANCH   7  10
ENDBRANCH   1   7
BRANCH   4  17
ATOM     17  C   UNL     1       2.494   6.138  18.397  0.00  0.00    +0.000 C 
BRANCH  17  18
ATOM     18  C   UNL     1       3.752   5.690  17.616  0.00  0.00    +0.000 A 
ATOM     19  C   UNL     1       4.752   6.618  17.260  0.00  0.00    +0.000 A 
ATOM     20  C   UNL     1       5.825   6.252  16.450  0.00  0.00    +0.000 A 
ATOM     21  C   UNL     1       5.907   4.953  15.960  0.00  0.00    +0.000 A 
ATOM     22  C   UNL     1       4.928   4.019  16.297  0.00  0.00    +0.000 A 
ATOM     23  C   UNL     1       3.864   4.377  17.130  0.00  0.00    +0.000 A 
ENDBRANCH  17  18
BRANCH  17  24
ATOM     24  C   UNL     1       2.051   5.032  19.369  0.00  0.00    +0.000 A 
ATOM     25  C   UNL     1       1.111   4.071  18.948  0.00  0.00    +0.000 A 
ATOM     26  C   UNL     1       0.752   3.002  19.775  0.00  0.00    +0.000 A 
ATOM     27  C   UNL     1       1.335   2.864  21.032  0.00  0.00    +0.000 A 
ATOM     28  C   UNL     1       2.253   3.810  21.474  0.00  0.00    +0.000 A 
ATOM     29  C   UNL     1       2.595   4.893  20.658  0.00  0.00    +0.000 A 
ENDBRANCH  17  24
ENDBRANCH   4  17
TORSDOF 7
ENDMDL
