MODEL 1
REMARK VINA RESULT:      -7.9      0.000      0.000
REMARK  Name = 
REMARK  10 active torsions:
REMARK  status: ('A' for Active; 'I' for Inactive)
REMARK    1  A    between atoms: C_1  and  C_2
REMARK    2  A    between atoms: C_2  and  C_3
REMARK    3  A    between atoms: C_3  and  O_4
REMARK    4  A    between atoms: O_4  and  C_5
REMARK    5  A    between atoms: C_5  and  C_7
REMARK    6  A    between atoms: C_7  and  C_8
REMARK    7  A    between atoms: C_7  and  N_14
REMARK    8  A    between atoms: C_8  and  N_9
REMARK    9  A    between atoms: C_15  and  C_17
REMARK   10  A    between atoms: C_22  and  C_23
REMARK                            x       y       z     vdW  Elec       q    Type
REMARK                         _______ _______ _______ _____ _____    ______ ____
ROOT
ATOM      1  N   UNL     1       3.109   5.432  18.368  0.00  0.00    +0.000 N 
ATOM      2  C   UNL     1       3.213   6.752  17.963  0.00  0.00    +0.000 C 
ATOM      3  O   UNL     1       3.930   7.060  17.012  0.00  0.00    +0.000 OA
ATOM      4  H   UNL     1       2.444   5.228  19.114  0.00  0.00    +0.000 HD
ENDROOT
BRANCH   2   5
ATOM      5  C   UNL     1       2.410   7.689  18.748  0.00  0.00    +0.000 A 
ATOM      6  N   UNL     1       2.131   7.488  20.021  0.00  0.00    +0.000 NA
ATOM      7  C   UNL     1       1.307   8.507  20.476  0.00  0.00    +0.000 A 
ATOM      8  C   UNL     1       0.770   8.608  21.773  0.00  0.00    +0.000 A 
ATOM      9  C   UNL     1      -0.073   9.676  22.101  0.00  0.00    +0.000 A 
ATOM     10  C   UNL     1      -0.368  10.672  21.166  0.00  0.00    +0.000 A 
ATOM     11  C   UNL     1      -1.275  11.809  21.544  0.00  0.00    +0.000 C 
ATOM     12  C   UNL     1       0.156  10.585  19.864  0.00  0.00    +0.000 A 
ATOM     13  C   UNL     1       0.987   9.494  19.540  0.00  0.00    +0.000 A 
ATOM     14  S   UNL     1       1.757   9.107  18.046  0.00  0.00    +0.000 S 
ENDBRANCH   2   5
BRANCH   1  15
ATOM     15  C   UNL     1       3.719   4.320  17.630  0.00  0.00    +0.000 C 
BRANCH  15  16
ATOM     16  C   UNL     1       2.986   2.978  17.787  0.00  0.00    +0.000 C 
ATOM     17  O   UNL     1       3.551   1.887  17.787  0.00  0.00    +0.000 OA
BRANCH  16  18
ATOM     18  O   UNL     1       1.630   3.147  17.804  0.00  0.00    +0.000 OA
BRANCH  18  19
ATOM     19  C   UNL     1       0.912   2.480  18.859  0.00  0.00    +0.000 C 
BRANCH  19  21
ATOM     20  C   UNL     1       1.683   2.758  21.229  0.00  0.00    +0.000 C 
ATOM     21  C   UNL     1       0.815   3.336  20.118  0.00  0.00    +0.000 C 
ENDBRANCH  19  21
ENDBRANCH  18  19
ENDBRANCH  16  18
ENDBRANCH  15  16
BRANCH  15  22
ATOM     22  C   UNL     1       5.220   4.134  17.883  0.00  0.00    +0.000 C 
BRANCH  22  23
ATOM     23  N   UNL     1       6.059   4.449  16.745  0.00  0.00    +0.000 N 
ATOM     24  C   UNL     1       5.948   3.929  15.486  0.00  0.00    +0.000 A 
ATOM     25  C   UNL     1       6.894   4.596  14.745  0.00  0.00    +0.000 A 
ATOM     26  N   UNL     1       7.574   5.498  15.521  0.00  0.00    +0.000 NA
ATOM     27  C   UNL     1       7.038   5.400  16.716  0.00  0.00    +0.000 A 
ENDBRANCH  22  23
ENDBRANCH  15  22
ENDBRANCH   1  15
TORSDOF 8
ENDMDL
MODEL 2
REMARK VINA RESULT:      -7.8      1.238      1.593
REMARK  Name = 
REMARK  10 active torsions:
REMARK  status: ('A' for Active; 'I' for Inactive)
REMARK    1  A    between atoms: C_1  and  C_2
REMARK    2  A    between atoms: C_2  and  C_3
REMARK    3  A    between atoms: C_3  and  O_4
REMARK    4  A    between atoms: O_4  and  C_5
REMARK    5  A    between atoms: C_5  and  C_7
REMARK    6  A    between atoms: C_7  and  C_8
REMARK    7  A    between atoms: C_7  and  N_14
REMARK    8  A    between atoms: C_8  and  N_9
REMARK    9  A    between atoms: C_15  and  C_17
REMARK   10  A    between atoms: C_22  and  C_23
REMARK                            x       y       z     vdW  Elec       q    Type
REMARK                         _______ _______ _______ _____ _____    ______ ____
ROOT
ATOM      1  N   UNL     1       2.611   6.006  19.019  0.00  0.00    +0.000 N 
ATOM      2  C   UNL     1       2.627   7.330  18.611  0.00  0.00    +0.000 C 
ATOM      3  O   UNL     1       3.255   7.667  17.608  0.00  0.00    +0.000 OA
ATOM      4  H   UNL     1       2.014   5.775  19.813  0.00  0.00    +0.000 HD
ENDROOT
BRANCH   2   5
ATOM      5  C   UNL     1       1.849   8.232  19.459  0.00  0.00    +0.000 A 
ATOM      6  N   UNL     1       1.640   7.996  20.739  0.00  0.00    +0.000 NA
ATOM      7  C   UNL     1       0.822   8.987  21.261  0.00  0.00    +0.000 A 
ATOM      8  C   UNL     1       0.351   9.048  22.586  0.00  0.00    +0.000 A 
ATOM      9  C   UNL     1      -0.493  10.091  22.982  0.00  0.00    +0.000 A 
ATOM     10  C   UNL     1      -0.856  11.101  22.088  0.00  0.00    +0.000 A 
ATOM     11  C   UNL     1      -1.763  12.211  22.540  0.00  0.00    +0.000 C 
ATOM     12  C   UNL     1      -0.399  11.055  20.760  0.00  0.00    +0.000 A 
ATOM     13  C   UNL     1       0.435   9.989  20.367  0.00  0.00    +0.000 A 
ATOM     14  S   UNL     1       1.133   9.652  18.826  0.00  0.00    +0.000 S 
ENDBRANCH   2   5
BRANCH   1  15
ATOM     15  C   UNL     1       3.208   4.921  18.232  0.00  0.00    +0.000 C 
BRANCH  15  16
ATOM     16  C   UNL     1       2.206   3.853  17.764  0.00  0.00    +0.000 C 
ATOM     17  O   UNL     1       2.360   3.168  16.756  0.00  0.00    +0.000 OA
BRANCH  16  18
ATOM     18  O   UNL     1       1.080   3.849  18.538  0.00  0.00    +0.000 OA
BRANCH  18  19
ATOM     19  C   UNL     1       0.955   2.772  19.487  0.00  0.00    +0.000 C 
BRANCH  19  21
ATOM     20  C   UNL     1       2.384   2.707  21.547  0.00  0.00    +0.000 C 
ATOM     21  C   UNL     1       1.105   3.255  20.926  0.00  0.00    +0.000 C 
ENDBRANCH  19  21
ENDBRANCH  18  19
ENDBRANCH  16  18
ENDBRANCH  15  16
BRANCH  15  22
ATOM     22  C   UNL     1       4.424   4.254  18.886  0.00  0.00    +0.000 C 
BRANCH  22  23
ATOM     23  N   UNL     1       5.699   4.788  18.453  0.00  0.00    +0.000 N 
ATOM     24  C   UNL     1       6.572   5.520  19.208  0.00  0.00    +0.000 A 
ATOM     25  C   UNL     1       7.665   5.712  18.397  0.00  0.00    +0.000 A 
ATOM     26  N   UNL     1       7.474   5.121  17.175  0.00  0.00    +0.000 NA
ATOM     27  C   UNL     1       6.290   4.557  17.244  0.00  0.00    +0.000 A 
ENDBRANCH  22  23
ENDBRANCH  15  22
ENDBRANCH   1  15
TORSDOF 8
ENDMDL
MODEL 3
REMARK VINA RESULT:      -7.8      0.861      1.271
REMARK  Name = 
REMARK  10 active torsions:
REMARK  status: ('A' for Active; 'I' for Inactive)
REMARK    1  A    between atoms: C_1  and  C_2
REMARK    2  A    between atoms: C_2  and  C_3
REMARK    3  A    between atoms: C_3  and  O_4
REMARK    4  A    between atoms: O_4  and  C_5
REMARK    5  A    between atoms: C_5  and  C_7
REMARK    6  A    between atoms: C_7  and  C_8
REMARK    7  A    between atoms: C_7  and  N_14
REMARK    8  A    between atoms: C_8  and  N_9
REMARK    9  A    between atoms: C_15  and  C_17
REMARK   10  A    between atoms: C_22  and  C_23
REMARK                            x       y       z     vdW  Elec       q    Type
REMARK                         _______ _______ _______ _____ _____    ______ ____
ROOT
ATOM      1  N   UNL     1       2.991   5.483  18.487  0.00  0.00    +0.000 N 
ATOM      2  C   UNL     1       3.077   6.835  18.196  0.00  0.00    +0.000 C 
ATOM      3  O   UNL     1       3.828   7.236  17.307  0.00  0.00    +0.000 OA
ATOM      4  H   UNL     1       2.299   5.204  19.182  0.00  0.00    +0.000 HD
ENDROOT
BRANCH   2   5
ATOM      5  C   UNL     1       2.217   7.685  19.017  0.00  0.00    +0.000 A 
ATOM      6  N   UNL     1       1.740   8.836  18.587  0.00  0.00    +0.000 NA
ATOM      7  C   UNL     1       1.013   9.440  19.603  0.00  0.00    +0.000 A 
ATOM      8  C   UNL     1       0.389  10.699  19.527  0.00  0.00    +0.000 A 
ATOM      9  C   UNL     1      -0.295  11.210  20.636  0.00  0.00    +0.000 A 
ATOM     10  C   UNL     1      -0.399  10.473  21.819  0.00  0.00    +0.000 A 
ATOM     11  C   UNL     1      -1.140  11.045  22.994  0.00  0.00    +0.000 C 
ATOM     12  C   UNL     1       0.222   9.216  21.915  0.00  0.00    +0.000 A 
ATOM     13  C   UNL     1       0.925   8.720  20.798  0.00  0.00    +0.000 A 
ATOM     14  S   UNL     1       1.792   7.241  20.616  0.00  0.00    +0.000 S 
ENDBRANCH   2   5
BRANCH   1  15
ATOM     15  C   UNL     1       3.662   4.451  17.689  0.00  0.00    +0.000 C 
BRANCH  15  16
ATOM     16  C   UNL     1       3.002   3.065  17.763  0.00  0.00    +0.000 C 
ATOM     17  O   UNL     1       3.627   2.008  17.725  0.00  0.00    +0.000 OA
BRANCH  16  18
ATOM     18  O   UNL     1       1.639   3.158  17.754  0.00  0.00    +0.000 OA
BRANCH  18  19
ATOM     19  C   UNL     1       0.938   2.449  18.794  0.00  0.00    +0.000 C 
BRANCH  19  21
ATOM     20  C   UNL     1       1.490   2.724  21.225  0.00  0.00    +0.000 C 
ATOM     21  C   UNL     1       0.736   3.309  20.038  0.00  0.00    +0.000 C 
ENDBRANCH  19  21
ENDBRANCH  18  19
ENDBRANCH  16  18
ENDBRANCH  15  16
BRANCH  15  22
ATOM     22  C   UNL     1       5.171   4.331  17.941  0.00  0.00    +0.000 C 
BRANCH  22  23
ATOM     23  N   UNL     1       5.989   4.561  16.768  0.00  0.00    +0.000 N 
ATOM     24  C   UNL     1       5.807   4.012  15.530  0.00  0.00    +0.000 A 
ATOM     25  C   UNL     1       6.766   4.598  14.739  0.00  0.00    +0.000 A 
ATOM     26  N   UNL     1       7.524   5.480  15.466  0.00  0.00    +0.000 NA
ATOM     27  C   UNL     1       7.022   5.450  16.679  0.00  0.00    +0.000 A 
ENDBRANCH  22  23
ENDBRANCH  15  22
ENDBRANCH   1  15
TORSDOF 8
ENDMDL
MODEL 4
REMARK VINA RESULT:      -7.7      1.068      1.367
REMARK  Name = 
REMARK  10 active torsions:
REMARK  status: ('A' for Active; 'I' for Inactive)
REMARK    1  A    between atoms: C_1  and  C_2
REMARK    2  A    between atoms: C_2  and  C_3
REMARK    3  A    between atoms: C_3  and  O_4
REMARK    4  A    between atoms: O_4  and  C_5
REMARK    5  A    between atoms: C_5  and  C_7
REMARK    6  A    between atoms: C_7  and  C_8
REMARK    7  A    between atoms: C_7  and  N_14
REMARK    8  A    between atoms: C_8  and  N_9
REMARK    9  A    between atoms: C_15  and  C_17
REMARK   10  A    between atoms: C_22  and  C_23
REMARK                            x       y       z     vdW  Elec       q    Type
REMARK                         _______ _______ _______ _____ _____    ______ ____
ROOT
ATOM      1  N   UNL     1       2.589   6.332  18.821  0.00  0.00    +0.000 N 
ATOM      2  C   UNL     1       2.488   7.669  18.472  0.00  0.00    +0.000 C 
ATOM      3  O   UNL     1       3.016   8.088  17.443  0.00  0.00    +0.000 OA
ATOM      4  H   UNL     1       2.070   6.029  19.644  0.00  0.00    +0.000 HD
ENDROOT
BRANCH   2   5
ATOM      5  C   UNL     1       1.718   8.480  19.414  0.00  0.00    +0.000 A 
ATOM      6  N   UNL     1       1.590   8.159  20.685  0.00  0.00    +0.000 NA
ATOM      7  C   UNL     1       0.759   9.078  21.309  0.00  0.00    +0.000 A 
ATOM      8  C   UNL     1       0.358   9.037  22.658  0.00  0.00    +0.000 A 
ATOM      9  C   UNL     1      -0.508  10.014  23.161  0.00  0.00    +0.000 A 
ATOM     10  C   UNL     1      -0.963  11.058  22.351  0.00  0.00    +0.000 A 
ATOM     11  C   UNL     1      -1.893  12.095  22.917  0.00  0.00    +0.000 C 
ATOM     12  C   UNL     1      -0.578  11.113  21.001  0.00  0.00    +0.000 A 
ATOM     13  C   UNL     1       0.280  10.112  20.500  0.00  0.00    +0.000 A 
ATOM     14  S   UNL     1       0.907   9.901  18.907  0.00  0.00    +0.000 S 
ENDBRANCH   2   5
BRANCH   1  15
ATOM     15  C   UNL     1       3.195   5.322  17.945  0.00  0.00    +0.000 C 
BRANCH  15  16
ATOM     16  C   UNL     1       2.326   4.075  17.720  0.00  0.00    +0.000 C 
ATOM     17  O   UNL     1       1.160   4.116  17.335  0.00  0.00    +0.000 OA
BRANCH  16  18
ATOM     18  O   UNL     1       2.971   2.937  18.115  0.00  0.00    +0.000 OA
BRANCH  18  19
ATOM     19  C   UNL     1       2.313   2.140  19.119  0.00  0.00    +0.000 C 
BRANCH  19  21
ATOM     20  C   UNL     1       1.314   2.920  21.284  0.00  0.00    +0.000 C 
ATOM     21  C   UNL     1       2.608   2.638  20.530  0.00  0.00    +0.000 C 
ENDBRANCH  19  21
ENDBRANCH  18  19
ENDBRANCH  16  18
ENDBRANCH  15  16
BRANCH  15  22
ATOM     22  C   UNL     1       4.619   4.909  18.339  0.00  0.00    +0.000 C 
BRANCH  22  23
ATOM     23  N   UNL     1       5.595   5.054  17.279  0.00  0.00    +0.000 N 
ATOM     24  C   UNL     1       5.615   4.371  16.095  0.00  0.00    +0.000 A 
ATOM     25  C   UNL     1       6.663   4.916  15.392  0.00  0.00    +0.000 A 
ATOM     26  N   UNL     1       7.277   5.902  16.119  0.00  0.00    +0.000 NA
ATOM     27  C   UNL     1       6.602   5.975  17.243  0.00  0.00    +0.000 A 
ENDBRANCH  22  23
ENDBRANCH  15  22
ENDBRANCH   1  15
TORSDOF 8
ENDMDL
MODEL 5
REMARK VINA RESULT:      -7.6      0.976      1.059
REMARK  Name = 
REMARK  10 active torsions:
REMARK  status: ('A' for Active; 'I' for Inactive)
REMARK    1  A    between atoms: C_1  and  C_2
REMARK    2  A    between atoms: C_2  and  C_3
REMARK    3  A    between atoms: C_3  and  O_4
REMARK    4  A    between atoms: O_4  and  C_5
REMARK    5  A    between atoms: C_5  and  C_7
REMARK    6  A    between atoms: C_7  and  C_8
REMARK    7  A    between atoms: C_7  and  N_14
REMARK    8  A    between atoms: C_8  and  N_9
REMARK    9  A    between atoms: C_15  and  C_17
REMARK   10  A    between atoms: C_22  and  C_23
REMARK                            x       y       z     vdW  Elec       q    Type
REMARK                         _______ _______ _______ _____ _____    ______ ____
ROOT
ATOM      1  N   UNL     1       2.873   5.432  17.731  0.00  0.00    +0.000 N 
ATOM      2  C   UNL     1       3.068   5.983  18.987  0.00  0.00    +0.000 C 
ATOM      3  O   UNL     1       3.774   5.412  19.818  0.00  0.00    +0.000 OA
ATOM      4  H   UNL     1       2.340   5.985  17.062  0.00  0.00    +0.000 HD
ENDROOT
BRANCH   2   5
ATOM      5  C   UNL     1       2.381   7.256  19.201  0.00  0.00    +0.000 A 
ATOM      6  N   UNL     1       1.827   7.577  20.353  0.00  0.00    +0.000 NA
ATOM      7  C   UNL     1       1.202   8.810  20.233  0.00  0.00    +0.000 A 
ATOM      8  C   UNL     1       0.469   9.459  21.245  0.00  0.00    +0.000 A 
ATOM      9  C   UNL     1      -0.138  10.693  20.988  0.00  0.00    +0.000 A 
ATOM     10  C   UNL     1      -0.004  11.315  19.745  0.00  0.00    +0.000 A 
ATOM     11  C   UNL     1      -0.666  12.642  19.496  0.00  0.00    +0.000 C 
ATOM     12  C   UNL     1       0.720  10.680  18.720  0.00  0.00    +0.000 A 
ATOM     13  C   UNL     1       1.311   9.428  18.984  0.00  0.00    +0.000 A 
ATOM     14  S   UNL     1       2.232   8.408  17.943  0.00  0.00    +0.000 S 
ENDBRANCH   2   5
BRANCH   1  15
ATOM     15  C   UNL     1       3.583   4.235  17.266  0.00  0.00    +0.000 C 
BRANCH  15  16
ATOM     16  C   UNL     1       2.964   2.909  17.735  0.00  0.00    +0.000 C 
ATOM     17  O   UNL     1       3.620   1.902  17.991  0.00  0.00    +0.000 OA
BRANCH  16  18
ATOM     18  O   UNL     1       1.599   2.959  17.714  0.00  0.00    +0.000 OA
BRANCH  18  19
ATOM     19  C   UNL     1       0.916   2.383  18.844  0.00  0.00    +0.000 C 
BRANCH  19  21
ATOM     20  C   UNL     1       1.462   2.745  21.265  0.00  0.00    +0.000 C 
ATOM     21  C   UNL     1       0.831   3.353  20.018  0.00  0.00    +0.000 C 
ENDBRANCH  19  21
ENDBRANCH  18  19
ENDBRANCH  16  18
ENDBRANCH  15  16
BRANCH  15  22
ATOM     22  C   UNL     1       5.092   4.241  17.544  0.00  0.00    +0.000 C 
BRANCH  22  23
ATOM     23  N   UNL     1       5.911   4.482  16.374  0.00  0.00    +0.000 N 
ATOM     24  C   UNL     1       5.572   4.219  15.077  0.00  0.00    +0.000 A 
ATOM     25  C   UNL     1       6.622   4.701  14.333  0.00  0.00    +0.000 A 
ATOM     26  N   UNL     1       7.586   5.242  15.144  0.00  0.00    +0.000 NA
ATOM     27  C   UNL     1       7.122   5.112  16.365  0.00  0.00    +0.000 A 
ENDBRANCH  22  23
ENDBRANCH  15  22
ENDBRANCH   1  15
TORSDOF 8
ENDMDL
MODEL 6
REMARK VINA RESULT:      -7.6      1.237      1.341
REMARK  Name = 
REMARK  10 active torsions:
REMARK  status: ('A' for Active; 'I' for Inactive)
REMARK    1  A    between atoms: C_1  and  C_2
REMARK    2  A    between atoms: C_2  and  C_3
REMARK    3  A    between atoms: C_3  and  O_4
REMARK    4  A    between atoms: O_4  and  C_5
REMARK    5  A    between atoms: C_5  and  C_7
REMARK    6  A    between atoms: C_7  and  C_8
REMARK    7  A    between atoms: C_7  and  N_14
REMARK    8  A    between atoms: C_8  and  N_9
REMARK    9  A    between atoms: C_15  and  C_17
REMARK   10  A    between atoms: C_22  and  C_23
REMARK                            x       y       z     vdW  Elec       q    Type
REMARK                         _______ _______ _______ _____ _____    ______ ____
ROOT
ATOM      1  N   UNL     1       3.920   5.271  19.477  0.00  0.00    +0.000 N 
ATOM      2  C   UNL     1       3.285   6.092  18.559  0.00  0.00    +0.000 C 
ATOM      3  O   UNL     1       3.404   5.889  17.351  0.00  0.00    +0.000 OA
ATOM      4  H   UNL     1       3.725   5.444  20.462  0.00  0.00    +0.000 HD
ENDROOT
BRANCH   2   5
ATOM      5  C   UNL     1       2.495   7.167  19.157  0.00  0.00    +0.000 A 
ATOM      6  N   UNL     1       2.114   7.148  20.419  0.00  0.00    +0.000 NA
ATOM      7  C   UNL     1       1.332   8.264  20.679  0.00  0.00    +0.000 A 
ATOM      8  C   UNL     1       0.712   8.563  21.907  0.00  0.00    +0.000 A 
ATOM      9  C   UNL     1      -0.077   9.712  22.033  0.00  0.00    +0.000 A 
ATOM     10  C   UNL     1      -0.238  10.594  20.961  0.00  0.00    +0.000 A 
ATOM     11  C   UNL     1      -1.090  11.821  21.123  0.00  0.00    +0.000 C 
ATOM     12  C   UNL     1       0.369  10.310  19.725  0.00  0.00    +0.000 A 
ATOM     13  C   UNL     1       1.146   9.140  19.605  0.00  0.00    +0.000 A 
ATOM     14  S   UNL     1       1.990   8.519  18.235  0.00  0.00    +0.000 S 
ENDBRANCH   2   5
BRANCH   1  15
ATOM     15  C   UNL     1       4.644   4.055  19.092  0.00  0.00    +0.000 C 
BRANCH  15  16
ATOM     16  C   UNL     1       4.340   2.832  19.973  0.00  0.00    +0.000 C 
ATOM     17  O   UNL     1       5.195   2.036  20.354  0.00  0.00    +0.000 OA
BRANCH  16  18
ATOM     18  O   UNL     1       2.997   2.680  20.172  0.00  0.00    +0.000 OA
BRANCH  18  19
ATOM     19  C   UNL     1       2.235   2.175  19.059  0.00  0.00    +0.000 C 
BRANCH  19  21
ATOM     20  C   UNL     1       0.651   3.816  20.103  0.00  0.00    +0.000 C 
ATOM     21  C   UNL     1       0.838   2.784  18.998  0.00  0.00    +0.000 C 
ENDBRANCH  19  21
ENDBRANCH  18  19
ENDBRANCH  16  18
ENDBRANCH  15  16
BRANCH  15  22
ATOM     22  C   UNL     1       6.160   4.235  18.944  0.00  0.00    +0.000 C 
BRANCH  22  23
ATOM     23  N   UNL     1       6.575   4.746  17.654  0.00  0.00    +0.000 N 
ATOM     24  C   UNL     1       6.352   4.161  16.439  0.00  0.00    +0.000 A 
ATOM     25  C   UNL     1       6.845   5.058  15.521  0.00  0.00    +0.000 A 
ATOM     26  N   UNL     1       7.362   6.162  16.147  0.00  0.00    +0.000 NA
ATOM     27  C   UNL     1       7.170   5.954  17.429  0.00  0.00    +0.000 A 
ENDBRANCH  22  23
ENDBRANCH  15  22
ENDBRANCH   1  15
TORSDOF 8
ENDMDL
MODEL 7
REMARK VINA RESULT:      -7.3      1.410      1.934
REMARK  Name = 
REMARK  10 active torsions:
REMARK  status: ('A' for Active; 'I' for Inactive)
REMARK    1  A    between atoms: C_1  and  C_2
REMARK    2  A    between atoms: C_2  and  C_3
REMARK    3  A    between atoms: C_3  and  O_4
REMARK    4  A    between atoms: O_4  and  C_5
REMARK    5  A    between atoms: C_5  and  C_7
REMARK    6  A    between atoms: C_7  and  C_8
REMARK    7  A    between atoms: C_7  and  N_14
REMARK    8  A    between atoms: C_8  and  N_9
REMARK    9  A    between atoms: C_15  and  C_17
REMARK   10  A    between atoms: C_22  and  C_23
REMARK                            x       y       z     vdW  Elec       q    Type
REMARK                         _______ _______ _______ _____ _____    ______ ____
ROOT
ATOM      1  N   UNL     1       3.732   5.366  19.350  0.00  0.00    +0.000 N 
ATOM      2  C   UNL     1       3.182   6.382  18.585  0.00  0.00    +0.000 C 
ATOM      3  O   UNL     1       3.428   6.461  17.381  0.00  0.00    +0.000 OA
ATOM      4  H   UNL     1       3.435   5.309  20.323  0.00  0.00    +0.000 HD
ENDROOT
BRANCH   2   5
ATOM      5  C   UNL     1       2.317   7.296  19.328  0.00  0.00    +0.000 A 
ATOM      6  N   UNL     1       1.977   8.483  18.866  0.00  0.00    +0.000 NA
ATOM      7  C   UNL     1       1.207   9.141  19.814  0.00  0.00    +0.000 A 
ATOM      8  C   UNL     1       0.695  10.447  19.691  0.00  0.00    +0.000 A 
ATOM      9  C   UNL     1      -0.049  11.008  20.734  0.00  0.00    +0.000 A 
ATOM     10  C   UNL     1      -0.324  10.280  21.894  0.00  0.00    +0.000 A 
ATOM     11  C   UNL     1      -1.127  10.907  22.999  0.00  0.00    +0.000 C 
ATOM     12  C   UNL     1       0.182   8.976  22.037  0.00  0.00    +0.000 A 
ATOM     13  C   UNL     1       0.947   8.428  20.988  0.00  0.00    +0.000 A 
ATOM     14  S   UNL     1       1.707   6.884  20.875  0.00  0.00    +0.000 S 
ENDBRANCH   2   5
BRANCH   1  15
ATOM     15  C   UNL     1       4.512   4.266  18.773  0.00  0.00    +0.000 C 
BRANCH  15  16
ATOM     16  C   UNL     1       4.083   2.869  19.250  0.00  0.00    +0.000 C 
ATOM     17  O   UNL     1       4.705   2.209  20.080  0.00  0.00    +0.000 OA
BRANCH  16  18
ATOM     18  O   UNL     1       3.003   2.411  18.549  0.00  0.00    +0.000 OA
BRANCH  18  19
ATOM     19  C   UNL     1       1.888   1.934  19.326  0.00  0.00    +0.000 C 
BRANCH  19  21
ATOM     20  C   UNL     1       1.406   2.796  21.632  0.00  0.00    +0.000 C 
ATOM     21  C   UNL     1       1.238   3.049  20.139  0.00  0.00    +0.000 C 
ENDBRANCH  19  21
ENDBRANCH  18  19
ENDBRANCH  16  18
ENDBRANCH  15  16
BRANCH  15  22
ATOM     22  C   UNL     1       6.033   4.425  18.904  0.00  0.00    +0.000 C 
BRANCH  22  23
ATOM     23  N   UNL     1       6.607   5.405  18.006  0.00  0.00    +0.000 N 
ATOM     24  C   UNL     1       7.115   6.625  18.354  0.00  0.00    +0.000 A 
ATOM     25  C   UNL     1       7.622   7.142  17.185  0.00  0.00    +0.000 A 
ATOM     26  N   UNL     1       7.429   6.271  16.144  0.00  0.00    +0.000 NA
ATOM     27  C   UNL     1       6.832   5.227  16.671  0.00  0.00    +0.000 A 
ENDBRANCH  22  23
ENDBRANCH  15  22
ENDBRANCH   1  15
TORSDOF 8
ENDMDL
MODEL 8
REMARK VINA RESULT:      -7.3      1.498      1.939
REMARK  Name = 
REMARK  10 active torsions:
REMARK  status: ('A' for Active; 'I' for Inactive)
REMARK    1  A    between atoms: C_1  and  C_2
REMARK    2  A    between atoms: C_2  and  C_3
REMARK    3  A    between atoms: C_3  and  O_4
REMARK    4  A    between atoms: O_4  and  C_5
REMARK    5  A    between atoms: C_5  and  C_7
REMARK    6  A    between atoms: C_7  and  C_8
REMARK    7  A    between atoms: C_7  and  N_14
REMARK    8  A    between atoms: C_8  and  N_9
REMARK    9  A    between atoms: C_15  and  C_17
REMARK   10  A    between atoms: C_22  and  C_23
REMARK                            x       y       z     vdW  Elec       q    Type
REMARK                         _______ _______ _______ _____ _____    ______ ____
ROOT
ATOM      1  N   UNL     1       3.078   6.383  19.887  0.00  0.00    +0.000 N 
ATOM      2  C   UNL     1       2.451   7.356  19.126  0.00  0.00    +0.000 C 
ATOM      3  O   UNL     1       2.585   7.375  17.903  0.00  0.00    +0.000 OA
ATOM      4  H   UNL     1       2.871   6.373  20.885  0.00  0.00    +0.000 HD
ENDROOT
BRANCH   2   5
ATOM      5  C   UNL     1       1.650   8.303  19.899  0.00  0.00    +0.000 A 
ATOM      6  N   UNL     1       1.366   8.116  21.173  0.00  0.00    +0.000 NA
ATOM      7  C   UNL     1       0.545   9.143  21.616  0.00  0.00    +0.000 A 
ATOM      8  C   UNL     1       0.003   9.259  22.909  0.00  0.00    +0.000 A 
ATOM      9  C   UNL     1      -0.835  10.335  23.224  0.00  0.00    +0.000 A 
ATOM     10  C   UNL     1      -1.123  11.322  22.278  0.00  0.00    +0.000 A 
ATOM     11  C   UNL     1      -2.026  12.467  22.642  0.00  0.00    +0.000 C 
ATOM     12  C   UNL     1      -0.595  11.221  20.980  0.00  0.00    +0.000 A 
ATOM     13  C   UNL     1       0.233  10.123  20.669  0.00  0.00    +0.000 A 
ATOM     14  S   UNL     1       1.006   9.718  19.181  0.00  0.00    +0.000 S 
ENDBRANCH   2   5
BRANCH   1  15
ATOM     15  C   UNL     1       3.810   5.257  19.297  0.00  0.00    +0.000 C 
BRANCH  15  16
ATOM     16  C   UNL     1       3.495   3.893  19.933  0.00  0.00    +0.000 C 
ATOM     17  O   UNL     1       2.858   3.756  20.974  0.00  0.00    +0.000 OA
BRANCH  16  18
ATOM     18  O   UNL     1       4.112   2.875  19.263  0.00  0.00    +0.000 OA
BRANCH  18  19
ATOM     19  C   UNL     1       3.264   1.816  18.780  0.00  0.00    +0.000 C 
BRANCH  19  21
ATOM     20  C   UNL     1       0.797   2.245  18.642  0.00  0.00    +0.000 C 
ATOM     21  C   UNL     1       2.129   2.343  17.909  0.00  0.00    +0.000 C 
ENDBRANCH  19  21
ENDBRANCH  18  19
ENDBRANCH  16  18
ENDBRANCH  15  16
BRANCH  15  22
ATOM     22  C   UNL     1       5.328   5.460  19.209  0.00  0.00    +0.000 C 
BRANCH  22  23
ATOM     23  N   UNL     1       5.844   5.507  17.856  0.00  0.00    +0.000 N 
ATOM     24  C   UNL     1       5.160   5.197  16.715  0.00  0.00    +0.000 A 
ATOM     25  C   UNL     1       6.033   5.481  15.692  0.00  0.00    +0.000 A 
ATOM     26  N   UNL     1       7.224   5.948  16.184  0.00  0.00    +0.000 NA
ATOM     27  C   UNL     1       7.075   5.969  17.488  0.00  0.00    +0.000 A 
ENDBRANCH  22  23
ENDBRANCH  15  22
ENDBRANCH   1  15
TORSDOF 8
ENDMDL
MODEL 9
REMARK VINA RESULT:      -7.3      1.334      1.752
REMARK  Name = 
REMARK  10 active torsions:
REMARK  status: ('A' for Active; 'I' for Inactive)
REMARK    1  A    between atoms: C_1  and  C_2
REMARK    2  A    between atoms: C_2  and  C_3
REMARK    3  A    between atoms: C_3  and  O_4
REMARK    4  A    between atoms: O_4  and  C_5
REMARK    5  A    between atoms: C_5  and  C_7
REMARK    6  A    between atoms: C_7  and  C_8
REMARK    7  A    between atoms: C_7  and  N_14
REMARK    8  A    between atoms: C_8  and  N_9
REMARK    9  A    between atoms: C_15  and  C_17
REMARK   10  A    between atoms: C_22  and  C_23
REMARK                            x       y       z     vdW  Elec       q    Type
REMARK                         _______ _______ _______ _____ _____    ______ ____
ROOT
ATOM      1  N   UNL     1       2.517   7.002  18.827  0.00  0.00    +0.000 N 
ATOM      2  C   UNL     1       2.141   8.270  18.413  0.00  0.00    +0.000 C 
ATOM      3  O   UNL     1       2.440   8.675  17.290  0.00  0.00    +0.000 OA
ATOM      4  H   UNL     1       2.179   6.695  19.737  0.00  0.00    +0.000 HD
ENDROOT
BRANCH   2   5
ATOM      5  C   UNL     1       1.384   9.028  19.407  0.00  0.00    +0.000 A 
ATOM      6  N   UNL     1       1.203   8.598  20.639  0.00  0.00    +0.000 NA
ATOM      7  C   UNL     1       0.399   9.495  21.326  0.00  0.00    +0.000 A 
ATOM      8  C   UNL     1      -0.043   9.350  22.655  0.00  0.00    +0.000 A 
ATOM      9  C   UNL     1      -0.877  10.318  23.226  0.00  0.00    +0.000 A 
ATOM     10  C   UNL     1      -1.258  11.453  22.506  0.00  0.00    +0.000 A 
ATOM     11  C   UNL     1      -2.154  12.478  23.144  0.00  0.00    +0.000 C 
ATOM     12  C   UNL     1      -0.831  11.613  21.177  0.00  0.00    +0.000 A 
ATOM     13  C   UNL     1      -0.007  10.622  20.606  0.00  0.00    +0.000 A 
ATOM     14  S   UNL     1       0.655  10.528  19.016  0.00  0.00    +0.000 S 
ENDBRANCH   2   5
BRANCH   1  15
ATOM     15  C   UNL     1       3.158   6.029  17.935  0.00  0.00    +0.000 C 
BRANCH  15  16
ATOM     16  C   UNL     1       2.677   4.582  18.126  0.00  0.00    +0.000 C 
ATOM     17  O   UNL     1       2.408   3.824  17.197  0.00  0.00    +0.000 OA
BRANCH  16  18
ATOM     18  O   UNL     1       2.472   4.293  19.445  0.00  0.00    +0.000 OA
BRANCH  18  19
ATOM     19  C   UNL     1       1.143   3.878  19.814  0.00  0.00    +0.000 C 
BRANCH  19  21
ATOM     20  C   UNL     1       2.542   2.797  21.593  0.00  0.00    +0.000 C 
ATOM     21  C   UNL     1       1.152   2.889  20.975  0.00  0.00    +0.000 C 
ENDBRANCH  19  21
ENDBRANCH  18  19
ENDBRANCH  16  18
ENDBRANCH  15  16
BRANCH  15  22
ATOM     22  C   UNL     1       4.692   6.080  17.934  0.00  0.00    +0.000 C 
BRANCH  22  23
ATOM     23  N   UNL     1       5.307   5.446  16.786  0.00  0.00    +0.000 N 
ATOM     24  C   UNL     1       5.329   5.928  15.507  0.00  0.00    +0.000 A 
ATOM     25  C   UNL     1       6.099   5.031  14.806  0.00  0.00    +0.000 A 
ATOM     26  N   UNL     1       6.537   4.022  15.623  0.00  0.00    +0.000 NA
ATOM     27  C   UNL     1       6.059   4.307  16.812  0.00  0.00    +0.000 A 
ENDBRANCH  22  23
ENDBRANCH  15  22
ENDBRANCH   1  15
TORSDOF 8
ENDMDL
