MODEL 1
REMARK VINA RESULT:      -6.5      0.000      0.000
REMARK  Name = 
REMARK  21 active torsions:
REMARK  status: ('A' for Active; 'I' for Inactive)
REMARK    1  A    between atoms: C_1  and  C_2
REMARK    2  A    between atoms: C_2  and  C_3
REMARK    3  A    between atoms: C_3  and  C_4
REMARK    4  A    between atoms: C_4  and  C_5
REMARK    5  A    between atoms: C_5  and  C_6
REMARK    6  A    between atoms: C_6  and  C_7
REMARK    7  A    between atoms: C_7  and  C_8
REMARK    8  A    between atoms: C_8  and  C_9
REMARK    9  A    between atoms: C_10  and  C_11
REMARK   10  A    between atoms: C_11  and  C_12
REMARK   11  A    between atoms: C_12  and  C_13
REMARK   12  A    between atoms: C_13  and  C_14
REMARK   13  A    between atoms: C_14  and  C_15
REMARK   14  A    between atoms: C_15  and  C_16
REMARK   15  A    between atoms: C_16  and  C_17
REMARK   16  A    between atoms: C_17  and  C_18
REMARK   17  A    between atoms: C_18  and  O_20
REMARK   18  A    between atoms: O_20  and  C_21
REMARK   19  A    between atoms: C_21  and  C_22
REMARK   20  A    between atoms: C_24  and  C_25
REMARK   21  A    between atoms: C_30  and  C_31
REMARK                            x       y       z     vdW  Elec       q    Type
REMARK                         _______ _______ _______ _____ _____    ______ ____
ROOT
ATOM      1  C   UNL     1       1.306   7.843  20.568  0.00  0.00    +0.000 C 
ATOM      2  O   UNL     1       1.678   8.339  19.514  0.00  0.00    +0.000 OA
ENDROOT
BRANCH   1   3
ATOM      3  O   UNL     1       0.804   6.585  20.717  0.00  0.00    +0.000 OA
BRANCH   3   4
ATOM      4  C   UNL     1       1.812   5.562  20.830  0.00  0.00    +0.000 C 
BRANCH   4   5
ATOM      5  C   UNL     1       2.515   5.418  19.472  0.00  0.00    +0.000 C 
ATOM      6  O   UNL     1       3.847   5.887  19.596  0.00  0.00    +0.000 OA
ATOM      7  C   UNL     1       4.944   5.038  19.254  0.00  0.00    +0.000 C 
ATOM      8  C   UNL     1       4.608   3.596  19.005  0.00  0.00    +0.000 C 
ATOM      9  C   UNL     1       3.380   3.094  18.853  0.00  0.00    +0.000 C 
ATOM     10  C   UNL     1       2.244   4.019  18.944  0.00  0.00    +0.000 C 
ATOM     11  O   UNL     1       1.122   3.624  18.640  0.00  0.00    +0.000 OA
BRANCH   7  12
ATOM     12  C   UNL     1       5.722   5.708  18.076  0.00  0.00    +0.000 C 
ATOM     13  C   UNL     1       4.932   5.657  16.747  0.00  0.00    +0.000 C 
ATOM     14  C   UNL     1       5.393   4.690  15.663  0.00  0.00    +0.000 C 
ATOM     15  C   UNL     1       6.820   4.166  15.730  0.00  0.00    +0.000 C 
ATOM     16  C   UNL     1       7.633   4.574  16.911  0.00  0.00    +0.000 C 
ATOM     17  C   UNL     1       7.171   5.262  17.965  0.00  0.00    +0.000 C 
ATOM     18  C   UNL     1       8.089   5.641  19.097  0.00  0.00    +0.000 C 
ENDBRANCH   7  12
ENDBRANCH   4   5
ENDBRANCH   3   4
ENDBRANCH   1   3
BRANCH   1  19
ATOM     19  C   UNL     1       1.232   8.561  21.889  0.00  0.00    +0.000 C 
BRANCH  19  20
ATOM     20  C   UNL     1      -0.213   8.896  22.214  0.00  0.00    +0.000 C 
BRANCH  20  21
ATOM     21  C   UNL     1      -0.325   9.955  23.302  0.00  0.00    +0.000 C 
BRANCH  21  22
ATOM     22  C   UNL     1      -1.436  10.919  22.919  0.00  0.00    +0.000 C 
BRANCH  22  23
ATOM     23  C   UNL     1      -0.913  12.309  22.587  0.00  0.00    +0.000 C 
BRANCH  23  24
ATOM     24  C   UNL     1       0.329  12.235  21.699  0.00  0.00    +0.000 C 
BRANCH  24  25
ATOM     25  C   UNL     1       0.128  12.793  20.287  0.00  0.00    +0.000 C 
BRANCH  25  27
ATOM     26  C   UNL     1      -2.108  12.168  19.311  0.00  0.00    +0.000 C 
ATOM     27  C   UNL     1      -1.324  13.034  19.967  0.00  0.00    +0.000 C 
BRANCH  26  28
ATOM     28  C   UNL     1      -1.610  10.834  18.858  0.00  0.00    +0.000 C 
BRANCH  28  29
ATOM     29  C   UNL     1      -2.551  10.148  17.885  0.00  0.00    +0.000 C 
BRANCH  29  30
ATOM     30  C   UNL     1      -2.897  11.123  16.765  0.00  0.00    +0.000 C 
BRANCH  30  31
ATOM     31  C   UNL     1      -4.394  11.144  16.519  0.00  0.00    +0.000 C 
BRANCH  31  32
ATOM     32  C   UNL     1      -5.110  11.918  17.619  0.00  0.00    +0.000 C 
BRANCH  32  33
ATOM     33  C   UNL     1      -6.339  11.146  18.083  0.00  0.00    +0.000 C 
BRANCH  33  35
ATOM     34  C   UNL     1      -7.212   9.990  20.124  0.00  0.00    +0.000 C 
ATOM     35  C   UNL     1      -6.502  11.225  19.597  0.00  0.00    +0.000 C 
ENDBRANCH  33  35
ENDBRANCH  32  33
ENDBRANCH  31  32
ENDBRANCH  30  31
ENDBRANCH  29  30
ENDBRANCH  28  29
ENDBRANCH  26  28
ENDBRANCH  25  27
ENDBRANCH  24  25
ENDBRANCH  23  24
ENDBRANCH  22  23
ENDBRANCH  21  22
ENDBRANCH  20  21
ENDBRANCH  19  20
ENDBRANCH   1  19
TORSDOF 19
ENDMDL
MODEL 2
REMARK VINA RESULT:      -6.5      2.918     10.213
REMARK  Name = 
REMARK  21 active torsions:
REMARK  status: ('A' for Active; 'I' for Inactive)
REMARK    1  A    between atoms: C_1  and  C_2
REMARK    2  A    between atoms: C_2  and  C_3
REMARK    3  A    between atoms: C_3  and  C_4
REMARK    4  A    between atoms: C_4  and  C_5
REMARK    5  A    between atoms: C_5  and  C_6
REMARK    6  A    between atoms: C_6  and  C_7
REMARK    7  A    between atoms: C_7  and  C_8
REMARK    8  A    between atoms: C_8  and  C_9
REMARK    9  A    between atoms: C_10  and  C_11
REMARK   10  A    between atoms: C_11  and  C_12
REMARK   11  A    between atoms: C_12  and  C_13
REMARK   12  A    between atoms: C_13  and  C_14
REMARK   13  A    between atoms: C_14  and  C_15
REMARK   14  A    between atoms: C_15  and  C_16
REMARK   15  A    between atoms: C_16  and  C_17
REMARK   16  A    between atoms: C_17  and  C_18
REMARK   17  A    between atoms: C_18  and  O_20
REMARK   18  A    between atoms: O_20  and  C_21
REMARK   19  A    between atoms: C_21  and  C_22
REMARK   20  A    between atoms: C_24  and  C_25
REMARK   21  A    between atoms: C_30  and  C_31
REMARK                            x       y       z     vdW  Elec       q    Type
REMARK                         _______ _______ _______ _____ _____    ______ ____
ROOT
ATOM      1  C   UNL     1       0.538   9.635  18.808  0.00  0.00    +0.000 C 
ATOM      2  O   UNL     1       0.006  10.016  17.775  0.00  0.00    +0.000 OA
ENDROOT
BRANCH   1   3
ATOM      3  O   UNL     1      -0.042   9.631  20.041  0.00  0.00    +0.000 OA
BRANCH   3   4
ATOM      4  C   UNL     1       0.840  10.038  21.104  0.00  0.00    +0.000 C 
BRANCH   4   5
ATOM      5  C   UNL     1       0.472  11.469  21.523  0.00  0.00    +0.000 C 
ATOM      6  O   UNL     1       0.909  12.366  20.515  0.00  0.00    +0.000 OA
ATOM      7  C   UNL     1      -0.019  13.258  19.895  0.00  0.00    +0.000 C 
ATOM      8  C   UNL     1      -1.470  13.014  20.196  0.00  0.00    +0.000 C 
ATOM      9  C   UNL     1      -1.946  12.206  21.146  0.00  0.00    +0.000 C 
ATOM     10  C   UNL     1      -0.979  11.473  21.973  0.00  0.00    +0.000 C 
ATOM     11  O   UNL     1      -1.375  10.860  22.960  0.00  0.00    +0.000 OA
BRANCH   7  12
ATOM     12  C   UNL     1       0.443  14.720  20.199  0.00  0.00    +0.000 C 
ATOM     13  C   UNL     1      -0.637  15.530  20.954  0.00  0.00    +0.000 C 
ATOM     14  C   UNL     1      -1.405  16.606  20.194  0.00  0.00    +0.000 C 
ATOM     15  C   UNL     1      -0.795  17.147  18.908  0.00  0.00    +0.000 C 
ATOM     16  C   UNL     1       0.471  16.513  18.443  0.00  0.00    +0.000 C 
ATOM     17  C   UNL     1       1.044  15.435  19.000  0.00  0.00    +0.000 C 
ATOM     18  C   UNL     1       2.340  14.890  18.461  0.00  0.00    +0.000 C 
ENDBRANCH   7  12
ENDBRANCH   4   5
ENDBRANCH   3   4
ENDBRANCH   1   3
BRANCH   1  19
ATOM     19  C   UNL     1       1.971   9.196  18.939  0.00  0.00    +0.000 C 
BRANCH  19  20
ATOM     20  C   UNL     1       2.320   8.232  17.818  0.00  0.00    +0.000 C 
BRANCH  20  21
ATOM     21  C   UNL     1       2.115   6.780  18.227  0.00  0.00    +0.000 C 
BRANCH  21  22
ATOM     22  C   UNL     1       2.784   6.563  19.574  0.00  0.00    +0.000 C 
BRANCH  22  23
ATOM     23  C   UNL     1       1.801   6.126  20.651  0.00  0.00    +0.000 C 
BRANCH  23  24
ATOM     24  C   UNL     1       1.968   4.643  20.984  0.00  0.00    +0.000 C 
BRANCH  24  25
ATOM     25  C   UNL     1       1.086   3.708  20.151  0.00  0.00    +0.000 C 
BRANCH  25  27
ATOM     26  C   UNL     1       2.279   2.224  18.502  0.00  0.00    +0.000 C 
ATOM     27  C   UNL     1       1.810   2.455  19.736  0.00  0.00    +0.000 C 
BRANCH  26  28
ATOM     28  C   UNL     1       2.155   3.232  17.406  0.00  0.00    +0.000 C 
BRANCH  28  29
ATOM     29  C   UNL     1       3.496   3.767  16.938  0.00  0.00    +0.000 C 
BRANCH  29  30
ATOM     30  C   UNL     1       4.465   3.763  18.115  0.00  0.00    +0.000 C 
BRANCH  30  31
ATOM     31  C   UNL     1       5.559   4.793  17.908  0.00  0.00    +0.000 C 
BRANCH  31  32
ATOM     32  C   UNL     1       5.692   5.150  16.433  0.00  0.00    +0.000 C 
BRANCH  32  33
ATOM     33  C   UNL     1       7.090   4.803  15.937  0.00  0.00    +0.000 C 
BRANCH  33  35
ATOM     34  C   UNL     1       5.943   3.933  13.890  0.00  0.00    +0.000 C 
ATOM     35  C   UNL     1       7.133   4.718  14.416  0.00  0.00    +0.000 C 
ENDBRANCH  33  35
ENDBRANCH  32  33
ENDBRANCH  31  32
ENDBRANCH  30  31
ENDBRANCH  29  30
ENDBRANCH  28  29
ENDBRANCH  26  28
ENDBRANCH  25  27
ENDBRANCH  24  25
ENDBRANCH  23  24
ENDBRANCH  22  23
ENDBRANCH  21  22
ENDBRANCH  20  21
ENDBRANCH  19  20
ENDBRANCH   1  19
TORSDOF 19
ENDMDL
MODEL 3
REMARK VINA RESULT:      -6.4      5.097      8.382
REMARK  Name = 
REMARK  21 active torsions:
REMARK  status: ('A' for Active; 'I' for Inactive)
REMARK    1  A    between atoms: C_1  and  C_2
REMARK    2  A    between atoms: C_2  and  C_3
REMARK    3  A    between atoms: C_3  and  C_4
REMARK    4  A    between atoms: C_4  and  C_5
REMARK    5  A    between atoms: C_5  and  C_6
REMARK    6  A    between atoms: C_6  and  C_7
REMARK    7  A    between atoms: C_7  and  C_8
REMARK    8  A    between atoms: C_8  and  C_9
REMARK    9  A    between atoms: C_10  and  C_11
REMARK   10  A    between atoms: C_11  and  C_12
REMARK   11  A    between atoms: C_12  and  C_13
REMARK   12  A    between atoms: C_13  and  C_14
REMARK   13  A    between atoms: C_14  and  C_15
REMARK   14  A    between atoms: C_15  and  C_16
REMARK   15  A    between atoms: C_16  and  C_17
REMARK   16  A    between atoms: C_17  and  C_18
REMARK   17  A    between atoms: C_18  and  O_20
REMARK   18  A    between atoms: O_20  and  C_21
REMARK   19  A    between atoms: C_21  and  C_22
REMARK   20  A    between atoms: C_24  and  C_25
REMARK   21  A    between atoms: C_30  and  C_31
REMARK                            x       y       z     vdW  Elec       q    Type
REMARK                         _______ _______ _______ _____ _____    ______ ____
ROOT
ATOM      1  C   UNL     1       8.130   8.601  18.306  0.00  0.00    +0.000 C 
ATOM      2  O   UNL     1       8.804   7.829  18.973  0.00  0.00    +0.000 OA
ENDROOT
BRANCH   1   3
ATOM      3  O   UNL     1       6.968   8.286  17.666  0.00  0.00    +0.000 OA
BRANCH   3   4
ATOM      4  C   UNL     1       7.064   7.127  16.817  0.00  0.00    +0.000 C 
BRANCH   4   5
ATOM      5  C   UNL     1       6.601   5.898  17.612  0.00  0.00    +0.000 C 
ATOM      6  O   UNL     1       5.340   6.182  18.195  0.00  0.00    +0.000 OA
ATOM      7  C   UNL     1       4.221   5.332  17.938  0.00  0.00    +0.000 C 
ATOM      8  C   UNL     1       4.406   4.308  16.855  0.00  0.00    +0.000 C 
ATOM      9  C   UNL     1       5.566   3.976  16.284  0.00  0.00    +0.000 C 
ATOM     10  C   UNL     1       6.778   4.671  16.735  0.00  0.00    +0.000 C 
ATOM     11  O   UNL     1       7.875   4.271  16.357  0.00  0.00    +0.000 OA
BRANCH   7  12
ATOM     12  C   UNL     1       3.756   4.721  19.299  0.00  0.00    +0.000 C 
ATOM     13  C   UNL     1       4.025   3.200  19.380  0.00  0.00    +0.000 C 
ATOM     14  C   UNL     1       2.841   2.245  19.273  0.00  0.00    +0.000 C 
ATOM     15  C   UNL     1       1.449   2.798  19.547  0.00  0.00    +0.000 C 
ATOM     16  C   UNL     1       1.344   4.260  19.812  0.00  0.00    +0.000 C 
ATOM     17  C   UNL     1       2.354   5.136  19.712  0.00  0.00    +0.000 C 
ATOM     18  C   UNL     1       2.140   6.594  20.026  0.00  0.00    +0.000 C 
ENDBRANCH   7  12
ENDBRANCH   4   5
ENDBRANCH   3   4
ENDBRANCH   1   3
BRANCH   1  19
ATOM     19  C   UNL     1       8.505  10.019  17.973  0.00  0.00    +0.000 C 
BRANCH  19  20
ATOM     20  C   UNL     1       9.661  10.468  18.851  0.00  0.00    +0.000 C 
BRANCH  20  21
ATOM     21  C   UNL     1       9.194  10.916  20.229  0.00  0.00    +0.000 C 
BRANCH  21  22
ATOM     22  C   UNL     1      10.255  11.830  20.819  0.00  0.00    +0.000 C 
BRANCH  22  23
ATOM     23  C   UNL     1      11.486  11.944  19.930  0.00  0.00    +0.000 C 
BRANCH  23  24
ATOM     24  C   UNL     1      11.792  13.404  19.594  0.00  0.00    +0.000 C 
BRANCH  24  25
ATOM     25  C   UNL     1      10.800  14.408  20.189  0.00  0.00    +0.000 C 
BRANCH  25  27
ATOM     26  C   UNL     1       9.304  15.303  18.371  0.00  0.00    +0.000 C 
ATOM     27  C   UNL     1      10.358  15.441  19.188  0.00  0.00    +0.000 C 
BRANCH  26  28
ATOM     28  C   UNL     1       8.427  14.094  18.408  0.00  0.00    +0.000 C 
BRANCH  28  29
ATOM     29  C   UNL     1       7.085  14.314  17.734  0.00  0.00    +0.000 C 
BRANCH  29  30
ATOM     30  C   UNL     1       6.057  14.689  18.795  0.00  0.00    +0.000 C 
BRANCH  30  31
ATOM     31  C   UNL     1       5.252  15.897  18.353  0.00  0.00    +0.000 C 
BRANCH  31  32
ATOM     32  C   UNL     1       3.980  15.464  17.636  0.00  0.00    +0.000 C 
BRANCH  32  33
ATOM     33  C   UNL     1       3.357  14.273  18.353  0.00  0.00    +0.000 C 
BRANCH  33  35
ATOM     34  C   UNL     1       1.053  13.928  19.267  0.00  0.00    +0.000 C 
ATOM     35  C   UNL     1       2.340  14.725  19.395  0.00  0.00    +0.000 C 
ENDBRANCH  33  35
ENDBRANCH  32  33
ENDBRANCH  31  32
ENDBRANCH  30  31
ENDBRANCH  29  30
ENDBRANCH  28  29
ENDBRANCH  26  28
ENDBRANCH  25  27
ENDBRANCH  24  25
ENDBRANCH  23  24
ENDBRANCH  22  23
ENDBRANCH  21  22
ENDBRANCH  20  21
ENDBRANCH  19  20
ENDBRANCH   1  19
TORSDOF 19
ENDMDL
MODEL 4
REMARK VINA RESULT:      -6.4      5.891     10.217
REMARK  Name = 
REMARK  21 active torsions:
REMARK  status: ('A' for Active; 'I' for Inactive)
REMARK    1  A    between atoms: C_1  and  C_2
REMARK    2  A    between atoms: C_2  and  C_3
REMARK    3  A    between atoms: C_3  and  C_4
REMARK    4  A    between atoms: C_4  and  C_5
REMARK    5  A    between atoms: C_5  and  C_6
REMARK    6  A    between atoms: C_6  and  C_7
REMARK    7  A    between atoms: C_7  and  C_8
REMARK    8  A    between atoms: C_8  and  C_9
REMARK    9  A    between atoms: C_10  and  C_11
REMARK   10  A    between atoms: C_11  and  C_12
REMARK   11  A    between atoms: C_12  and  C_13
REMARK   12  A    between atoms: C_13  and  C_14
REMARK   13  A    between atoms: C_14  and  C_15
REMARK   14  A    between atoms: C_15  and  C_16
REMARK   15  A    between atoms: C_16  and  C_17
REMARK   16  A    between atoms: C_17  and  C_18
REMARK   17  A    between atoms: C_18  and  O_20
REMARK   18  A    between atoms: O_20  and  C_21
REMARK   19  A    between atoms: C_21  and  C_22
REMARK   20  A    between atoms: C_24  and  C_25
REMARK   21  A    between atoms: C_30  and  C_31
REMARK                            x       y       z     vdW  Elec       q    Type
REMARK                         _______ _______ _______ _____ _____    ______ ____
ROOT
ATOM      1  C   UNL     1       7.594   5.913  17.737  0.00  0.00    +0.000 C 
ATOM      2  O   UNL     1       7.810   5.885  16.533  0.00  0.00    +0.000 OA
ENDROOT
BRANCH   1   3
ATOM      3  O   UNL     1       6.988   4.925  18.454  0.00  0.00    +0.000 OA
BRANCH   3   4
ATOM      4  C   UNL     1       6.357   3.917  17.642  0.00  0.00    +0.000 C 
BRANCH   4   5
ATOM      5  C   UNL     1       4.847   4.194  17.605  0.00  0.00    +0.000 C 
ATOM      6  O   UNL     1       4.371   4.306  18.936  0.00  0.00    +0.000 OA
ATOM      7  C   UNL     1       3.677   5.483  19.355  0.00  0.00    +0.000 C 
ATOM      8  C   UNL     1       3.709   6.641  18.400  0.00  0.00    +0.000 C 
ATOM      9  C   UNL     1       4.118   6.597  17.130  0.00  0.00    +0.000 C 
ATOM     10  C   UNL     1       4.595   5.311  16.607  0.00  0.00    +0.000 C 
ATOM     11  O   UNL     1       4.814   5.196  15.404  0.00  0.00    +0.000 OA
BRANCH   7  12
ATOM     12  C   UNL     1       2.233   5.064  19.780  0.00  0.00    +0.000 C 
ATOM     13  C   UNL     1       2.138   4.736  21.288  0.00  0.00    +0.000 C 
ATOM     14  C   UNL     1       2.000   3.276  21.708  0.00  0.00    +0.000 C 
ATOM     15  C   UNL     1       1.513   2.276  20.669  0.00  0.00    +0.000 C 
ATOM     16  C   UNL     1       1.293   2.790  19.288  0.00  0.00    +0.000 C 
ATOM     17  C   UNL     1       1.602   4.026  18.867  0.00  0.00    +0.000 C 
ATOM     18  C   UNL     1       1.314   4.448  17.450  0.00  0.00    +0.000 C 
ENDBRANCH   7  12
ENDBRANCH   4   5
ENDBRANCH   3   4
ENDBRANCH   1   3
BRANCH   1  19
ATOM     19  C   UNL     1       7.859   7.085  18.642  0.00  0.00    +0.000 C 
BRANCH  19  20
ATOM     20  C   UNL     1       8.189   8.314  17.812  0.00  0.00    +0.000 C 
BRANCH  20  21
ATOM     21  C   UNL     1       8.649   9.482  18.675  0.00  0.00    +0.000 C 
BRANCH  21  22
ATOM     22  C   UNL     1       9.257  10.537  17.766  0.00  0.00    +0.000 C 
BRANCH  22  23
ATOM     23  C   UNL     1       8.500  11.857  17.818  0.00  0.00    +0.000 C 
BRANCH  23  24
ATOM     24  C   UNL     1       9.460  13.040  17.955  0.00  0.00    +0.000 C 
BRANCH  24  25
ATOM     25  C   UNL     1      10.917  12.709  17.618  0.00  0.00    +0.000 C 
BRANCH  25  27
ATOM     26  C   UNL     1      12.333  13.773  19.409  0.00  0.00    +0.000 C 
ATOM     27  C   UNL     1      11.798  12.684  18.839  0.00  0.00    +0.000 C 
BRANCH  26  28
ATOM     28  C   UNL     1      12.067  15.150  18.893  0.00  0.00    +0.000 C 
BRANCH  28  29
ATOM     29  C   UNL     1      11.087  15.927  19.752  0.00  0.00    +0.000 C 
BRANCH  29  30
ATOM     30  C   UNL     1      11.740  16.223  21.097  0.00  0.00    +0.000 C 
BRANCH  30  31
ATOM     31  C   UNL     1      10.752  16.009  22.228  0.00  0.00    +0.000 C 
BRANCH  31  32
ATOM     32  C   UNL     1       9.338  15.845  21.685  0.00  0.00    +0.000 C 
BRANCH  32  33
ATOM     33  C   UNL     1       8.710  14.574  22.241  0.00  0.00    +0.000 C 
BRANCH  33  35
ATOM     34  C   UNL     1       9.470  12.217  21.883  0.00  0.00    +0.000 C 
ATOM     35  C   UNL     1       8.808  13.426  21.244  0.00  0.00    +0.000 C 
ENDBRANCH  33  35
ENDBRANCH  32  33
ENDBRANCH  31  32
ENDBRANCH  30  31
ENDBRANCH  29  30
ENDBRANCH  28  29
ENDBRANCH  26  28
ENDBRANCH  25  27
ENDBRANCH  24  25
ENDBRANCH  23  24
ENDBRANCH  22  23
ENDBRANCH  21  22
ENDBRANCH  20  21
ENDBRANCH  19  20
ENDBRANCH   1  19
TORSDOF 19
ENDMDL
MODEL 5
REMARK VINA RESULT:      -6.4      2.798      5.675
REMARK  Name = 
REMARK  21 active torsions:
REMARK  status: ('A' for Active; 'I' for Inactive)
REMARK    1  A    between atoms: C_1  and  C_2
REMARK    2  A    between atoms: C_2  and  C_3
REMARK    3  A    between atoms: C_3  and  C_4
REMARK    4  A    between atoms: C_4  and  C_5
REMARK    5  A    between atoms: C_5  and  C_6
REMARK    6  A    between atoms: C_6  and  C_7
REMARK    7  A    between atoms: C_7  and  C_8
REMARK    8  A    between atoms: C_8  and  C_9
REMARK    9  A    between atoms: C_10  and  C_11
REMARK   10  A    between atoms: C_11  and  C_12
REMARK   11  A    between atoms: C_12  and  C_13
REMARK   12  A    between atoms: C_13  and  C_14
REMARK   13  A    between atoms: C_14  and  C_15
REMARK   14  A    between atoms: C_15  and  C_16
REMARK   15  A    between atoms: C_16  and  C_17
REMARK   16  A    between atoms: C_17  and  C_18
REMARK   17  A    between atoms: C_18  and  O_20
REMARK   18  A    between atoms: O_20  and  C_21
REMARK   19  A    between atoms: C_21  and  C_22
REMARK   20  A    between atoms: C_24  and  C_25
REMARK   21  A    between atoms: C_30  and  C_31
REMARK                            x       y       z     vdW  Elec       q    Type
REMARK                         _______ _______ _______ _____ _____    ______ ____
ROOT
ATOM      1  C   UNL     1       2.955   3.154  17.533  0.00  0.00    +0.000 C 
ATOM      2  O   UNL     1       2.376   2.879  16.491  0.00  0.00    +0.000 OA
ENDROOT
BRANCH   1   3
ATOM      3  O   UNL     1       3.716   4.264  17.745  0.00  0.00    +0.000 OA
BRANCH   3   4
ATOM      4  C   UNL     1       5.053   3.978  18.198  0.00  0.00    +0.000 C 
BRANCH   4   5
ATOM      5  C   UNL     1       6.044   4.460  17.128  0.00  0.00    +0.000 C 
ATOM      6  O   UNL     1       5.906   3.643  15.978  0.00  0.00    +0.000 OA
ATOM      7  C   UNL     1       5.620   4.231  14.707  0.00  0.00    +0.000 C 
ATOM      8  C   UNL     1       5.244   5.684  14.724  0.00  0.00    +0.000 C 
ATOM      9  C   UNL     1       5.373   6.514  15.762  0.00  0.00    +0.000 C 
ATOM     10  C   UNL     1       5.920   5.970  17.012  0.00  0.00    +0.000 C 
ATOM     11  O   UNL     1       6.211   6.737  17.924  0.00  0.00    +0.000 OA
BRANCH   7  12
ATOM     12  C   UNL     1       6.809   3.905  13.747  0.00  0.00    +0.000 C 
ATOM     13  C   UNL     1       8.022   4.837  13.981  0.00  0.00    +0.000 C 
ATOM     14  C   UNL     1       8.316   5.921  12.950  0.00  0.00    +0.000 C 
ATOM     15  C   UNL     1       7.722   5.764  11.557  0.00  0.00    +0.000 C 
ATOM     16  C   UNL     1       6.818   4.600  11.336  0.00  0.00    +0.000 C 
ATOM     17  C   UNL     1       6.399   3.757  12.291  0.00  0.00    +0.000 C 
ATOM     18  C   UNL     1       5.502   2.596  11.951  0.00  0.00    +0.000 C 
ENDBRANCH   7  12
ENDBRANCH   4   5
ENDBRANCH   3   4
ENDBRANCH   1   3
BRANCH   1  19
ATOM     19  C   UNL     1       3.027   2.269  18.748  0.00  0.00    +0.000 C 
BRANCH  19  20
ATOM     20  C   UNL     1       1.629   2.013  19.285  0.00  0.00    +0.000 C 
BRANCH  20  21
ATOM     21  C   UNL     1       0.828   3.299  19.434  0.00  0.00    +0.000 C 
BRANCH  21  22
ATOM     22  C   UNL     1       1.095   3.871  20.816  0.00  0.00    +0.000 C 
BRANCH  22  23
ATOM     23  C   UNL     1       2.289   4.816  20.835  0.00  0.00    +0.000 C 
BRANCH  23  24
ATOM     24  C   UNL     1       1.898   6.211  20.346  0.00  0.00    +0.000 C 
BRANCH  24  25
ATOM     25  C   UNL     1       2.894   6.836  19.365  0.00  0.00    +0.000 C 
BRANCH  25  27
ATOM     26  C   UNL     1       1.608   8.531  18.018  0.00  0.00    +0.000 C 
ATOM     27  C   UNL     1       2.226   7.347  18.116  0.00  0.00    +0.000 C 
BRANCH  26  28
ATOM     28  C   UNL     1       1.556   9.495  19.159  0.00  0.00    +0.000 C 
BRANCH  28  29
ATOM     29  C   UNL     1       0.239  10.245  19.243  0.00  0.00    +0.000 C 
BRANCH  29  30
ATOM     30  C   UNL     1      -0.544  10.009  17.956  0.00  0.00    +0.000 C 
BRANCH  30  31
ATOM     31  C   UNL     1      -2.032  10.179  18.199  0.00  0.00    +0.000 C 
BRANCH  31  32
ATOM     32  C   UNL     1      -2.707  10.812  16.988  0.00  0.00    +0.000 C 
BRANCH  32  33
ATOM     33  C   UNL     1      -2.817   9.792  15.861  0.00  0.00    +0.000 C 
BRANCH  33  35
ATOM     34  C   UNL     1      -2.931   9.637  13.366  0.00  0.00    +0.000 C 
ATOM     35  C   UNL     1      -3.360  10.431  14.589  0.00  0.00    +0.000 C 
ENDBRANCH  33  35
ENDBRANCH  32  33
ENDBRANCH  31  32
ENDBRANCH  30  31
ENDBRANCH  29  30
ENDBRANCH  28  29
ENDBRANCH  26  28
ENDBRANCH  25  27
ENDBRANCH  24  25
ENDBRANCH  23  24
ENDBRANCH  22  23
ENDBRANCH  21  22
ENDBRANCH  20  21
ENDBRANCH  19  20
ENDBRANCH   1  19
TORSDOF 19
ENDMDL
MODEL 6
REMARK VINA RESULT:      -6.4      2.238     10.521
REMARK  Name = 
REMARK  21 active torsions:
REMARK  status: ('A' for Active; 'I' for Inactive)
REMARK    1  A    between atoms: C_1  and  C_2
REMARK    2  A    between atoms: C_2  and  C_3
REMARK    3  A    between atoms: C_3  and  C_4
REMARK    4  A    between atoms: C_4  and  C_5
REMARK    5  A    between atoms: C_5  and  C_6
REMARK    6  A    between atoms: C_6  and  C_7
REMARK    7  A    between atoms: C_7  and  C_8
REMARK    8  A    between atoms: C_8  and  C_9
REMARK    9  A    between atoms: C_10  and  C_11
REMARK   10  A    between atoms: C_11  and  C_12
REMARK   11  A    between atoms: C_12  and  C_13
REMARK   12  A    between atoms: C_13  and  C_14
REMARK   13  A    between atoms: C_14  and  C_15
REMARK   14  A    between atoms: C_15  and  C_16
REMARK   15  A    between atoms: C_16  and  C_17
REMARK   16  A    between atoms: C_17  and  C_18
REMARK   17  A    between atoms: C_18  and  O_20
REMARK   18  A    between atoms: O_20  and  C_21
REMARK   19  A    between atoms: C_21  and  C_22
REMARK   20  A    between atoms: C_24  and  C_25
REMARK   21  A    between atoms: C_30  and  C_31
REMARK                            x       y       z     vdW  Elec       q    Type
REMARK                         _______ _______ _______ _____ _____    ______ ____
ROOT
ATOM      1  C   UNL     1       1.513   8.764  19.386  0.00  0.00    +0.000 C 
ATOM      2  O   UNL     1       1.259   8.456  20.542  0.00  0.00    +0.000 OA
ENDROOT
BRANCH   1   3
ATOM      3  O   UNL     1       0.923   9.776  18.690  0.00  0.00    +0.000 OA
BRANCH   3   4
ATOM      4  C   UNL     1       1.809  10.871  18.388  0.00  0.00    +0.000 C 
BRANCH   4   5
ATOM      5  C   UNL     1       1.074  12.188  18.680  0.00  0.00    +0.000 C 
ATOM      6  O   UNL     1      -0.250  11.890  19.091  0.00  0.00    +0.000 OA
ATOM      7  C   UNL     1      -0.740  12.370  20.344  0.00  0.00    +0.000 C 
ATOM      8  C   UNL     1       0.283  12.971  21.265  0.00  0.00    +0.000 C 
ATOM      9  C   UNL     1       1.534  13.299  20.936  0.00  0.00    +0.000 C 
ATOM     10  C   UNL     1       1.970  13.046  19.557  0.00  0.00    +0.000 C 
ATOM     11  O   UNL     1       3.050  13.491  19.177  0.00  0.00    +0.000 OA
BRANCH   7  12
ATOM     12  C   UNL     1      -1.952  13.314  20.058  0.00  0.00    +0.000 C 
ATOM     13  C   UNL     1      -1.988  14.527  21.016  0.00  0.00    +0.000 C 
ATOM     14  C   UNL     1      -3.043  14.553  22.117  0.00  0.00    +0.000 C 
ATOM     15  C   UNL     1      -4.265  13.659  21.960  0.00  0.00    +0.000 C 
ATOM     16  C   UNL     1      -4.290  12.754  20.776  0.00  0.00    +0.000 C 
ATOM     17  C   UNL     1      -3.277  12.584  19.914  0.00  0.00    +0.000 C 
ATOM     18  C   UNL     1      -3.421  11.658  18.734  0.00  0.00    +0.000 C 
ENDBRANCH   7  12
ENDBRANCH   4   5
ENDBRANCH   3   4
ENDBRANCH   1   3
BRANCH   1  19
ATOM     19  C   UNL     1       2.449   8.019  18.473  0.00  0.00    +0.000 C 
BRANCH  19  20
ATOM     20  C   UNL     1       2.266   6.522  18.655  0.00  0.00    +0.000 C 
BRANCH  20  21
ATOM     21  C   UNL     1       3.316   5.925  19.582  0.00  0.00    +0.000 C 
BRANCH  21  22
ATOM     22  C   UNL     1       2.602   5.154  20.679  0.00  0.00    +0.000 C 
BRANCH  22  23
ATOM     23  C   UNL     1       1.161   4.825  20.317  0.00  0.00    +0.000 C 
BRANCH  23  24
ATOM     24  C   UNL     1       0.990   3.333  20.027  0.00  0.00    +0.000 C 
BRANCH  24  25
ATOM     25  C   UNL     1       1.190   2.952  18.557  0.00  0.00    +0.000 C 
BRANCH  25  27
ATOM     26  C   UNL     1       3.393   1.791  18.183  0.00  0.00    +0.000 C 
ATOM     27  C   UNL     1       2.071   1.742  18.392  0.00  0.00    +0.000 C 
BRANCH  26  28
ATOM     28  C   UNL     1       4.140   3.084  18.131  0.00  0.00    +0.000 C 
BRANCH  28  29
ATOM     29  C   UNL     1       4.055   3.764  16.777  0.00  0.00    +0.000 C 
BRANCH  29  30
ATOM     30  C   UNL     1       5.448   3.807  16.159  0.00  0.00    +0.000 C 
BRANCH  30  31
ATOM     31  C   UNL     1       5.685   5.137  15.469  0.00  0.00    +0.000 C 
BRANCH  31  32
ATOM     32  C   UNL     1       6.928   5.820  16.026  0.00  0.00    +0.000 C 
BRANCH  32  33
ATOM     33  C   UNL     1       6.538   6.790  17.134  0.00  0.00    +0.000 C 
BRANCH  33  35
ATOM     34  C   UNL     1       7.658   5.516  18.974  0.00  0.00    +0.000 C 
ATOM     35  C   UNL     1       7.599   6.838  18.227  0.00  0.00    +0.000 C 
ENDBRANCH  33  35
ENDBRANCH  32  33
ENDBRANCH  31  32
ENDBRANCH  30  31
ENDBRANCH  29  30
ENDBRANCH  28  29
ENDBRANCH  26  28
ENDBRANCH  25  27
ENDBRANCH  24  25
ENDBRANCH  23  24
ENDBRANCH  22  23
ENDBRANCH  21  22
ENDBRANCH  20  21
ENDBRANCH  19  20
ENDBRANCH   1  19
TORSDOF 19
ENDMDL
MODEL 7
REMARK VINA RESULT:      -6.4      3.157     11.218
REMARK  Name = 
REMARK  21 active torsions:
REMARK  status: ('A' for Active; 'I' for Inactive)
REMARK    1  A    between atoms: C_1  and  C_2
REMARK    2  A    between atoms: C_2  and  C_3
REMARK    3  A    between atoms: C_3  and  C_4
REMARK    4  A    between atoms: C_4  and  C_5
REMARK    5  A    between atoms: C_5  and  C_6
REMARK    6  A    between atoms: C_6  and  C_7
REMARK    7  A    between atoms: C_7  and  C_8
REMARK    8  A    between atoms: C_8  and  C_9
REMARK    9  A    between atoms: C_10  and  C_11
REMARK   10  A    between atoms: C_11  and  C_12
REMARK   11  A    between atoms: C_12  and  C_13
REMARK   12  A    between atoms: C_13  and  C_14
REMARK   13  A    between atoms: C_14  and  C_15
REMARK   14  A    between atoms: C_15  and  C_16
REMARK   15  A    between atoms: C_16  and  C_17
REMARK   16  A    between atoms: C_17  and  C_18
REMARK   17  A    between atoms: C_18  and  O_20
REMARK   18  A    between atoms: O_20  and  C_21
REMARK   19  A    between atoms: C_21  and  C_22
REMARK   20  A    between atoms: C_24  and  C_25
REMARK   21  A    between atoms: C_30  and  C_31
REMARK                            x       y       z     vdW  Elec       q    Type
REMARK                         _______ _______ _______ _____ _____    ______ ____
ROOT
ATOM      1  C   UNL     1       0.922   9.898  21.880  0.00  0.00    +0.000 C 
ATOM      2  O   UNL     1       1.151   9.414  22.979  0.00  0.00    +0.000 OA
ENDROOT
BRANCH   1   3
ATOM      3  O   UNL     1       0.526  11.182  21.648  0.00  0.00    +0.000 OA
BRANCH   3   4
ATOM      4  C   UNL     1       0.218  11.458  20.269  0.00  0.00    +0.000 C 
BRANCH   4   5
ATOM      5  C   UNL     1      -0.868  12.543  20.218  0.00  0.00    +0.000 C 
ATOM      6  O   UNL     1      -1.544  12.568  21.465  0.00  0.00    +0.000 OA
ATOM      7  C   UNL     1      -1.620  13.780  22.217  0.00  0.00    +0.000 C 
ATOM      8  C   UNL     1      -0.755  14.910  21.736  0.00  0.00    +0.000 C 
ATOM      9  C   UNL     1      -0.115  14.960  20.566  0.00  0.00    +0.000 C 
ATOM     10  C   UNL     1      -0.246  13.811  19.661  0.00  0.00    +0.000 C 
ATOM     11  O   UNL     1       0.185  13.898  18.515  0.00  0.00    +0.000 OA
BRANCH   7  12
ATOM     12  C   UNL     1      -3.127  14.166  22.359  0.00  0.00    +0.000 C 
ATOM     13  C   UNL     1      -3.433  15.562  21.768  0.00  0.00    +0.000 C 
ATOM     14  C   UNL     1      -3.702  16.716  22.728  0.00  0.00    +0.000 C 
ATOM     15  C   UNL     1      -4.106  16.379  24.156  0.00  0.00    +0.000 C 
ATOM     16  C   UNL     1      -4.119  14.937  24.531  0.00  0.00    +0.000 C 
ATOM     17  C   UNL     1      -3.692  13.934  23.751  0.00  0.00    +0.000 C 
ATOM     18  C   UNL     1      -3.773  12.506  24.224  0.00  0.00    +0.000 C 
ENDBRANCH   7  12
ENDBRANCH   4   5
ENDBRANCH   3   4
ENDBRANCH   1   3
BRANCH   1  19
ATOM     19  C   UNL     1       0.930   9.144  20.578  0.00  0.00    +0.000 C 
BRANCH  19  20
ATOM     20  C   UNL     1       1.552   7.773  20.779  0.00  0.00    +0.000 C 
BRANCH  20  21
ATOM     21  C   UNL     1       2.376   7.336  19.575  0.00  0.00    +0.000 C 
BRANCH  21  22
ATOM     22  C   UNL     1       2.270   5.825  19.447  0.00  0.00    +0.000 C 
BRANCH  22  23
ATOM     23  C   UNL     1       1.892   5.153  20.760  0.00  0.00    +0.000 C 
BRANCH  23  24
ATOM     24  C   UNL     1       0.885   4.024  20.534  0.00  0.00    +0.000 C 
BRANCH  24  25
ATOM     25  C   UNL     1       1.513   2.705  20.075  0.00  0.00    +0.000 C 
BRANCH  25  27
ATOM     26  C   UNL     1       2.313   2.178  17.746  0.00  0.00    +0.000 C 
ATOM     27  C   UNL     1       1.321   2.460  18.601  0.00  0.00    +0.000 C 
BRANCH  26  28
ATOM     28  C   UNL     1       3.731   2.039  18.194  0.00  0.00    +0.000 C 
BRANCH  28  29
ATOM     29  C   UNL     1       4.492   3.352  18.169  0.00  0.00    +0.000 C 
BRANCH  29  30
ATOM     30  C   UNL     1       4.467   3.908  16.750  0.00  0.00    +0.000 C 
BRANCH  30  31
ATOM     31  C   UNL     1       4.610   5.419  16.767  0.00  0.00    +0.000 C 
BRANCH  31  32
ATOM     32  C   UNL     1       5.749   5.863  15.859  0.00  0.00    +0.000 C 
BRANCH  32  33
ATOM     33  C   UNL     1       7.087   5.633  16.552  0.00  0.00    +0.000 C 
BRANCH  33  35
ATOM     34  C   UNL     1       7.678   7.854  17.542  0.00  0.00    +0.000 C 
ATOM     35  C   UNL     1       7.191   6.446  17.837  0.00  0.00    +0.000 C 
ENDBRANCH  33  35
ENDBRANCH  32  33
ENDBRANCH  31  32
ENDBRANCH  30  31
ENDBRANCH  29  30
ENDBRANCH  28  29
ENDBRANCH  26  28
ENDBRANCH  25  27
ENDBRANCH  24  25
ENDBRANCH  23  24
ENDBRANCH  22  23
ENDBRANCH  21  22
ENDBRANCH  20  21
ENDBRANCH  19  20
ENDBRANCH   1  19
TORSDOF 19
ENDMDL
MODEL 8
REMARK VINA RESULT:      -6.4      4.625      7.805
REMARK  Name = 
REMARK  21 active torsions:
REMARK  status: ('A' for Active; 'I' for Inactive)
REMARK    1  A    between atoms: C_1  and  C_2
REMARK    2  A    between atoms: C_2  and  C_3
REMARK    3  A    between atoms: C_3  and  C_4
REMARK    4  A    between atoms: C_4  and  C_5
REMARK    5  A    between atoms: C_5  and  C_6
REMARK    6  A    between atoms: C_6  and  C_7
REMARK    7  A    between atoms: C_7  and  C_8
REMARK    8  A    between atoms: C_8  and  C_9
REMARK    9  A    between atoms: C_10  and  C_11
REMARK   10  A    between atoms: C_11  and  C_12
REMARK   11  A    between atoms: C_12  and  C_13
REMARK   12  A    between atoms: C_13  and  C_14
REMARK   13  A    between atoms: C_14  and  C_15
REMARK   14  A    between atoms: C_15  and  C_16
REMARK   15  A    between atoms: C_16  and  C_17
REMARK   16  A    between atoms: C_17  and  C_18
REMARK   17  A    between atoms: C_18  and  O_20
REMARK   18  A    between atoms: O_20  and  C_21
REMARK   19  A    between atoms: C_21  and  C_22
REMARK   20  A    between atoms: C_24  and  C_25
REMARK   21  A    between atoms: C_30  and  C_31
REMARK                            x       y       z     vdW  Elec       q    Type
REMARK                         _______ _______ _______ _____ _____    ______ ____
ROOT
ATOM      1  C   UNL     1       7.934   8.369  18.014  0.00  0.00    +0.000 C 
ATOM      2  O   UNL     1       7.600   8.561  16.853  0.00  0.00    +0.000 OA
ENDROOT
BRANCH   1   3
ATOM      3  O   UNL     1       7.401   7.430  18.845  0.00  0.00    +0.000 OA
BRANCH   3   4
ATOM      4  C   UNL     1       8.111   6.177  18.843  0.00  0.00    +0.000 C 
BRANCH   4   5
ATOM      5  C   UNL     1       7.093   5.038  18.680  0.00  0.00    +0.000 C 
ATOM      6  O   UNL     1       5.990   5.288  19.535  0.00  0.00    +0.000 OA
ATOM      7  C   UNL     1       4.666   5.355  19.001  0.00  0.00    +0.000 C 
ATOM      8  C   UNL     1       4.561   5.390  17.503  0.00  0.00    +0.000 C 
ATOM      9  C   UNL     1       5.552   5.140  16.644  0.00  0.00    +0.000 C 
ATOM     10  C   UNL     1       6.872   4.809  17.195  0.00  0.00    +0.000 C 
ATOM     11  O   UNL     1       7.754   4.407  16.441  0.00  0.00    +0.000 OA
BRANCH   7  12
ATOM     12  C   UNL     1       3.824   4.214  19.657  0.00  0.00    +0.000 C 
ATOM     13  C   UNL     1       4.238   2.813  19.148  0.00  0.00    +0.000 C 
ATOM     14  C   UNL     1       3.306   2.083  18.187  0.00  0.00    +0.000 C 
ATOM     15  C   UNL     1       1.851   2.525  18.127  0.00  0.00    +0.000 C 
ATOM     16  C   UNL     1       1.470   3.705  18.952  0.00  0.00    +0.000 C 
ATOM     17  C   UNL     1       2.326   4.472  19.644  0.00  0.00    +0.000 C 
ATOM     18  C   UNL     1       1.827   5.631  20.466  0.00  0.00    +0.000 C 
ENDBRANCH   7  12
ENDBRANCH   4   5
ENDBRANCH   3   4
ENDBRANCH   1   3
BRANCH   1  19
ATOM     19  C   UNL     1       8.924   9.201  18.784  0.00  0.00    +0.000 C 
BRANCH  19  20
ATOM     20  C   UNL     1       8.759  10.667  18.421  0.00  0.00    +0.000 C 
BRANCH  20  21
ATOM     21  C   UNL     1      10.092  11.334  18.112  0.00  0.00    +0.000 C 
BRANCH  21  22
ATOM     22  C   UNL     1      10.962  11.263  19.356  0.00  0.00    +0.000 C 
BRANCH  22  23
ATOM     23  C   UNL     1      10.341  11.987  20.543  0.00  0.00    +0.000 C 
BRANCH  23  24
ATOM     24  C   UNL     1      10.478  13.503  20.400  0.00  0.00    +0.000 C 
BRANCH  24  25
ATOM     25  C   UNL     1       9.172  14.222  20.048  0.00  0.00    +0.000 C 
BRANCH  25  27
ATOM     26  C   UNL     1       8.390  15.210  17.868  0.00  0.00    +0.000 C 
ATOM     27  C   UNL     1       9.310  15.104  18.836  0.00  0.00    +0.000 C 
BRANCH  26  28
ATOM     28  C   UNL     1       7.092  14.472  17.923  0.00  0.00    +0.000 C 
BRANCH  28  29
ATOM     29  C   UNL     1       5.912  15.369  18.248  0.00  0.00    +0.000 C 
BRANCH  29  30
ATOM     30  C   UNL     1       4.624  14.582  18.036  0.00  0.00    +0.000 C 
BRANCH  30  31
ATOM     31  C   UNL     1       3.592  14.956  19.084  0.00  0.00    +0.000 C 
BRANCH  31  32
ATOM     32  C   UNL     1       2.767  13.741  19.486  0.00  0.00    +0.000 C 
BRANCH  32  33
ATOM     33  C   UNL     1       2.046  13.174  18.268  0.00  0.00    +0.000 C 
BRANCH  33  35
ATOM     34  C   UNL     1      -0.186  14.179  18.789  0.00  0.00    +0.000 C 
ATOM     35  C   UNL     1       0.582  12.886  18.576  0.00  0.00    +0.000 C 
ENDBRANCH  33  35
ENDBRANCH  32  33
ENDBRANCH  31  32
ENDBRANCH  30  31
ENDBRANCH  29  30
ENDBRANCH  28  29
ENDBRANCH  26  28
ENDBRANCH  25  27
ENDBRANCH  24  25
ENDBRANCH  23  24
ENDBRANCH  22  23
ENDBRANCH  21  22
ENDBRANCH  20  21
ENDBRANCH  19  20
ENDBRANCH   1  19
TORSDOF 19
ENDMDL
MODEL 9
REMARK VINA RESULT:      -6.3      4.893      9.082
REMARK  Name = 
REMARK  21 active torsions:
REMARK  status: ('A' for Active; 'I' for Inactive)
REMARK    1  A    between atoms: C_1  and  C_2
REMARK    2  A    between atoms: C_2  and  C_3
REMARK    3  A    between atoms: C_3  and  C_4
REMARK    4  A    between atoms: C_4  and  C_5
REMARK    5  A    between atoms: C_5  and  C_6
REMARK    6  A    between atoms: C_6  and  C_7
REMARK    7  A    between atoms: C_7  and  C_8
REMARK    8  A    between atoms: C_8  and  C_9
REMARK    9  A    between atoms: C_10  and  C_11
REMARK   10  A    between atoms: C_11  and  C_12
REMARK   11  A    between atoms: C_12  and  C_13
REMARK   12  A    between atoms: C_13  and  C_14
REMARK   13  A    between atoms: C_14  and  C_15
REMARK   14  A    between atoms: C_15  and  C_16
REMARK   15  A    between atoms: C_16  and  C_17
REMARK   16  A    between atoms: C_17  and  C_18
REMARK   17  A    between atoms: C_18  and  O_20
REMARK   18  A    between atoms: O_20  and  C_21
REMARK   19  A    between atoms: C_21  and  C_22
REMARK   20  A    between atoms: C_24  and  C_25
REMARK   21  A    between atoms: C_30  and  C_31
REMARK                            x       y       z     vdW  Elec       q    Type
REMARK                         _______ _______ _______ _____ _____    ______ ____
ROOT
ATOM      1  C   UNL     1       7.218   6.142  17.524  0.00  0.00    +0.000 C 
ATOM      2  O   UNL     1       7.599   5.538  16.530  0.00  0.00    +0.000 OA
ENDROOT
BRANCH   1   3
ATOM      3  O   UNL     1       6.977   5.584  18.744  0.00  0.00    +0.000 OA
BRANCH   3   4
ATOM      4  C   UNL     1       6.470   4.237  18.681  0.00  0.00    +0.000 C 
BRANCH   4   5
ATOM      5  C   UNL     1       5.019   4.238  19.184  0.00  0.00    +0.000 C 
ATOM      6  O   UNL     1       4.245   5.079  18.343  0.00  0.00    +0.000 OA
ATOM      7  C   UNL     1       3.082   4.568  17.689  0.00  0.00    +0.000 C 
ATOM      8  C   UNL     1       2.890   3.080  17.753  0.00  0.00    +0.000 C 
ATOM      9  C   UNL     1       3.563   2.238  18.540  0.00  0.00    +0.000 C 
ATOM     10  C   UNL     1       4.597   2.798  19.420  0.00  0.00    +0.000 C 
ATOM     11  O   UNL     1       5.112   2.081  20.273  0.00  0.00    +0.000 OA
BRANCH   7  12
ATOM     12  C   UNL     1       1.848   5.379  18.200  0.00  0.00    +0.000 C 
ATOM     13  C   UNL     1       1.897   6.861  17.760  0.00  0.00    +0.000 C 
ATOM     14  C   UNL     1       2.226   7.920  18.806  0.00  0.00    +0.000 C 
ATOM     15  C   UNL     1       2.043   7.558  20.273  0.00  0.00    +0.000 C 
ATOM     16  C   UNL     1       1.641   6.155  20.577  0.00  0.00    +0.000 C 
ATOM     17  C   UNL     1       1.543   5.169  19.674  0.00  0.00    +0.000 C 
ATOM     18  C   UNL     1       1.104   3.789  20.089  0.00  0.00    +0.000 C 
ENDBRANCH   7  12
ENDBRANCH   4   5
ENDBRANCH   3   4
ENDBRANCH   1   3
BRANCH   1  19
ATOM     19  C   UNL     1       6.838   7.597  17.566  0.00  0.00    +0.000 C 
BRANCH  19  20
ATOM     20  C   UNL     1       8.073   8.459  17.371  0.00  0.00    +0.000 C 
BRANCH  20  21
ATOM     21  C   UNL     1       8.607   9.002  18.689  0.00  0.00    +0.000 C 
BRANCH  21  22
ATOM     22  C   UNL     1       8.843  10.495  18.531  0.00  0.00    +0.000 C 
BRANCH  22  23
ATOM     23  C   UNL     1      10.292  10.887  18.785  0.00  0.00    +0.000 C 
BRANCH  23  24
ATOM     24  C   UNL     1      10.708  12.066  17.905  0.00  0.00    +0.000 C 
BRANCH  24  25
ATOM     25  C   UNL     1       9.698  13.216  17.874  0.00  0.00    +0.000 C 
BRANCH  25  27
ATOM     26  C   UNL     1       9.715  14.666  19.933  0.00  0.00    +0.000 C 
ATOM     27  C   UNL     1      10.146  14.397  18.693  0.00  0.00    +0.000 C 
BRANCH  26  28
ATOM     28  C   UNL     1       8.754  13.774  20.649  0.00  0.00    +0.000 C 
BRANCH  28  29
ATOM     29  C   UNL     1       9.401  12.978  21.767  0.00  0.00    +0.000 C 
BRANCH  29  30
ATOM     30  C   UNL     1       8.546  11.748  22.053  0.00  0.00    +0.000 C 
BRANCH  30  31
ATOM     31  C   UNL     1       8.191  11.678  23.527  0.00  0.00    +0.000 C 
BRANCH  31  32
ATOM     32  C   UNL     1       7.641  13.013  24.013  0.00  0.00    +0.000 C 
BRANCH  32  33
ATOM     33  C   UNL     1       6.120  13.011  23.930  0.00  0.00    +0.000 C 
BRANCH  33  35
ATOM     34  C   UNL     1       5.360  14.338  21.949  0.00  0.00    +0.000 C 
ATOM     35  C   UNL     1       5.590  14.357  23.450  0.00  0.00    +0.000 C 
ENDBRANCH  33  35
ENDBRANCH  32  33
ENDBRANCH  31  32
ENDBRANCH  30  31
ENDBRANCH  29  30
ENDBRANCH  28  29
ENDBRANCH  26  28
ENDBRANCH  25  27
ENDBRANCH  24  25
ENDBRANCH  23  24
ENDBRANCH  22  23
ENDBRANCH  21  22
ENDBRANCH  20  21
ENDBRANCH  19  20
ENDBRANCH   1  19
TORSDOF 19
ENDMDL
