MODEL 1
REMARK VINA RESULT:      -7.5      0.000      0.000
REMARK  Name = 
REMARK  5 active torsions:
REMARK  status: ('A' for Active; 'I' for Inactive)
REMARK    1  A    between atoms: C_2  and  O_3
REMARK    2  A    between atoms: C_2  and  C_4
REMARK    3  A    between atoms: C_5  and  C_6
REMARK    4  A    between atoms: C_11  and  O_12
REMARK    5  A    between atoms: O_12  and  C_13
REMARK                            x       y       z     vdW  Elec       q    Type
REMARK                         _______ _______ _______ _____ _____    ______ ____
ROOT
ATOM      1  C   UNL     1       5.796   4.484  16.531  0.00  0.00    +0.000 A 
ATOM      2  C   UNL     1       7.179   4.532  16.790  0.00  0.00    +0.000 A 
ATOM      3  C   UNL     1       7.681   5.002  18.006  0.00  0.00    +0.000 A 
ATOM      4  C   UNL     1       6.803   5.456  18.985  0.00  0.00    +0.000 A 
ATOM      5  C   UNL     1       5.431   5.435  18.747  0.00  0.00    +0.000 A 
ATOM      6  C   UNL     1       4.919   4.940  17.537  0.00  0.00    +0.000 A 
ENDROOT
BRANCH   1   8
ATOM      7  C   UNL     1       6.175   3.964  14.141  0.00  0.00    +0.000 C 
ATOM      8  C   UNL     1       5.346   4.025  15.198  0.00  0.00    +0.000 C 
BRANCH   7  10
ATOM      9  O   UNL     1       4.726   3.664  12.308  0.00  0.00    +0.000 OA
ATOM     10  C   UNL     1       5.838   3.500  12.783  0.00  0.00    +0.000 C 
BRANCH  10  11
ATOM     11  O   UNL     1       6.816   2.825  12.156  0.00  0.00    +0.000 OA
ATOM     12  H   UNL     1       6.600   1.897  11.955  0.00  0.00    +0.000 HD
ENDBRANCH  10  11
ENDBRANCH   7  10
ENDBRANCH   1   8
BRANCH   6  13
ATOM     13  O   UNL     1       3.551   5.072  17.416  0.00  0.00    +0.000 OA
BRANCH  13  14
ATOM     14  C   UNL     1       2.694   4.265  18.127  0.00  0.00    +0.000 A 
ATOM     15  C   UNL     1       2.404   2.932  17.837  0.00  0.00    +0.000 A 
ATOM     16  C   UNL     1       1.428   2.255  18.572  0.00  0.00    +0.000 A 
ATOM     17  C   UNL     1       0.789   2.886  19.638  0.00  0.00    +0.000 A 
ATOM     18  C   UNL     1       1.136   4.191  19.984  0.00  0.00    +0.000 A 
ATOM     19  C   UNL     1       2.086   4.879  19.227  0.00  0.00    +0.000 A 
ENDBRANCH  13  14
ENDBRANCH   6  13
TORSDOF 5
ENDMDL
MODEL 2
REMARK VINA RESULT:      -7.5      2.735      4.586
REMARK  Name = 
REMARK  5 active torsions:
REMARK  status: ('A' for Active; 'I' for Inactive)
REMARK    1  A    between atoms: C_2  and  O_3
REMARK    2  A    between atoms: C_2  and  C_4
REMARK    3  A    between atoms: C_5  and  C_6
REMARK    4  A    between atoms: C_11  and  O_12
REMARK    5  A    between atoms: O_12  and  C_13
REMARK                            x       y       z     vdW  Elec       q    Type
REMARK                         _______ _______ _______ _____ _____    ______ ____
ROOT
ATOM      1  C   UNL     1       3.742   4.063  18.257  0.00  0.00    +0.000 A 
ATOM      2  C   UNL     1       3.375   2.815  17.718  0.00  0.00    +0.000 A 
ATOM      3  C   UNL     1       2.108   2.267  17.933  0.00  0.00    +0.000 A 
ATOM      4  C   UNL     1       1.184   2.951  18.715  0.00  0.00    +0.000 A 
ATOM      5  C   UNL     1       1.528   4.180  19.275  0.00  0.00    +0.000 A 
ATOM      6  C   UNL     1       2.790   4.749  19.041  0.00  0.00    +0.000 A 
ENDROOT
BRANCH   1   8
ATOM      7  C   UNL     1       5.823   4.231  16.928  0.00  0.00    +0.000 C 
ATOM      8  C   UNL     1       5.120   4.550  18.030  0.00  0.00    +0.000 C 
BRANCH   7  10
ATOM      9  O   UNL     1       8.165   4.253  17.183  0.00  0.00    +0.000 OA
ATOM     10  C   UNL     1       7.186   4.681  16.592  0.00  0.00    +0.000 C 
BRANCH  10  11
ATOM     11  O   UNL     1       7.251   5.641  15.655  0.00  0.00    +0.000 OA
ATOM     12  H   UNL     1       6.426   6.143  15.534  0.00  0.00    +0.000 HD
ENDBRANCH  10  11
ENDBRANCH   7  10
ENDBRANCH   1   8
BRANCH   6  13
ATOM     13  O   UNL     1       3.011   5.919  19.737  0.00  0.00    +0.000 OA
BRANCH  13  14
ATOM     14  C   UNL     1       2.418   7.098  19.351  0.00  0.00    +0.000 A 
ATOM     15  C   UNL     1       2.466   7.651  18.071  0.00  0.00    +0.000 A 
ATOM     16  C   UNL     1       1.915   8.913  17.837  0.00  0.00    +0.000 A 
ATOM     17  C   UNL     1       1.258   9.593  18.861  0.00  0.00    +0.000 A 
ATOM     18  C   UNL     1       1.135   9.007  20.119  0.00  0.00    +0.000 A 
ATOM     19  C   UNL     1       1.716   7.761  20.363  0.00  0.00    +0.000 A 
ENDBRANCH  13  14
ENDBRANCH   6  13
TORSDOF 5
ENDMDL
MODEL 3
REMARK VINA RESULT:      -7.4      0.256      1.161
REMARK  Name = 
REMARK  5 active torsions:
REMARK  status: ('A' for Active; 'I' for Inactive)
REMARK    1  A    between atoms: C_2  and  O_3
REMARK    2  A    between atoms: C_2  and  C_4
REMARK    3  A    between atoms: C_5  and  C_6
REMARK    4  A    between atoms: C_11  and  O_12
REMARK    5  A    between atoms: O_12  and  C_13
REMARK                            x       y       z     vdW  Elec       q    Type
REMARK                         _______ _______ _______ _____ _____    ______ ____
ROOT
ATOM      1  C   UNL     1       5.749   4.616  16.447  0.00  0.00    +0.000 A 
ATOM      2  C   UNL     1       7.126   4.573  16.737  0.00  0.00    +0.000 A 
ATOM      3  C   UNL     1       7.620   4.906  18.001  0.00  0.00    +0.000 A 
ATOM      4  C   UNL     1       6.741   5.311  19.000  0.00  0.00    +0.000 A 
ATOM      5  C   UNL     1       5.375   5.379  18.734  0.00  0.00    +0.000 A 
ATOM      6  C   UNL     1       4.870   5.022  17.474  0.00  0.00    +0.000 A 
ENDROOT
BRANCH   1   8
ATOM      7  C   UNL     1       6.176   3.953  14.101  0.00  0.00    +0.000 C 
ATOM      8  C   UNL     1       5.310   4.302  15.070  0.00  0.00    +0.000 C 
BRANCH   7  10
ATOM      9  O   UNL     1       4.690   3.458  12.343  0.00  0.00    +0.000 OA
ATOM     10  C   UNL     1       5.845   3.597  12.710  0.00  0.00    +0.000 C 
BRANCH  10  11
ATOM     11  O   UNL     1       6.905   3.365  11.917  0.00  0.00    +0.000 OA
ATOM     12  H   UNL     1       7.759   3.640  12.294  0.00  0.00    +0.000 HD
ENDBRANCH  10  11
ENDBRANCH   7  10
ENDBRANCH   1   8
BRANCH   6  13
ATOM     13  O   UNL     1       3.514   5.231  17.338  0.00  0.00    +0.000 OA
BRANCH  13  14
ATOM     14  C   UNL     1       2.611   4.588  18.153  0.00  0.00    +0.000 A 
ATOM     15  C   UNL     1       2.079   5.098  19.338  0.00  0.00    +0.000 A 
ATOM     16  C   UNL     1       1.256   4.297  20.133  0.00  0.00    +0.000 A 
ATOM     17  C   UNL     1       0.910   3.013  19.714  0.00  0.00    +0.000 A 
ATOM     18  C   UNL     1       1.373   2.531  18.491  0.00  0.00    +0.000 A 
ATOM     19  C   UNL     1       2.224   3.318  17.714  0.00  0.00    +0.000 A 
ENDBRANCH  13  14
ENDBRANCH   6  13
TORSDOF 5
ENDMDL
MODEL 4
REMARK VINA RESULT:      -7.4      3.225      5.377
REMARK  Name = 
REMARK  5 active torsions:
REMARK  status: ('A' for Active; 'I' for Inactive)
REMARK    1  A    between atoms: C_2  and  O_3
REMARK    2  A    between atoms: C_2  and  C_4
REMARK    3  A    between atoms: C_5  and  C_6
REMARK    4  A    between atoms: C_11  and  O_12
REMARK    5  A    between atoms: O_12  and  C_13
REMARK                            x       y       z     vdW  Elec       q    Type
REMARK                         _______ _______ _______ _____ _____    ______ ____
ROOT
ATOM      1  C   UNL     1       3.810   4.588  18.254  0.00  0.00    +0.000 A 
ATOM      2  C   UNL     1       3.634   3.414  17.496  0.00  0.00    +0.000 A 
ATOM      3  C   UNL     1       2.429   2.706  17.511  0.00  0.00    +0.000 A 
ATOM      4  C   UNL     1       1.379   3.149  18.307  0.00  0.00    +0.000 A 
ATOM      5  C   UNL     1       1.534   4.298  19.081  0.00  0.00    +0.000 A 
ATOM      6  C   UNL     1       2.733   5.028  19.050  0.00  0.00    +0.000 A 
ENDROOT
BRANCH   1   8
ATOM      7  C   UNL     1       6.022   5.120  19.228  0.00  0.00    +0.000 C 
ATOM      8  C   UNL     1       5.134   5.250  18.227  0.00  0.00    +0.000 C 
BRANCH   7  10
ATOM      9  O   UNL     1       7.841   6.333  18.351  0.00  0.00    +0.000 OA
ATOM     10  C   UNL     1       7.371   5.712  19.290  0.00  0.00    +0.000 C 
BRANCH  10  11
ATOM     11  O   UNL     1       8.055   5.446  20.416  0.00  0.00    +0.000 OA
ATOM     12  H   UNL     1       9.010   5.311  20.285  0.00  0.00    +0.000 HD
ENDBRANCH  10  11
ENDBRANCH   7  10
ENDBRANCH   1   8
BRANCH   6  13
ATOM     13  O   UNL     1       2.764   6.083  19.938  0.00  0.00    +0.000 OA
BRANCH  13  14
ATOM     14  C   UNL     1       2.222   7.304  19.610  0.00  0.00    +0.000 A 
ATOM     15  C   UNL     1       1.531   8.147  20.480  0.00  0.00    +0.000 A 
ATOM     16  C   UNL     1       0.932   9.311  19.993  0.00  0.00    +0.000 A 
ATOM     17  C   UNL     1       1.078   9.668  18.654  0.00  0.00    +0.000 A 
ATOM     18  C   UNL     1       1.837   8.871  17.799  0.00  0.00    +0.000 A 
ATOM     19  C   UNL     1       2.407   7.690  18.279  0.00  0.00    +0.000 A 
ENDBRANCH  13  14
ENDBRANCH   6  13
TORSDOF 5
ENDMDL
MODEL 5
REMARK VINA RESULT:      -7.3      2.725      4.760
REMARK  Name = 
REMARK  5 active torsions:
REMARK  status: ('A' for Active; 'I' for Inactive)
REMARK    1  A    between atoms: C_2  and  O_3
REMARK    2  A    between atoms: C_2  and  C_4
REMARK    3  A    between atoms: C_5  and  C_6
REMARK    4  A    between atoms: C_11  and  O_12
REMARK    5  A    between atoms: O_12  and  C_13
REMARK                            x       y       z     vdW  Elec       q    Type
REMARK                         _______ _______ _______ _____ _____    ______ ____
ROOT
ATOM      1  C   UNL     1       3.006   4.291  18.024  0.00  0.00    +0.000 A 
ATOM      2  C   UNL     1       2.503   3.010  17.726  0.00  0.00    +0.000 A 
ATOM      3  C   UNL     1       1.505   2.415  18.502  0.00  0.00    +0.000 A 
ATOM      4  C   UNL     1       1.003   3.086  19.612  0.00  0.00    +0.000 A 
ATOM      5  C   UNL     1       1.497   4.347  19.940  0.00  0.00    +0.000 A 
ATOM      6  C   UNL     1       2.482   4.961  19.149  0.00  0.00    +0.000 A 
ENDROOT
BRANCH   1   8
ATOM      7  C   UNL     1       5.398   4.633  17.487  0.00  0.00    +0.000 C 
ATOM      8  C   UNL     1       4.102   4.828  17.187  0.00  0.00    +0.000 C 
BRANCH   7  10
ATOM      9  O   UNL     1       6.448   5.926  15.822  0.00  0.00    +0.000 OA
ATOM     10  C   UNL     1       6.561   5.099  16.712  0.00  0.00    +0.000 C 
BRANCH  10  11
ATOM     11  O   UNL     1       7.722   4.490  17.009  0.00  0.00    +0.000 OA
ATOM     12  H   UNL     1       7.687   3.916  17.794  0.00  0.00    +0.000 HD
ENDBRANCH  10  11
ENDBRANCH   7  10
ENDBRANCH   1   8
BRANCH   6  13
ATOM     13  O   UNL     1       2.932   6.163  19.655  0.00  0.00    +0.000 OA
BRANCH  13  14
ATOM     14  C   UNL     1       2.304   7.345  19.340  0.00  0.00    +0.000 A 
ATOM     15  C   UNL     1       2.297   7.953  18.083  0.00  0.00    +0.000 A 
ATOM     16  C   UNL     1       1.716   9.212  17.922  0.00  0.00    +0.000 A 
ATOM     17  C   UNL     1       1.085   9.837  18.997  0.00  0.00    +0.000 A 
ATOM     18  C   UNL     1       1.017   9.197  20.233  0.00  0.00    +0.000 A 
ATOM     19  C   UNL     1       1.629   7.953  20.402  0.00  0.00    +0.000 A 
ENDBRANCH  13  14
ENDBRANCH   6  13
TORSDOF 5
ENDMDL
MODEL 6
REMARK VINA RESULT:      -7.3      3.102      5.144
REMARK  Name = 
REMARK  5 active torsions:
REMARK  status: ('A' for Active; 'I' for Inactive)
REMARK    1  A    between atoms: C_2  and  O_3
REMARK    2  A    between atoms: C_2  and  C_4
REMARK    3  A    between atoms: C_5  and  C_6
REMARK    4  A    between atoms: C_11  and  O_12
REMARK    5  A    between atoms: O_12  and  C_13
REMARK                            x       y       z     vdW  Elec       q    Type
REMARK                         _______ _______ _______ _____ _____    ______ ____
ROOT
ATOM      1  C   UNL     1       4.196   3.967  18.182  0.00  0.00    +0.000 A 
ATOM      2  C   UNL     1       3.965   2.630  18.557  0.00  0.00    +0.000 A 
ATOM      3  C   UNL     1       2.677   2.087  18.581  0.00  0.00    +0.000 A 
ATOM      4  C   UNL     1       1.587   2.883  18.248  0.00  0.00    +0.000 A 
ATOM      5  C   UNL     1       1.787   4.215  17.890  0.00  0.00    +0.000 A 
ATOM      6  C   UNL     1       3.080   4.759  17.839  0.00  0.00    +0.000 A 
ENDROOT
BRANCH   1   8
ATOM      7  C   UNL     1       6.049   5.179  19.287  0.00  0.00    +0.000 C 
ATOM      8  C   UNL     1       5.581   4.483  18.235  0.00  0.00    +0.000 C 
BRANCH   7  10
ATOM      9  O   UNL     1       7.975   6.323  18.557  0.00  0.00    +0.000 OA
ATOM     10  C   UNL     1       7.413   5.713  19.453  0.00  0.00    +0.000 C 
BRANCH  10  11
ATOM     11  O   UNL     1       8.002   5.409  20.621  0.00  0.00    +0.000 OA
ATOM     12  H   UNL     1       7.544   5.756  21.407  0.00  0.00    +0.000 HD
ENDBRANCH  10  11
ENDBRANCH   7  10
ENDBRANCH   1   8
BRANCH   6  13
ATOM     13  O   UNL     1       3.105   6.109  17.559  0.00  0.00    +0.000 OA
BRANCH  13  14
ATOM     14  C   UNL     1       2.549   7.024  18.423  0.00  0.00    +0.000 A 
ATOM     15  C   UNL     1       2.378   6.846  19.796  0.00  0.00    +0.000 A 
ATOM     16  C   UNL     1       1.696   7.809  20.544  0.00  0.00    +0.000 A 
ATOM     17  C   UNL     1       1.243   8.978  19.936  0.00  0.00    +0.000 A 
ATOM     18  C   UNL     1       1.485   9.198  18.581  0.00  0.00    +0.000 A 
ATOM     19  C   UNL     1       2.135   8.219  17.827  0.00  0.00    +0.000 A 
ENDBRANCH  13  14
ENDBRANCH   6  13
TORSDOF 5
ENDMDL
MODEL 7
REMARK VINA RESULT:      -7.3      3.198      5.303
REMARK  Name = 
REMARK  5 active torsions:
REMARK  status: ('A' for Active; 'I' for Inactive)
REMARK    1  A    between atoms: C_2  and  O_3
REMARK    2  A    between atoms: C_2  and  C_4
REMARK    3  A    between atoms: C_5  and  C_6
REMARK    4  A    between atoms: C_11  and  O_12
REMARK    5  A    between atoms: O_12  and  C_13
REMARK                            x       y       z     vdW  Elec       q    Type
REMARK                         _______ _______ _______ _____ _____    ______ ____
ROOT
ATOM      1  C   UNL     1       3.619   4.260  18.424  0.00  0.00    +0.000 A 
ATOM      2  C   UNL     1       3.404   3.010  17.814  0.00  0.00    +0.000 A 
ATOM      3  C   UNL     1       2.205   2.312  17.977  0.00  0.00    +0.000 A 
ATOM      4  C   UNL     1       1.199   2.845  18.776  0.00  0.00    +0.000 A 
ATOM      5  C   UNL     1       1.394   4.072  19.406  0.00  0.00    +0.000 A 
ATOM      6  C   UNL     1       2.587   4.791  19.226  0.00  0.00    +0.000 A 
ENDROOT
BRANCH   1   8
ATOM      7  C   UNL     1       5.809   5.053  19.263  0.00  0.00    +0.000 C 
ATOM      8  C   UNL     1       4.936   4.911  18.249  0.00  0.00    +0.000 C 
BRANCH   7  10
ATOM      9  O   UNL     1       7.551   6.210  18.179  0.00  0.00    +0.000 OA
ATOM     10  C   UNL     1       7.150   5.659  19.192  0.00  0.00    +0.000 C 
BRANCH  10  11
ATOM     11  O   UNL     1       7.909   5.487  20.288  0.00  0.00    +0.000 OA
ATOM     12  H   UNL     1       8.865   5.436  20.113  0.00  0.00    +0.000 HD
ENDBRANCH  10  11
ENDBRANCH   7  10
ENDBRANCH   1   8
BRANCH   6  13
ATOM     13  O   UNL     1       2.664   5.939  19.986  0.00  0.00    +0.000 OA
BRANCH  13  14
ATOM     14  C   UNL     1       2.205   7.142  19.505  0.00  0.00    +0.000 A 
ATOM     15  C   UNL     1       2.355   7.605  18.197  0.00  0.00    +0.000 A 
ATOM     16  C   UNL     1       1.941   8.897  17.864  0.00  0.00    +0.000 A 
ATOM     17  C   UNL     1       1.317   9.701  18.816  0.00  0.00    +0.000 A 
ATOM     18  C   UNL     1       1.090   9.212  20.101  0.00  0.00    +0.000 A 
ATOM     19  C   UNL     1       1.536   7.934  20.443  0.00  0.00    +0.000 A 
ENDBRANCH  13  14
ENDBRANCH   6  13
TORSDOF 5
ENDMDL
MODEL 8
REMARK VINA RESULT:      -7.2      2.668      4.760
REMARK  Name = 
REMARK  5 active torsions:
REMARK  status: ('A' for Active; 'I' for Inactive)
REMARK    1  A    between atoms: C_2  and  O_3
REMARK    2  A    between atoms: C_2  and  C_4
REMARK    3  A    between atoms: C_5  and  C_6
REMARK    4  A    between atoms: C_11  and  O_12
REMARK    5  A    between atoms: O_12  and  C_13
REMARK                            x       y       z     vdW  Elec       q    Type
REMARK                         _______ _______ _______ _____ _____    ______ ____
ROOT
ATOM      1  C   UNL     1       2.725   4.397  18.116  0.00  0.00    +0.000 A 
ATOM      2  C   UNL     1       2.153   3.134  17.872  0.00  0.00    +0.000 A 
ATOM      3  C   UNL     1       1.230   2.565  18.754  0.00  0.00    +0.000 A 
ATOM      4  C   UNL     1       0.876   3.244  19.915  0.00  0.00    +0.000 A 
ATOM      5  C   UNL     1       1.442   4.488  20.188  0.00  0.00    +0.000 A 
ATOM      6  C   UNL     1       2.351   5.076  19.294  0.00  0.00    +0.000 A 
ENDROOT
BRANCH   1   8
ATOM      7  C   UNL     1       4.621   4.098  16.553  0.00  0.00    +0.000 C 
ATOM      8  C   UNL     1       3.736   4.907  17.163  0.00  0.00    +0.000 C 
BRANCH   7  10
ATOM      9  O   UNL     1       6.252   3.669  14.908  0.00  0.00    +0.000 OA
ATOM     10  C   UNL     1       5.647   4.496  15.573  0.00  0.00    +0.000 C 
BRANCH  10  11
ATOM     11  O   UNL     1       5.912   5.812  15.531  0.00  0.00    +0.000 OA
ATOM     12  H   UNL     1       5.406   6.346  16.169  0.00  0.00    +0.000 HD
ENDBRANCH  10  11
ENDBRANCH   7  10
ENDBRANCH   1   8
BRANCH   6  13
ATOM     13  O   UNL     1       2.891   6.261  19.749  0.00  0.00    +0.000 OA
BRANCH  13  14
ATOM     14  C   UNL     1       2.226   7.454  19.587  0.00  0.00    +0.000 A 
ATOM     15  C   UNL     1       1.509   8.126  20.578  0.00  0.00    +0.000 A 
ATOM     16  C   UNL     1       0.783   9.274  20.255  0.00  0.00    +0.000 A 
ATOM     17  C   UNL     1       0.825   9.790  18.961  0.00  0.00    +0.000 A 
ATOM     18  C   UNL     1       1.606   9.168  17.989  0.00  0.00    +0.000 A 
ATOM     19  C   UNL     1       2.304   8.001  18.303  0.00  0.00    +0.000 A 
ENDBRANCH  13  14
ENDBRANCH   6  13
TORSDOF 5
ENDMDL
MODEL 9
REMARK VINA RESULT:      -7.2      1.076      1.481
REMARK  Name = 
REMARK  5 active torsions:
REMARK  status: ('A' for Active; 'I' for Inactive)
REMARK    1  A    between atoms: C_2  and  O_3
REMARK    2  A    between atoms: C_2  and  C_4
REMARK    3  A    between atoms: C_5  and  C_6
REMARK    4  A    between atoms: C_11  and  O_12
REMARK    5  A    between atoms: O_12  and  C_13
REMARK                            x       y       z     vdW  Elec       q    Type
REMARK                         _______ _______ _______ _____ _____    ______ ____
ROOT
ATOM      1  C   UNL     1       6.126   5.042  16.235  0.00  0.00    +0.000 A 
ATOM      2  C   UNL     1       6.968   6.081  16.676  0.00  0.00    +0.000 A 
ATOM      3  C   UNL     1       7.219   6.293  18.034  0.00  0.00    +0.000 A 
ATOM      4  C   UNL     1       6.611   5.479  18.984  0.00  0.00    +0.000 A 
ATOM      5  C   UNL     1       5.759   4.456  18.574  0.00  0.00    +0.000 A 
ATOM      6  C   UNL     1       5.523   4.220  17.210  0.00  0.00    +0.000 A 
ENDROOT
BRANCH   1   8
ATOM      7  C   UNL     1       6.405   3.934  14.039  0.00  0.00    +0.000 C 
ATOM      8  C   UNL     1       5.866   4.916  14.783  0.00  0.00    +0.000 C 
BRANCH   7  10
ATOM      9  O   UNL     1       5.202   3.125  12.183  0.00  0.00    +0.000 OA
ATOM     10  C   UNL     1       6.193   3.703  12.599  0.00  0.00    +0.000 C 
BRANCH  10  11
ATOM     11  O   UNL     1       7.202   4.102  11.806  0.00  0.00    +0.000 OA
ATOM     12  H   UNL     1       8.082   3.794  12.086  0.00  0.00    +0.000 HD
ENDBRANCH  10  11
ENDBRANCH   7  10
ENDBRANCH   1   8
BRANCH   6  13
ATOM     13  O   UNL     1       4.587   3.236  16.969  0.00  0.00    +0.000 OA
BRANCH  13  14
ATOM     14  C   UNL     1       3.373   3.237  17.615  0.00  0.00    +0.000 A 
ATOM     15  C   UNL     1       2.453   4.285  17.615  0.00  0.00    +0.000 A 
ATOM     16  C   UNL     1       1.303   4.203  18.405  0.00  0.00    +0.000 A 
ATOM     17  C   UNL     1       1.039   3.050  19.142  0.00  0.00    +0.000 A 
ATOM     18  C   UNL     1       1.915   1.968  19.079  0.00  0.00    +0.000 A 
ATOM     19  C   UNL     1       3.081   2.064  18.318  0.00  0.00    +0.000 A 
ENDBRANCH  13  14
ENDBRANCH   6  13
TORSDOF 5
ENDMDL
