MODEL 1
REMARK VINA RESULT:      -8.5      0.000      0.000
REMARK  Name = 
REMARK  7 active torsions:
REMARK  status: ('A' for Active; 'I' for Inactive)
REMARK    1  A    between atoms: C_1  and  O_2
REMARK    2  A    between atoms: O_2  and  C_3
REMARK    3  A    between atoms: C_8  and  N_9
REMARK    4  A    between atoms: N_9  and  S_10
REMARK    5  A    between atoms: S_10  and  C_13
REMARK    6  A    between atoms: C_17  and  N_18
REMARK    7  A    between atoms: N_21  and  C_22
REMARK                            x       y       z     vdW  Elec       q    Type
REMARK                         _______ _______ _______ _____ _____    ______ ____
ROOT
ATOM      1  C   UNL     1       5.330   4.091  17.377  0.00  0.00    +0.000 A 
ATOM      2  C   UNL     1       5.517   3.996  16.000  0.00  0.00    +0.000 A 
ATOM      3  C   UNL     1       6.439   4.823  15.375  0.00  0.00    +0.000 A 
ATOM      4  C   UNL     1       7.203   5.714  16.133  0.00  0.00    +0.000 A 
ATOM      5  C   UNL     1       7.052   5.795  17.523  0.00  0.00    +0.000 A 
ATOM      6  C   UNL     1       6.107   4.972  18.146  0.00  0.00    +0.000 A 
ENDROOT
BRANCH   5   7
ATOM      7  N   UNL     1       7.821   6.657  18.335  0.00  0.00    +0.000 N 
ATOM      8  C   UNL     1       7.964   8.025  18.163  0.00  0.00    +0.000 C 
ATOM      9  O   UNL     1       7.347   8.699  17.341  0.00  0.00    +0.000 OA
ATOM     10  N   UNL     1       8.917   8.552  19.022  0.00  0.00    +0.000 N 
ATOM     11  H   UNL     1       8.167   6.282  19.208  0.00  0.00    +0.000 HD
ATOM     12  H   UNL     1       9.693   7.934  19.217  0.00  0.00    +0.000 HD
BRANCH  10  13
ATOM     13  C   UNL     1       9.191   9.938  19.039  0.00  0.00    +0.000 A 
ATOM     14  C   UNL     1       9.468  10.643  17.860  0.00  0.00    +0.000 A 
ATOM     15  C   UNL     1       9.800  11.998  17.907  0.00  0.00    +0.000 A 
ATOM     16  C   UNL     1       9.862  12.645  19.137  0.00  0.00    +0.000 A 
ATOM     17 CL   UNL     1      10.307  14.306  19.207  0.00  0.00    +0.000 Cl
ATOM     18  C   UNL     1       9.569  11.957  20.315  0.00  0.00    +0.000 A 
ATOM     19  C   UNL     1       9.208  10.607  20.265  0.00  0.00    +0.000 A 
ENDBRANCH  10  13
ENDBRANCH   5   7
BRANCH   1  20
ATOM     20  S   UNL     1       4.099   3.108  18.195  0.00  0.00    +0.000 S 
ATOM     21  O   UNL     1       4.448   3.066  19.601  0.00  0.00    +0.000 OA
ATOM     22  O   UNL     1       3.982   1.893  17.417  0.00  0.00    +0.000 OA
BRANCH  20  23
ATOM     23  N   UNL     1       2.652   3.939  17.985  0.00  0.00    +0.000 N 
ATOM     24  H   UNL     1       1.898   3.404  17.563  0.00  0.00    +0.000 HD
BRANCH  23  30
ATOM     25  C   UNL     1       1.665   4.840  20.053  0.00  0.00    +0.000 A 
ATOM     26  C   UNL     1       1.319   5.950  20.831  0.00  0.00    +0.000 A 
ATOM     27  C   UNL     1       1.717   7.232  20.448  0.00  0.00    +0.000 A 
ATOM     28  C   UNL     1       2.466   7.415  19.289  0.00  0.00    +0.000 A 
ATOM     29  C   UNL     1       2.767   6.322  18.479  0.00  0.00    +0.000 A 
ATOM     30  C   UNL     1       2.319   5.043  18.825  0.00  0.00    +0.000 A 
BRANCH  25  32
ATOM     31  C   UNL     1       1.775   3.155  21.737  0.00  0.00    +0.000 C 
ATOM     32  O   UNL     1       1.414   3.542  20.417  0.00  0.00    +0.000 OA
ENDBRANCH  25  32
ENDBRANCH  23  30
ENDBRANCH  20  23
ENDBRANCH   1  20
TORSDOF 6
ENDMDL
MODEL 2
REMARK VINA RESULT:      -8.2      1.861      2.806
REMARK  Name = 
REMARK  7 active torsions:
REMARK  status: ('A' for Active; 'I' for Inactive)
REMARK    1  A    between atoms: C_1  and  O_2
REMARK    2  A    between atoms: O_2  and  C_3
REMARK    3  A    between atoms: C_8  and  N_9
REMARK    4  A    between atoms: N_9  and  S_10
REMARK    5  A    between atoms: S_10  and  C_13
REMARK    6  A    between atoms: C_17  and  N_18
REMARK    7  A    between atoms: N_21  and  C_22
REMARK                            x       y       z     vdW  Elec       q    Type
REMARK                         _______ _______ _______ _____ _____    ______ ____
ROOT
ATOM      1  C   UNL     1       6.102   5.679  17.639  0.00  0.00    +0.000 A 
ATOM      2  C   UNL     1       6.762   5.023  18.675  0.00  0.00    +0.000 A 
ATOM      3  C   UNL     1       7.843   5.634  19.295  0.00  0.00    +0.000 A 
ATOM      4  C   UNL     1       8.235   6.917  18.907  0.00  0.00    +0.000 A 
ATOM      5  C   UNL     1       7.559   7.604  17.891  0.00  0.00    +0.000 A 
ATOM      6  C   UNL     1       6.482   6.976  17.256  0.00  0.00    +0.000 A 
ENDROOT
BRANCH   5   7
ATOM      7  N   UNL     1       7.898   8.913  17.485  0.00  0.00    +0.000 N 
ATOM      8  C   UNL     1       8.647   9.823  18.215  0.00  0.00    +0.000 C 
ATOM      9  O   UNL     1       9.216   9.576  19.275  0.00  0.00    +0.000 OA
ATOM     10  N   UNL     1       8.659  11.073  17.615  0.00  0.00    +0.000 N 
ATOM     11  H   UNL     1       7.725   9.156  16.520  0.00  0.00    +0.000 HD
ATOM     12  H   UNL     1       7.802  11.318  17.137  0.00  0.00    +0.000 HD
BRANCH  10  13
ATOM     13  C   UNL     1       9.398  12.140  18.175  0.00  0.00    +0.000 A 
ATOM     14  C   UNL     1      10.797  12.174  18.110  0.00  0.00    +0.000 A 
ATOM     15  C   UNL     1      11.510  13.203  18.726  0.00  0.00    +0.000 A 
ATOM     16  C   UNL     1      10.820  14.196  19.415  0.00  0.00    +0.000 A 
ATOM     17 CL   UNL     1      11.692  15.448  20.211  0.00  0.00    +0.000 Cl
ATOM     18  C   UNL     1       9.426  14.182  19.470  0.00  0.00    +0.000 A 
ATOM     19  C   UNL     1       8.712  13.166  18.828  0.00  0.00    +0.000 A 
ENDBRANCH  10  13
ENDBRANCH   5   7
BRANCH   1  20
ATOM     20  S   UNL     1       4.771   4.890  16.768  0.00  0.00    +0.000 S 
ATOM     21  O   UNL     1       4.810   3.483  17.109  0.00  0.00    +0.000 OA
ATOM     22  O   UNL     1       4.883   5.330  15.393  0.00  0.00    +0.000 OA
BRANCH  20  23
ATOM     23  N   UNL     1       3.366   5.592  17.370  0.00  0.00    +0.000 N 
ATOM     24  H   UNL     1       2.949   6.308  16.782  0.00  0.00    +0.000 HD
BRANCH  23  30
ATOM     25  C   UNL     1       2.283   5.366  19.570  0.00  0.00    +0.000 A 
ATOM     26  C   UNL     1       1.488   4.617  20.443  0.00  0.00    +0.000 A 
ATOM     27  C   UNL     1       0.854   3.455  19.999  0.00  0.00    +0.000 A 
ATOM     28  C   UNL     1       1.005   3.037  18.680  0.00  0.00    +0.000 A 
ATOM     29  C   UNL     1       1.841   3.746  17.819  0.00  0.00    +0.000 A 
ATOM     30  C   UNL     1       2.527   4.876  18.275  0.00  0.00    +0.000 A 
BRANCH  25  32
ATOM     31  C   UNL     1       1.970   7.689  20.012  0.00  0.00    +0.000 C 
ATOM     32  O   UNL     1       2.845   6.575  19.894  0.00  0.00    +0.000 OA
ENDBRANCH  25  32
ENDBRANCH  23  30
ENDBRANCH  20  23
ENDBRANCH   1  20
TORSDOF 6
ENDMDL
MODEL 3
REMARK VINA RESULT:      -8.1      2.124      3.254
REMARK  Name = 
REMARK  7 active torsions:
REMARK  status: ('A' for Active; 'I' for Inactive)
REMARK    1  A    between atoms: C_1  and  O_2
REMARK    2  A    between atoms: O_2  and  C_3
REMARK    3  A    between atoms: C_8  and  N_9
REMARK    4  A    between atoms: N_9  and  S_10
REMARK    5  A    between atoms: S_10  and  C_13
REMARK    6  A    between atoms: C_17  and  N_18
REMARK    7  A    between atoms: N_21  and  C_22
REMARK                            x       y       z     vdW  Elec       q    Type
REMARK                         _______ _______ _______ _____ _____    ______ ____
ROOT
ATOM      1  C   UNL     1       6.532   5.978  17.347  0.00  0.00    +0.000 A 
ATOM      2  C   UNL     1       7.075   5.295  18.433  0.00  0.00    +0.000 A 
ATOM      3  C   UNL     1       8.022   5.920  19.231  0.00  0.00    +0.000 A 
ATOM      4  C   UNL     1       8.393   7.241  18.968  0.00  0.00    +0.000 A 
ATOM      5  C   UNL     1       7.830   7.952  17.901  0.00  0.00    +0.000 A 
ATOM      6  C   UNL     1       6.889   7.311  17.088  0.00  0.00    +0.000 A 
ENDROOT
BRANCH   5   7
ATOM      7  N   UNL     1       8.150   9.297  17.614  0.00  0.00    +0.000 N 
ATOM      8  C   UNL     1       8.863  10.156  18.435  0.00  0.00    +0.000 C 
ATOM      9  O   UNL     1       9.414   9.832  19.485  0.00  0.00    +0.000 OA
ATOM     10  N   UNL     1       8.862  11.453  17.942  0.00  0.00    +0.000 N 
ATOM     11  H   UNL     1       7.993   9.617  16.669  0.00  0.00    +0.000 HD
ATOM     12  H   UNL     1       8.011  11.720  17.466  0.00  0.00    +0.000 HD
BRANCH  10  13
ATOM     13  C   UNL     1       9.566  12.482  18.607  0.00  0.00    +0.000 A 
ATOM     14  C   UNL     1       9.008  13.162  19.699  0.00  0.00    +0.000 A 
ATOM     15  C   UNL     1       9.693  14.219  20.299  0.00  0.00    +0.000 A 
ATOM     16  C   UNL     1      10.935  14.601  19.801  0.00  0.00    +0.000 A 
ATOM     17 CL   UNL     1      11.770  15.928  20.512  0.00  0.00    +0.000 Cl
ATOM     18  C   UNL     1      11.507  13.919  18.727  0.00  0.00    +0.000 A 
ATOM     19  C   UNL     1      10.833  12.842  18.144  0.00  0.00    +0.000 A 
ENDBRANCH  10  13
ENDBRANCH   5   7
BRANCH   1  20
ATOM     20  S   UNL     1       5.382   5.178  16.256  0.00  0.00    +0.000 S 
ATOM     21  O   UNL     1       5.698   3.764  16.261  0.00  0.00    +0.000 OA
ATOM     22  O   UNL     1       5.404   5.945  15.027  0.00  0.00    +0.000 OA
BRANCH  20  23
ATOM     23  N   UNL     1       3.867   5.434  16.939  0.00  0.00    +0.000 N 
ATOM     24  H   UNL     1       3.255   6.062  16.424  0.00  0.00    +0.000 HD
BRANCH  23  30
ATOM     25  C   UNL     1       3.076   4.708  19.156  0.00  0.00    +0.000 A 
ATOM     26  C   UNL     1       2.533   3.704  19.964  0.00  0.00    +0.000 A 
ATOM     27  C   UNL     1       2.093   2.504  19.401  0.00  0.00    +0.000 A 
ATOM     28  C   UNL     1       2.189   2.300  18.028  0.00  0.00    +0.000 A 
ATOM     29  C   UNL     1       2.780   3.272  17.222  0.00  0.00    +0.000 A 
ATOM     30  C   UNL     1       3.278   4.450  17.788  0.00  0.00    +0.000 A 
BRANCH  25  32
ATOM     31  C   UNL     1       2.367   6.871  19.868  0.00  0.00    +0.000 C 
ATOM     32  O   UNL     1       3.424   5.954  19.612  0.00  0.00    +0.000 OA
ENDBRANCH  25  32
ENDBRANCH  23  30
ENDBRANCH  20  23
ENDBRANCH   1  20
TORSDOF 6
ENDMDL
MODEL 4
REMARK VINA RESULT:      -8.1      7.057      9.408
REMARK  Name = 
REMARK  7 active torsions:
REMARK  status: ('A' for Active; 'I' for Inactive)
REMARK    1  A    between atoms: C_1  and  O_2
REMARK    2  A    between atoms: O_2  and  C_3
REMARK    3  A    between atoms: C_8  and  N_9
REMARK    4  A    between atoms: N_9  and  S_10
REMARK    5  A    between atoms: S_10  and  C_13
REMARK    6  A    between atoms: C_17  and  N_18
REMARK    7  A    between atoms: N_21  and  C_22
REMARK                            x       y       z     vdW  Elec       q    Type
REMARK                         _______ _______ _______ _____ _____    ______ ____
ROOT
ATOM      1  C   UNL     1      -1.375  11.165  18.044  0.00  0.00    +0.000 A 
ATOM      2  C   UNL     1      -1.000  12.442  18.454  0.00  0.00    +0.000 A 
ATOM      3  C   UNL     1       0.177  12.614  19.169  0.00  0.00    +0.000 A 
ATOM      4  C   UNL     1       0.997  11.516  19.437  0.00  0.00    +0.000 A 
ATOM      5  C   UNL     1       0.651  10.231  19.001  0.00  0.00    +0.000 A 
ATOM      6  C   UNL     1      -0.546  10.060  18.297  0.00  0.00    +0.000 A 
ENDROOT
BRANCH   5   7
ATOM      7  N   UNL     1       1.461   9.096  19.221  0.00  0.00    +0.000 N 
ATOM      8  C   UNL     1       2.140   8.381  18.247  0.00  0.00    +0.000 C 
ATOM      9  O   UNL     1       2.222   8.704  17.065  0.00  0.00    +0.000 OA
ATOM     10  N   UNL     1       2.706   7.224  18.764  0.00  0.00    +0.000 N 
ATOM     11  H   UNL     1       1.701   8.879  20.178  0.00  0.00    +0.000 HD
ATOM     12  H   UNL     1       2.168   6.786  19.499  0.00  0.00    +0.000 HD
BRANCH  10  13
ATOM     13  C   UNL     1       3.478   6.368  17.947  0.00  0.00    +0.000 A 
ATOM     14  C   UNL     1       3.140   5.018  17.778  0.00  0.00    +0.000 A 
ATOM     15  C   UNL     1       3.953   4.174  17.020  0.00  0.00    +0.000 A 
ATOM     16  C   UNL     1       5.110   4.681  16.436  0.00  0.00    +0.000 A 
ATOM     17 CL   UNL     1       6.138   3.639  15.531  0.00  0.00    +0.000 Cl
ATOM     18  C   UNL     1       5.445   6.027  16.582  0.00  0.00    +0.000 A 
ATOM     19  C   UNL     1       4.616   6.878  17.318  0.00  0.00    +0.000 A 
ENDBRANCH  10  13
ENDBRANCH   5   7
BRANCH   1  20
ATOM     20  S   UNL     1      -2.915  10.898  17.202  0.00  0.00    +0.000 S 
ATOM     21  O   UNL     1      -3.453   9.640  17.680  0.00  0.00    +0.000 OA
ATOM     22  O   UNL     1      -2.639  11.107  15.797  0.00  0.00    +0.000 OA
BRANCH  20  23
ATOM     23  N   UNL     1      -3.909  12.169  17.677  0.00  0.00    +0.000 N 
ATOM     24  H   UNL     1      -4.003  12.925  17.005  0.00  0.00    +0.000 HD
BRANCH  23  30
ATOM     25  C   UNL     1      -4.852  12.430  19.938  0.00  0.00    +0.000 A 
ATOM     26  C   UNL     1      -5.885  12.166  20.842  0.00  0.00    +0.000 A 
ATOM     27  C   UNL     1      -7.057  11.541  20.413  0.00  0.00    +0.000 A 
ATOM     28  C   UNL     1      -7.207  11.179  19.078  0.00  0.00    +0.000 A 
ATOM     29  C   UNL     1      -6.160  11.386  18.181  0.00  0.00    +0.000 A 
ATOM     30  C   UNL     1      -4.960  11.956  18.618  0.00  0.00    +0.000 A 
BRANCH  25  32
ATOM     31  C   UNL     1      -3.414  13.296  21.632  0.00  0.00    +0.000 C 
ATOM     32  O   UNL     1      -3.721  13.140  20.253  0.00  0.00    +0.000 OA
ENDBRANCH  25  32
ENDBRANCH  23  30
ENDBRANCH  20  23
ENDBRANCH   1  20
TORSDOF 6
ENDMDL
MODEL 5
REMARK VINA RESULT:      -8.0      5.786      8.645
REMARK  Name = 
REMARK  7 active torsions:
REMARK  status: ('A' for Active; 'I' for Inactive)
REMARK    1  A    between atoms: C_1  and  O_2
REMARK    2  A    between atoms: O_2  and  C_3
REMARK    3  A    between atoms: C_8  and  N_9
REMARK    4  A    between atoms: N_9  and  S_10
REMARK    5  A    between atoms: S_10  and  C_13
REMARK    6  A    between atoms: C_17  and  N_18
REMARK    7  A    between atoms: N_21  and  C_22
REMARK                            x       y       z     vdW  Elec       q    Type
REMARK                         _______ _______ _______ _____ _____    ______ ____
ROOT
ATOM      1  C   UNL     1       2.059   7.603  19.118  0.00  0.00    +0.000 A 
ATOM      2  C   UNL     1       2.258   8.367  17.971  0.00  0.00    +0.000 A 
ATOM      3  C   UNL     1       1.830   9.687  17.943  0.00  0.00    +0.000 A 
ATOM      4  C   UNL     1       1.241  10.252  19.077  0.00  0.00    +0.000 A 
ATOM      5  C   UNL     1       1.066   9.507  20.249  0.00  0.00    +0.000 A 
ATOM      6  C   UNL     1       1.483   8.171  20.265  0.00  0.00    +0.000 A 
ENDROOT
BRANCH   5   7
ATOM      7  N   UNL     1       0.505  10.043  21.429  0.00  0.00    +0.000 N 
ATOM      8  C   UNL     1      -0.443  11.053  21.493  0.00  0.00    +0.000 C 
ATOM      9  O   UNL     1      -1.010  11.548  20.523  0.00  0.00    +0.000 OA
ATOM     10  N   UNL     1      -0.662  11.465  22.799  0.00  0.00    +0.000 N 
ATOM     11  H   UNL     1       0.680   9.545  22.290  0.00  0.00    +0.000 HD
ATOM     12  H   UNL     1       0.157  11.435  23.392  0.00  0.00    +0.000 HD
BRANCH  10  13
ATOM     13  C   UNL     1      -1.620  12.461  23.094  0.00  0.00    +0.000 A 
ATOM     14  C   UNL     1      -1.268  13.816  23.165  0.00  0.00    +0.000 A 
ATOM     15  C   UNL     1      -2.217  14.776  23.522  0.00  0.00    +0.000 A 
ATOM     16  C   UNL     1      -3.517  14.377  23.814  0.00  0.00    +0.000 A 
ATOM     17 CL   UNL     1      -4.684  15.549  24.291  0.00  0.00    +0.000 Cl
ATOM     18  C   UNL     1      -3.882  13.033  23.728  0.00  0.00    +0.000 A 
ATOM     19  C   UNL     1      -2.939  12.076  23.343  0.00  0.00    +0.000 A 
ENDBRANCH  10  13
ENDBRANCH   5   7
BRANCH   1  20
ATOM     20  S   UNL     1       2.518   5.889  19.157  0.00  0.00    +0.000 S 
ATOM     21  O   UNL     1       1.818   5.233  18.070  0.00  0.00    +0.000 OA
ATOM     22  O   UNL     1       2.337   5.461  20.528  0.00  0.00    +0.000 OA
BRANCH  20  23
ATOM     23  N   UNL     1       4.176   5.864  18.874  0.00  0.00    +0.000 N 
ATOM     24  H   UNL     1       4.758   5.751  19.699  0.00  0.00    +0.000 HD
BRANCH  23  30
ATOM     25  C   UNL     1       4.892   4.080  17.333  0.00  0.00    +0.000 A 
ATOM     26  C   UNL     1       5.437   3.711  16.100  0.00  0.00    +0.000 A 
ATOM     27  C   UNL     1       5.673   4.672  15.116  0.00  0.00    +0.000 A 
ATOM     28  C   UNL     1       5.363   6.007  15.354  0.00  0.00    +0.000 A 
ATOM     29  C   UNL     1       4.872   6.393  16.600  0.00  0.00    +0.000 A 
ATOM     30  C   UNL     1       4.691   5.444  17.611  0.00  0.00    +0.000 A 
BRANCH  25  32
ATOM     31  C   UNL     1       3.570   2.194  17.952  0.00  0.00    +0.000 C 
ATOM     32  O   UNL     1       4.524   3.187  18.307  0.00  0.00    +0.000 OA
ENDBRANCH  25  32
ENDBRANCH  23  30
ENDBRANCH  20  23
ENDBRANCH   1  20
TORSDOF 6
ENDMDL
MODEL 6
REMARK VINA RESULT:      -8.0      2.324      3.083
REMARK  Name = 
REMARK  7 active torsions:
REMARK  status: ('A' for Active; 'I' for Inactive)
REMARK    1  A    between atoms: C_1  and  O_2
REMARK    2  A    between atoms: O_2  and  C_3
REMARK    3  A    between atoms: C_8  and  N_9
REMARK    4  A    between atoms: N_9  and  S_10
REMARK    5  A    between atoms: S_10  and  C_13
REMARK    6  A    between atoms: C_17  and  N_18
REMARK    7  A    between atoms: N_21  and  C_22
REMARK                            x       y       z     vdW  Elec       q    Type
REMARK                         _______ _______ _______ _____ _____    ______ ____
ROOT
ATOM      1  C   UNL     1       6.135   5.681  17.601  0.00  0.00    +0.000 A 
ATOM      2  C   UNL     1       6.818   4.989  18.598  0.00  0.00    +0.000 A 
ATOM      3  C   UNL     1       7.916   5.577  19.211  0.00  0.00    +0.000 A 
ATOM      4  C   UNL     1       8.303   6.870  18.855  0.00  0.00    +0.000 A 
ATOM      5  C   UNL     1       7.605   7.592  17.879  0.00  0.00    +0.000 A 
ATOM      6  C   UNL     1       6.510   6.988  17.251  0.00  0.00    +0.000 A 
ENDROOT
BRANCH   5   7
ATOM      7  N   UNL     1       7.939   8.913  17.508  0.00  0.00    +0.000 N 
ATOM      8  C   UNL     1       8.704   9.798  18.251  0.00  0.00    +0.000 C 
ATOM      9  O   UNL     1       9.294   9.517  19.292  0.00  0.00    +0.000 OA
ATOM     10  N   UNL     1       8.707  11.066  17.690  0.00  0.00    +0.000 N 
ATOM     11  H   UNL     1       7.747   9.186  16.554  0.00  0.00    +0.000 HD
ATOM     12  H   UNL     1       7.841  11.327  17.237  0.00  0.00    +0.000 HD
BRANCH  10  13
ATOM     13  C   UNL     1       9.459  12.114  18.268  0.00  0.00    +0.000 A 
ATOM     14  C   UNL     1       8.883  13.012  19.177  0.00  0.00    +0.000 A 
ATOM     15  C   UNL     1       9.626  14.078  19.687  0.00  0.00    +0.000 A 
ATOM     16  C   UNL     1      10.946  14.248  19.280  0.00  0.00    +0.000 A 
ATOM     17 CL   UNL     1      11.858  15.581  19.874  0.00  0.00    +0.000 Cl
ATOM     18  C   UNL     1      11.534  13.349  18.391  0.00  0.00    +0.000 A 
ATOM     19  C   UNL     1      10.798  12.265  17.903  0.00  0.00    +0.000 A 
ENDBRANCH  10  13
ENDBRANCH   5   7
BRANCH   1  20
ATOM     20  S   UNL     1       4.780   4.925  16.738  0.00  0.00    +0.000 S 
ATOM     21  O   UNL     1       5.191   4.754  15.360  0.00  0.00    +0.000 OA
ATOM     22  O   UNL     1       3.610   5.707  17.078  0.00  0.00    +0.000 OA
BRANCH  20  23
ATOM     23  N   UNL     1       4.568   3.425  17.468  0.00  0.00    +0.000 N 
ATOM     24  H   UNL     1       5.422   2.909  17.664  0.00  0.00    +0.000 HD
BRANCH  23  30
ATOM     25  C   UNL     1       3.539   2.750  19.602  0.00  0.00    +0.000 A 
ATOM     26  C   UNL     1       2.385   2.460  20.336  0.00  0.00    +0.000 A 
ATOM     27  C   UNL     1       1.122   2.684  19.785  0.00  0.00    +0.000 A 
ATOM     28  C   UNL     1       1.003   3.202  18.499  0.00  0.00    +0.000 A 
ATOM     29  C   UNL     1       2.147   3.440  17.738  0.00  0.00    +0.000 A 
ATOM     30  C   UNL     1       3.413   3.160  18.262  0.00  0.00    +0.000 A 
BRANCH  25  32
ATOM     31  C   UNL     1       5.158   1.476  20.804  0.00  0.00    +0.000 C 
ATOM     32  O   UNL     1       4.811   2.667  20.109  0.00  0.00    +0.000 OA
ENDBRANCH  25  32
ENDBRANCH  23  30
ENDBRANCH  20  23
ENDBRANCH   1  20
TORSDOF 6
ENDMDL
MODEL 7
REMARK VINA RESULT:      -7.9      6.149      9.074
REMARK  Name = 
REMARK  7 active torsions:
REMARK  status: ('A' for Active; 'I' for Inactive)
REMARK    1  A    between atoms: C_1  and  O_2
REMARK    2  A    between atoms: O_2  and  C_3
REMARK    3  A    between atoms: C_8  and  N_9
REMARK    4  A    between atoms: N_9  and  S_10
REMARK    5  A    between atoms: S_10  and  C_13
REMARK    6  A    between atoms: C_17  and  N_18
REMARK    7  A    between atoms: N_21  and  C_22
REMARK                            x       y       z     vdW  Elec       q    Type
REMARK                         _______ _______ _______ _____ _____    ______ ____
ROOT
ATOM      1  C   UNL     1       0.033  10.931  20.402  0.00  0.00    +0.000 A 
ATOM      2  C   UNL     1      -0.631  11.276  21.577  0.00  0.00    +0.000 A 
ATOM      3  C   UNL     1      -0.619  10.400  22.654  0.00  0.00    +0.000 A 
ATOM      4  C   UNL     1       0.091   9.200  22.568  0.00  0.00    +0.000 A 
ATOM      5  C   UNL     1       0.792   8.856  21.406  0.00  0.00    +0.000 A 
ATOM      6  C   UNL     1       0.762   9.734  20.317  0.00  0.00    +0.000 A 
ENDROOT
BRANCH   5   7
ATOM      7  N   UNL     1       1.548   7.670  21.282  0.00  0.00    +0.000 N 
ATOM      8  C   UNL     1       2.199   7.235  20.137  0.00  0.00    +0.000 C 
ATOM      9  O   UNL     1       2.300   7.881  19.097  0.00  0.00    +0.000 OA
ATOM     10  N   UNL     1       2.709   5.955  20.294  0.00  0.00    +0.000 N 
ATOM     11  H   UNL     1       1.775   7.176  22.134  0.00  0.00    +0.000 HD
ATOM     12  H   UNL     1       2.148   5.348  20.877  0.00  0.00    +0.000 HD
BRANCH  10  13
ATOM     13  C   UNL     1       3.444   5.336  19.258  0.00  0.00    +0.000 A 
ATOM     14  C   UNL     1       4.843   5.414  19.207  0.00  0.00    +0.000 A 
ATOM     15  C   UNL     1       5.544   4.850  18.140  0.00  0.00    +0.000 A 
ATOM     16  C   UNL     1       4.844   4.214  17.120  0.00  0.00    +0.000 A 
ATOM     17 CL   UNL     1       5.698   3.549  15.783  0.00  0.00    +0.000 Cl
ATOM     18  C   UNL     1       3.454   4.114  17.172  0.00  0.00    +0.000 A 
ATOM     19  C   UNL     1       2.753   4.654  18.254  0.00  0.00    +0.000 A 
ENDBRANCH  10  13
ENDBRANCH   5   7
BRANCH   1  20
ATOM     20  S   UNL     1      -0.034  11.990  18.979  0.00  0.00    +0.000 S 
ATOM     21  O   UNL     1       1.319  12.120  18.478  0.00  0.00    +0.000 OA
ATOM     22  O   UNL     1      -0.796  13.151  19.386  0.00  0.00    +0.000 OA
BRANCH  20  23
ATOM     23  N   UNL     1      -0.988  11.173  17.860  0.00  0.00    +0.000 N 
ATOM     24  H   UNL     1      -0.624  10.277  17.547  0.00  0.00    +0.000 HD
BRANCH  23  30
ATOM     25  C   UNL     1      -3.132  11.067  16.653  0.00  0.00    +0.000 A 
ATOM     26  C   UNL     1      -4.504  11.338  16.622  0.00  0.00    +0.000 A 
ATOM     27  C   UNL     1      -5.154  11.823  17.758  0.00  0.00    +0.000 A 
ATOM     28  C   UNL     1      -4.440  12.037  18.934  0.00  0.00    +0.000 A 
ATOM     29  C   UNL     1      -3.063  11.824  18.957  0.00  0.00    +0.000 A 
ATOM     30  C   UNL     1      -2.396  11.396  17.805  0.00  0.00    +0.000 A 
BRANCH  25  32
ATOM     31  C   UNL     1      -3.179  10.162  14.447  0.00  0.00    +0.000 C 
ATOM     32  O   UNL     1      -2.443  10.483  15.620  0.00  0.00    +0.000 OA
ENDBRANCH  25  32
ENDBRANCH  23  30
ENDBRANCH  20  23
ENDBRANCH   1  20
TORSDOF 6
ENDMDL
MODEL 8
REMARK VINA RESULT:      -7.9      1.733      2.412
REMARK  Name = 
REMARK  7 active torsions:
REMARK  status: ('A' for Active; 'I' for Inactive)
REMARK    1  A    between atoms: C_1  and  O_2
REMARK    2  A    between atoms: O_2  and  C_3
REMARK    3  A    between atoms: C_8  and  N_9
REMARK    4  A    between atoms: N_9  and  S_10
REMARK    5  A    between atoms: S_10  and  C_13
REMARK    6  A    between atoms: C_17  and  N_18
REMARK    7  A    between atoms: N_21  and  C_22
REMARK                            x       y       z     vdW  Elec       q    Type
REMARK                         _______ _______ _______ _____ _____    ______ ____
ROOT
ATOM      1  C   UNL     1       4.724   5.318  17.856  0.00  0.00    +0.000 A 
ATOM      2  C   UNL     1       4.896   4.823  16.565  0.00  0.00    +0.000 A 
ATOM      3  C   UNL     1       6.046   5.142  15.857  0.00  0.00    +0.000 A 
ATOM      4  C   UNL     1       7.039   5.920  16.455  0.00  0.00    +0.000 A 
ATOM      5  C   UNL     1       6.896   6.396  17.764  0.00  0.00    +0.000 A 
ATOM      6  C   UNL     1       5.727   6.087  18.467  0.00  0.00    +0.000 A 
ENDROOT
BRANCH   5   7
ATOM      7  N   UNL     1       7.886   7.159  18.421  0.00  0.00    +0.000 N 
ATOM      8  C   UNL     1       8.052   8.532  18.323  0.00  0.00    +0.000 C 
ATOM      9  O   UNL     1       7.289   9.293  17.733  0.00  0.00    +0.000 OA
ATOM     10  N   UNL     1       9.213   8.953  18.954  0.00  0.00    +0.000 N 
ATOM     11  H   UNL     1       8.415   6.701  19.149  0.00  0.00    +0.000 HD
ATOM     12  H   UNL     1       9.981   8.296  18.902  0.00  0.00    +0.000 HD
BRANCH  10  13
ATOM     13  C   UNL     1       9.555  10.323  19.007  0.00  0.00    +0.000 A 
ATOM     14  C   UNL     1       9.395  11.072  20.180  0.00  0.00    +0.000 A 
ATOM     15  C   UNL     1       9.677  12.439  20.192  0.00  0.00    +0.000 A 
ATOM     16  C   UNL     1      10.113  13.058  19.024  0.00  0.00    +0.000 A 
ATOM     17 CL   UNL     1      10.428  14.749  19.019  0.00  0.00    +0.000 Cl
ATOM     18  C   UNL     1      10.294  12.317  17.856  0.00  0.00    +0.000 A 
ATOM     19  C   UNL     1      10.038  10.943  17.852  0.00  0.00    +0.000 A 
ENDBRANCH  10  13
ENDBRANCH   5   7
BRANCH   1  20
ATOM     20  S   UNL     1       3.228   4.999  18.757  0.00  0.00    +0.000 S 
ATOM     21  O   UNL     1       3.457   3.818  19.564  0.00  0.00    +0.000 OA
ATOM     22  O   UNL     1       2.161   5.042  17.780  0.00  0.00    +0.000 OA
BRANCH  20  23
ATOM     23  N   UNL     1       3.009   6.341  19.748  0.00  0.00    +0.000 N 
ATOM     24  H   UNL     1       3.679   6.438  20.507  0.00  0.00    +0.000 HD
BRANCH  23  30
ATOM     25  C   UNL     1       1.561   8.303  20.092  0.00  0.00    +0.000 A 
ATOM     26  C   UNL     1       0.913   9.422  19.559  0.00  0.00    +0.000 A 
ATOM     27  C   UNL     1       1.150   9.814  18.241  0.00  0.00    +0.000 A 
ATOM     28  C   UNL     1       2.038   9.095  17.447  0.00  0.00    +0.000 A 
ATOM     29  C   UNL     1       2.645   7.946  17.951  0.00  0.00    +0.000 A 
ATOM     30  C   UNL     1       2.365   7.513  19.251  0.00  0.00    +0.000 A 
BRANCH  25  32
ATOM     31  C   UNL     1       1.190   8.935  22.362  0.00  0.00    +0.000 C 
ATOM     32  O   UNL     1       1.471   7.920  21.406  0.00  0.00    +0.000 OA
ENDBRANCH  25  32
ENDBRANCH  23  30
ENDBRANCH  20  23
ENDBRANCH   1  20
TORSDOF 6
ENDMDL
MODEL 9
REMARK VINA RESULT:      -7.9      6.510      9.224
REMARK  Name = 
REMARK  7 active torsions:
REMARK  status: ('A' for Active; 'I' for Inactive)
REMARK    1  A    between atoms: C_1  and  O_2
REMARK    2  A    between atoms: O_2  and  C_3
REMARK    3  A    between atoms: C_8  and  N_9
REMARK    4  A    between atoms: N_9  and  S_10
REMARK    5  A    between atoms: S_10  and  C_13
REMARK    6  A    between atoms: C_17  and  N_18
REMARK    7  A    between atoms: N_21  and  C_22
REMARK                            x       y       z     vdW  Elec       q    Type
REMARK                         _______ _______ _______ _____ _____    ______ ____
ROOT
ATOM      1  C   UNL     1       0.187  12.468  19.753  0.00  0.00    +0.000 A 
ATOM      2  C   UNL     1      -1.023  12.444  19.063  0.00  0.00    +0.000 A 
ATOM      3  C   UNL     1      -1.431  11.275  18.438  0.00  0.00    +0.000 A 
ATOM      4  C   UNL     1      -0.650  10.121  18.537  0.00  0.00    +0.000 A 
ATOM      5  C   UNL     1       0.551  10.121  19.257  0.00  0.00    +0.000 A 
ATOM      6  C   UNL     1       0.968  11.307  19.871  0.00  0.00    +0.000 A 
ENDROOT
BRANCH   5   7
ATOM      7  N   UNL     1       1.359   8.973  19.412  0.00  0.00    +0.000 N 
ATOM      8  C   UNL     1       2.050   8.322  18.401  0.00  0.00    +0.000 C 
ATOM      9  O   UNL     1       2.144   8.721  17.243  0.00  0.00    +0.000 OA
ATOM     10  N   UNL     1       2.611   7.135  18.848  0.00  0.00    +0.000 N 
ATOM     11  H   UNL     1       1.589   8.695  20.355  0.00  0.00    +0.000 HD
ATOM     12  H   UNL     1       2.064   6.650  19.548  0.00  0.00    +0.000 HD
BRANCH  10  13
ATOM     13  C   UNL     1       3.392   6.332  17.986  0.00  0.00    +0.000 A 
ATOM     14  C   UNL     1       3.067   4.991  17.742  0.00  0.00    +0.000 A 
ATOM     15  C   UNL     1       3.889   4.198  16.940  0.00  0.00    +0.000 A 
ATOM     16  C   UNL     1       5.041   4.748  16.387  0.00  0.00    +0.000 A 
ATOM     17 CL   UNL     1       6.080   3.768  15.426  0.00  0.00    +0.000 Cl
ATOM     18  C   UNL     1       5.363   6.088  16.608  0.00  0.00    +0.000 A 
ATOM     19  C   UNL     1       4.525   6.889  17.389  0.00  0.00    +0.000 A 
ENDBRANCH  10  13
ENDBRANCH   5   7
BRANCH   1  20
ATOM     20  S   UNL     1       0.779  13.970  20.493  0.00  0.00    +0.000 S 
ATOM     21  O   UNL     1       0.104  15.068  19.832  0.00  0.00    +0.000 OA
ATOM     22  O   UNL     1       2.223  13.870  20.490  0.00  0.00    +0.000 OA
BRANCH  20  23
ATOM     23  N   UNL     1       0.308  13.889  22.106  0.00  0.00    +0.000 N 
ATOM     24  H   UNL     1       0.843  14.469  22.747  0.00  0.00    +0.000 HD
BRANCH  23  30
ATOM     25  C   UNL     1      -1.335  12.248  22.926  0.00  0.00    +0.000 A 
ATOM     26  C   UNL     1      -2.665  11.929  23.219  0.00  0.00    +0.000 A 
ATOM     27  C   UNL     1      -3.657  12.908  23.155  0.00  0.00    +0.000 A 
ATOM     28  C   UNL     1      -3.329  14.213  22.800  0.00  0.00    +0.000 A 
ATOM     29  C   UNL     1      -2.017  14.528  22.451  0.00  0.00    +0.000 A 
ATOM     30  C   UNL     1      -1.030  13.538  22.455  0.00  0.00    +0.000 A 
BRANCH  25  32
ATOM     31  C   UNL     1      -0.587   9.987  23.041  0.00  0.00    +0.000 C 
ATOM     32  O   UNL     1      -0.287  11.376  23.076  0.00  0.00    +0.000 OA
ENDBRANCH  25  32
ENDBRANCH  23  30
ENDBRANCH  20  23
ENDBRANCH   1  20
TORSDOF 6
ENDMDL
