MODEL 1
REMARK VINA RESULT:      -7.6      0.000      0.000
REMARK  Name = 
REMARK  13 active torsions:
REMARK  status: ('A' for Active; 'I' for Inactive)
REMARK    1  A    between atoms: C_1  and  O_2
REMARK    2  A    between atoms: O_2  and  C_3
REMARK    3  A    between atoms: C_3  and  C_4
REMARK    4  A    between atoms: C_3  and  C_5
REMARK    5  A    between atoms: C_5  and  O_6
REMARK    6  A    between atoms: C_5  and  C_7
REMARK    7  A    between atoms: C_5  and  C_21
REMARK    8  A    between atoms: C_7  and  O_9
REMARK    9  A    between atoms: O_9  and  C_10
REMARK   10  A    between atoms: C_10  and  C_11
REMARK   11  A    between atoms: C_18  and  O_19
REMARK   12  A    between atoms: C_21  and  C_22
REMARK   13  A    between atoms: C_21  and  C_23
REMARK                            x       y       z     vdW  Elec       q    Type
REMARK                         _______ _______ _______ _____ _____    ______ ____
ROOT
ATOM      1  O   UNL     1       4.907   5.741  18.332  0.00  0.00    +0.000 OA
ENDROOT
BRANCH   1   2
ATOM      2  C   UNL     1       5.897   4.809  18.292  0.00  0.00    +0.000 C 
ATOM      3  O   UNL     1       5.954   3.831  19.035  0.00  0.00    +0.000 OA
BRANCH   2   4
ATOM      4  C   UNL     1       7.014   5.143  17.267  0.00  0.00    +0.000 C 
BRANCH   4   5
ATOM      5  C   UNL     1       7.726   6.489  17.628  0.00  0.00    +0.000 C 
ATOM      6  C   UNL     1       6.854   7.725  17.354  0.00  0.00    +0.000 C 
ATOM      7  C   UNL     1       8.145   6.548  19.109  0.00  0.00    +0.000 C 
ENDBRANCH   4   5
BRANCH   4   8
ATOM      8  C   UNL     1       6.500   5.108  15.784  0.00  0.00    +0.000 C 
ATOM      9  C   UNL     1       5.962   3.752  15.315  0.00  0.00    +0.000 C 
BRANCH   8  11
ATOM     10  C   UNL     1       7.433   4.943  13.588  0.00  0.00    +0.000 C 
ATOM     11  O   UNL     1       7.516   5.570  14.869  0.00  0.00    +0.000 OA
ENDBRANCH   8  11
ENDBRANCH   4   8
BRANCH   4  12
ATOM     12  O   UNL     1       8.029   4.108  17.380  0.00  0.00    +0.000 OA
ATOM     13  H   UNL     1       7.584   3.260  17.180  0.00  0.00    +0.000 HD
ENDBRANCH   4  12
ENDBRANCH   2   4
ENDBRANCH   1   2
BRANCH   1  14
ATOM     14  C   UNL     1       3.759   5.497  17.493  0.00  0.00    +0.000 C 
BRANCH  14  15
ATOM     15  C   UNL     1       2.994   4.288  17.939  0.00  0.00    +0.000 C 
ATOM     16  C   UNL     1       3.036   3.043  17.438  0.00  0.00    +0.000 C 
ATOM     17  C   UNL     1       2.105   2.120  18.143  0.00  0.00    +0.000 C 
ATOM     18  N   UNL     1       1.499   2.918  19.283  0.00  0.00    +0.000 N 
ATOM     19  O   UNL     1       0.132   2.856  19.291  0.00  0.00    +0.000 OA
ATOM     20  C   UNL     1       2.039   2.492  20.624  0.00  0.00    +0.000 C 
ATOM     21  C   UNL     1       2.120   3.761  21.435  0.00  0.00    +0.000 C 
ATOM     22  C   UNL     1       2.546   4.816  20.429  0.00  0.00    +0.000 C 
ATOM     23  C   UNL     1       1.994   4.357  19.073  0.00  0.00    +0.000 C 
BRANCH  22  24
ATOM     24  O   UNL     1       2.016   6.086  20.807  0.00  0.00    +0.000 OA
ATOM     25  H   UNL     1       1.134   6.178  20.395  0.00  0.00    +0.000 HD
ENDBRANCH  22  24
ENDBRANCH  14  15
ENDBRANCH   1  14
TORSDOF 9
ENDMDL
MODEL 2
REMARK VINA RESULT:      -7.5      1.496      2.270
REMARK  Name = 
REMARK  13 active torsions:
REMARK  status: ('A' for Active; 'I' for Inactive)
REMARK    1  A    between atoms: C_1  and  O_2
REMARK    2  A    between atoms: O_2  and  C_3
REMARK    3  A    between atoms: C_3  and  C_4
REMARK    4  A    between atoms: C_3  and  C_5
REMARK    5  A    between atoms: C_5  and  O_6
REMARK    6  A    between atoms: C_5  and  C_7
REMARK    7  A    between atoms: C_5  and  C_21
REMARK    8  A    between atoms: C_7  and  O_9
REMARK    9  A    between atoms: O_9  and  C_10
REMARK   10  A    between atoms: C_10  and  C_11
REMARK   11  A    between atoms: C_18  and  O_19
REMARK   12  A    between atoms: C_21  and  C_22
REMARK   13  A    between atoms: C_21  and  C_23
REMARK                            x       y       z     vdW  Elec       q    Type
REMARK                         _______ _______ _______ _____ _____    ______ ____
ROOT
ATOM      1  O   UNL     1       4.816   5.584  18.826  0.00  0.00    +0.000 OA
ENDROOT
BRANCH   1   2
ATOM      2  C   UNL     1       5.071   6.081  17.586  0.00  0.00    +0.000 C 
ATOM      3  O   UNL     1       4.316   6.834  16.974  0.00  0.00    +0.000 OA
BRANCH   2   4
ATOM      4  C   UNL     1       6.384   5.533  16.963  0.00  0.00    +0.000 C 
BRANCH   4   5
ATOM      5  C   UNL     1       7.632   6.301  17.511  0.00  0.00    +0.000 C 
ATOM      6  C   UNL     1       7.482   7.830  17.433  0.00  0.00    +0.000 C 
ATOM      7  C   UNL     1       7.935   5.949  18.980  0.00  0.00    +0.000 C 
ENDBRANCH   4   5
BRANCH   4   8
ATOM      8  C   UNL     1       6.336   5.497  15.394  0.00  0.00    +0.000 C 
ATOM      9  C   UNL     1       5.486   4.371  14.796  0.00  0.00    +0.000 C 
BRANCH   8  11
ATOM     10  C   UNL     1       7.677   5.005  13.476  0.00  0.00    +0.000 C 
ATOM     11  O   UNL     1       7.664   5.455  14.832  0.00  0.00    +0.000 OA
ENDBRANCH   8  11
ENDBRANCH   4   8
BRANCH   4  12
ATOM     12  O   UNL     1       6.532   4.156  17.406  0.00  0.00    +0.000 OA
ATOM     13  H   UNL     1       5.634   3.839  17.628  0.00  0.00    +0.000 HD
ENDBRANCH   4  12
ENDBRANCH   2   4
ENDBRANCH   1   2
BRANCH   1  14
ATOM     14  C   UNL     1       3.684   6.147  19.523  0.00  0.00    +0.000 C 
BRANCH  14  15
ATOM     15  C   UNL     1       2.713   5.088  19.948  0.00  0.00    +0.000 C 
ATOM     16  C   UNL     1       1.389   5.200  20.139  0.00  0.00    +0.000 C 
ATOM     17  C   UNL     1       0.774   3.919  20.585  0.00  0.00    +0.000 C 
ATOM     18  N   UNL     1       1.884   2.884  20.562  0.00  0.00    +0.000 N 
ATOM     19  O   UNL     1       1.986   2.205  21.745  0.00  0.00    +0.000 OA
ATOM     20  C   UNL     1       1.729   1.910  19.424  0.00  0.00    +0.000 C 
ATOM     21  C   UNL     1       3.135   1.604  18.973  0.00  0.00    +0.000 C 
ATOM     22  C   UNL     1       3.864   2.929  19.116  0.00  0.00    +0.000 C 
ATOM     23  C   UNL     1       3.165   3.677  20.258  0.00  0.00    +0.000 C 
BRANCH  22  24
ATOM     24  O   UNL     1       5.241   2.692  19.410  0.00  0.00    +0.000 OA
ATOM     25  H   UNL     1       5.335   1.755  19.672  0.00  0.00    +0.000 HD
ENDBRANCH  22  24
ENDBRANCH  14  15
ENDBRANCH   1  14
TORSDOF 9
ENDMDL
MODEL 3
REMARK VINA RESULT:      -7.4      1.492      2.440
REMARK  Name = 
REMARK  13 active torsions:
REMARK  status: ('A' for Active; 'I' for Inactive)
REMARK    1  A    between atoms: C_1  and  O_2
REMARK    2  A    between atoms: O_2  and  C_3
REMARK    3  A    between atoms: C_3  and  C_4
REMARK    4  A    between atoms: C_3  and  C_5
REMARK    5  A    between atoms: C_5  and  O_6
REMARK    6  A    between atoms: C_5  and  C_7
REMARK    7  A    between atoms: C_5  and  C_21
REMARK    8  A    between atoms: C_7  and  O_9
REMARK    9  A    between atoms: O_9  and  C_10
REMARK   10  A    between atoms: C_10  and  C_11
REMARK   11  A    between atoms: C_18  and  O_19
REMARK   12  A    between atoms: C_21  and  C_22
REMARK   13  A    between atoms: C_21  and  C_23
REMARK                            x       y       z     vdW  Elec       q    Type
REMARK                         _______ _______ _______ _____ _____    ______ ____
ROOT
ATOM      1  O   UNL     1       4.615   6.359  18.211  0.00  0.00    +0.000 OA
ENDROOT
BRANCH   1   2
ATOM      2  C   UNL     1       5.056   6.419  16.925  0.00  0.00    +0.000 C 
ATOM      3  O   UNL     1       4.494   7.048  16.031  0.00  0.00    +0.000 OA
BRANCH   2   4
ATOM      4  C   UNL     1       6.305   5.534  16.663  0.00  0.00    +0.000 C 
BRANCH   4   5
ATOM      5  C   UNL     1       7.585   6.160  17.308  0.00  0.00    +0.000 C 
ATOM      6  C   UNL     1       7.528   7.694  17.396  0.00  0.00    +0.000 C 
ATOM      7  C   UNL     1       7.838   5.634  18.734  0.00  0.00    +0.000 C 
ENDBRANCH   4   5
BRANCH   4   8
ATOM      8  C   UNL     1       6.495   5.199  15.141  0.00  0.00    +0.000 C 
ATOM      9  C   UNL     1       6.092   3.778  14.733  0.00  0.00    +0.000 C 
BRANCH   8  11
ATOM     10  C   UNL     1       8.006   5.386  13.297  0.00  0.00    +0.000 C 
ATOM     11  O   UNL     1       7.849   5.462  14.715  0.00  0.00    +0.000 OA
ENDBRANCH   8  11
ENDBRANCH   4   8
BRANCH   4  12
ATOM     12  O   UNL     1       6.090   4.267  17.344  0.00  0.00    +0.000 OA
ATOM     13  H   UNL     1       6.501   4.354  18.227  0.00  0.00    +0.000 HD
ENDBRANCH   4  12
ENDBRANCH   2   4
ENDBRANCH   1   2
BRANCH   1  14
ATOM     14  C   UNL     1       3.189   6.465  18.406  0.00  0.00    +0.000 C 
BRANCH  14  15
ATOM     15  C   UNL     1       2.687   5.449  19.387  0.00  0.00    +0.000 C 
ATOM     16  C   UNL     1       1.923   5.645  20.473  0.00  0.00    +0.000 C 
ATOM     17  C   UNL     1       1.655   4.379  21.209  0.00  0.00    +0.000 C 
ATOM     18  N   UNL     1       2.275   3.267  20.383  0.00  0.00    +0.000 N 
ATOM     19  O   UNL     1       3.103   2.469  21.124  0.00  0.00    +0.000 OA
ATOM     20  C   UNL     1       1.235   2.425  19.692  0.00  0.00    +0.000 C 
ATOM     21  C   UNL     1       1.846   2.055  18.364  0.00  0.00    +0.000 C 
ATOM     22  C   UNL     1       2.618   3.298  17.955  0.00  0.00    +0.000 C 
ATOM     23  C   UNL     1       3.043   3.982  19.261  0.00  0.00    +0.000 C 
BRANCH  22  24
ATOM     24  O   UNL     1       3.749   2.926  17.167  0.00  0.00    +0.000 OA
ATOM     25  H   UNL     1       4.192   3.746  16.872  0.00  0.00    +0.000 HD
ENDBRANCH  22  24
ENDBRANCH  14  15
ENDBRANCH   1  14
TORSDOF 9
ENDMDL
MODEL 4
REMARK VINA RESULT:      -7.4      1.872      3.338
REMARK  Name = 
REMARK  13 active torsions:
REMARK  status: ('A' for Active; 'I' for Inactive)
REMARK    1  A    between atoms: C_1  and  O_2
REMARK    2  A    between atoms: O_2  and  C_3
REMARK    3  A    between atoms: C_3  and  C_4
REMARK    4  A    between atoms: C_3  and  C_5
REMARK    5  A    between atoms: C_5  and  O_6
REMARK    6  A    between atoms: C_5  and  C_7
REMARK    7  A    between atoms: C_5  and  C_21
REMARK    8  A    between atoms: C_7  and  O_9
REMARK    9  A    between atoms: O_9  and  C_10
REMARK   10  A    between atoms: C_10  and  C_11
REMARK   11  A    between atoms: C_18  and  O_19
REMARK   12  A    between atoms: C_21  and  C_22
REMARK   13  A    between atoms: C_21  and  C_23
REMARK                            x       y       z     vdW  Elec       q    Type
REMARK                         _______ _______ _______ _____ _____    ______ ____
ROOT
ATOM      1  O   UNL     1       4.076   5.339  17.175  0.00  0.00    +0.000 OA
ENDROOT
BRANCH   1   2
ATOM      2  C   UNL     1       4.961   4.550  16.509  0.00  0.00    +0.000 C 
ATOM      3  O   UNL     1       5.007   3.325  16.611  0.00  0.00    +0.000 OA
BRANCH   2   4
ATOM      4  C   UNL     1       5.985   5.353  15.661  0.00  0.00    +0.000 C 
BRANCH   4   5
ATOM      5  C   UNL     1       6.535   4.492  14.477  0.00  0.00    +0.000 C 
ATOM      6  C   UNL     1       5.443   4.065  13.483  0.00  0.00    +0.000 C 
ATOM      7  C   UNL     1       7.618   5.234  13.669  0.00  0.00    +0.000 C 
ENDBRANCH   4   5
BRANCH   4   8
ATOM      8  C   UNL     1       7.128   5.982  16.536  0.00  0.00    +0.000 C 
ATOM      9  C   UNL     1       7.601   5.115  17.707  0.00  0.00    +0.000 C 
BRANCH   8  11
ATOM     10  C   UNL     1       7.855   8.005  17.583  0.00  0.00    +0.000 C 
ATOM     11  O   UNL     1       6.755   7.290  17.018  0.00  0.00    +0.000 OA
ENDBRANCH   8  11
ENDBRANCH   4   8
BRANCH   4  12
ATOM     12  O   UNL     1       5.268   6.463  15.053  0.00  0.00    +0.000 OA
ATOM     13  H   UNL     1       4.581   6.733  15.694  0.00  0.00    +0.000 HD
ENDBRANCH   4  12
ENDBRANCH   2   4
ENDBRANCH   1   2
BRANCH   1  14
ATOM     14  C   UNL     1       4.389   5.634  18.553  0.00  0.00    +0.000 C 
BRANCH  14  15
ATOM     15  C   UNL     1       3.269   5.246  19.470  0.00  0.00    +0.000 C 
ATOM     16  C   UNL     1       2.267   6.010  19.931  0.00  0.00    +0.000 C 
ATOM     17  C   UNL     1       1.361   5.261  20.844  0.00  0.00    +0.000 C 
ATOM     18  N   UNL     1       1.851   3.824  20.844  0.00  0.00    +0.000 N 
ATOM     19  O   UNL     1       2.051   3.344  22.110  0.00  0.00    +0.000 OA
ATOM     20  C   UNL     1       0.925   2.908  20.088  0.00  0.00    +0.000 C 
ATOM     21  C   UNL     1       1.827   1.902  19.419  0.00  0.00    +0.000 C 
ATOM     22  C   UNL     1       3.047   2.711  19.016  0.00  0.00    +0.000 C 
ATOM     23  C   UNL     1       3.160   3.848  20.040  0.00  0.00    +0.000 C 
BRANCH  22  24
ATOM     24  O   UNL     1       4.206   1.877  19.029  0.00  0.00    +0.000 OA
ATOM     25  H   UNL     1       4.800   2.201  19.735  0.00  0.00    +0.000 HD
ENDBRANCH  22  24
ENDBRANCH  14  15
ENDBRANCH   1  14
TORSDOF 9
ENDMDL
MODEL 5
REMARK VINA RESULT:      -7.3      1.563      2.512
REMARK  Name = 
REMARK  13 active torsions:
REMARK  status: ('A' for Active; 'I' for Inactive)
REMARK    1  A    between atoms: C_1  and  O_2
REMARK    2  A    between atoms: O_2  and  C_3
REMARK    3  A    between atoms: C_3  and  C_4
REMARK    4  A    between atoms: C_3  and  C_5
REMARK    5  A    between atoms: C_5  and  O_6
REMARK    6  A    between atoms: C_5  and  C_7
REMARK    7  A    between atoms: C_5  and  C_21
REMARK    8  A    between atoms: C_7  and  O_9
REMARK    9  A    between atoms: O_9  and  C_10
REMARK   10  A    between atoms: C_10  and  C_11
REMARK   11  A    between atoms: C_18  and  O_19
REMARK   12  A    between atoms: C_21  and  C_22
REMARK   13  A    between atoms: C_21  and  C_23
REMARK                            x       y       z     vdW  Elec       q    Type
REMARK                         _______ _______ _______ _____ _____    ______ ____
ROOT
ATOM      1  O   UNL     1       4.617   6.333  18.181  0.00  0.00    +0.000 OA
ENDROOT
BRANCH   1   2
ATOM      2  C   UNL     1       5.332   6.154  17.038  0.00  0.00    +0.000 C 
ATOM      3  O   UNL     1       4.992   6.583  15.936  0.00  0.00    +0.000 OA
BRANCH   2   4
ATOM      4  C   UNL     1       6.593   5.269  17.234  0.00  0.00    +0.000 C 
BRANCH   4   5
ATOM      5  C   UNL     1       7.780   6.101  17.824  0.00  0.00    +0.000 C 
ATOM      6  C   UNL     1       7.606   7.617  17.635  0.00  0.00    +0.000 C 
ATOM      7  C   UNL     1       7.975   5.851  19.331  0.00  0.00    +0.000 C 
ENDBRANCH   4   5
BRANCH   4   8
ATOM      8  C   UNL     1       6.989   4.489  15.930  0.00  0.00    +0.000 C 
ATOM      9  C   UNL     1       7.521   5.361  14.788  0.00  0.00    +0.000 C 
BRANCH   8  11
ATOM     10  C   UNL     1       5.693   3.796  14.044  0.00  0.00    +0.000 C 
ATOM     11  O   UNL     1       5.893   3.680  15.454  0.00  0.00    +0.000 OA
ENDBRANCH   8  11
ENDBRANCH   4   8
BRANCH   4  12
ATOM     12  O   UNL     1       6.267   4.266  18.235  0.00  0.00    +0.000 OA
ATOM     13  H   UNL     1       7.036   3.663  18.283  0.00  0.00    +0.000 HD
ENDBRANCH   4  12
ENDBRANCH   2   4
ENDBRANCH   1   2
BRANCH   1  14
ATOM     14  C   UNL     1       3.187   6.168  18.076  0.00  0.00    +0.000 C 
BRANCH  14  15
ATOM     15  C   UNL     1       2.659   5.238  19.126  0.00  0.00    +0.000 C 
ATOM     16  C   UNL     1       1.751   5.489  20.082  0.00  0.00    +0.000 C 
ATOM     17  C   UNL     1       1.506   4.306  20.952  0.00  0.00    +0.000 C 
ATOM     18  N   UNL     1       2.320   3.169  20.362  0.00  0.00    +0.000 N 
ATOM     19  O   UNL     1       3.116   2.562  21.294  0.00  0.00    +0.000 OA
ATOM     20  C   UNL     1       1.453   2.143  19.682  0.00  0.00    +0.000 C 
ATOM     21  C   UNL     1       2.255   1.674  18.495  0.00  0.00    +0.000 C 
ATOM     22  C   UNL     1       2.959   2.928  18.007  0.00  0.00    +0.000 C 
ATOM     23  C   UNL     1       3.156   3.813  19.245  0.00  0.00    +0.000 C 
BRANCH  22  24
ATOM     24  O   UNL     1       4.209   2.579  17.410  0.00  0.00    +0.000 OA
ATOM     25  H   UNL     1       4.772   2.181  18.103  0.00  0.00    +0.000 HD
ENDBRANCH  22  24
ENDBRANCH  14  15
ENDBRANCH   1  14
TORSDOF 9
ENDMDL
MODEL 6
REMARK VINA RESULT:      -7.3      1.503      2.359
REMARK  Name = 
REMARK  13 active torsions:
REMARK  status: ('A' for Active; 'I' for Inactive)
REMARK    1  A    between atoms: C_1  and  O_2
REMARK    2  A    between atoms: O_2  and  C_3
REMARK    3  A    between atoms: C_3  and  C_4
REMARK    4  A    between atoms: C_3  and  C_5
REMARK    5  A    between atoms: C_5  and  O_6
REMARK    6  A    between atoms: C_5  and  C_7
REMARK    7  A    between atoms: C_5  and  C_21
REMARK    8  A    between atoms: C_7  and  O_9
REMARK    9  A    between atoms: O_9  and  C_10
REMARK   10  A    between atoms: C_10  and  C_11
REMARK   11  A    between atoms: C_18  and  O_19
REMARK   12  A    between atoms: C_21  and  C_22
REMARK   13  A    between atoms: C_21  and  C_23
REMARK                            x       y       z     vdW  Elec       q    Type
REMARK                         _______ _______ _______ _____ _____    ______ ____
ROOT
ATOM      1  O   UNL     1       5.284   4.561  18.764  0.00  0.00    +0.000 OA
ENDROOT
BRANCH   1   2
ATOM      2  C   UNL     1       5.792   4.318  17.526  0.00  0.00    +0.000 C 
ATOM      3  O   UNL     1       5.405   3.417  16.785  0.00  0.00    +0.000 OA
BRANCH   2   4
ATOM      4  C   UNL     1       6.987   5.241  17.160  0.00  0.00    +0.000 C 
BRANCH   4   5
ATOM      5  C   UNL     1       7.263   6.282  18.296  0.00  0.00    +0.000 C 
ATOM      6  C   UNL     1       8.252   5.771  19.356  0.00  0.00    +0.000 C 
ATOM      7  C   UNL     1       7.829   7.606  17.748  0.00  0.00    +0.000 C 
ENDBRANCH   4   5
BRANCH   4   8
ATOM      8  C   UNL     1       6.820   5.911  15.751  0.00  0.00    +0.000 C 
ATOM      9  C   UNL     1       5.371   6.088  15.283  0.00  0.00    +0.000 C 
BRANCH   8  11
ATOM     10  C   UNL     1       6.737   4.518  13.809  0.00  0.00    +0.000 C 
ATOM     11  O   UNL     1       7.573   5.203  14.744  0.00  0.00    +0.000 OA
ENDBRANCH   8  11
ENDBRANCH   4   8
BRANCH   4  12
ATOM     12  O   UNL     1       8.174   4.404  17.085  0.00  0.00    +0.000 OA
ATOM     13  H   UNL     1       7.878   3.533  16.752  0.00  0.00    +0.000 HD
ENDBRANCH   4  12
ENDBRANCH   2   4
ENDBRANCH   1   2
BRANCH   1  14
ATOM     14  C   UNL     1       4.235   5.549  18.846  0.00  0.00    +0.000 C 
BRANCH  14  15
ATOM     15  C   UNL     1       3.068   5.052  19.644  0.00  0.00    +0.000 C 
ATOM     16  C   UNL     1       2.055   5.760  20.168  0.00  0.00    +0.000 C 
ATOM     17  C   UNL     1       1.097   4.902  20.918  0.00  0.00    +0.000 C 
ATOM     18  N   UNL     1       1.568   3.472  20.727  0.00  0.00    +0.000 N 
ATOM     19  O   UNL     1       1.701   2.806  21.915  0.00  0.00    +0.000 OA
ATOM     20  C   UNL     1       0.667   2.696  19.803  0.00  0.00    +0.000 C 
ATOM     21  C   UNL     1       1.586   1.782  19.033  0.00  0.00    +0.000 C 
ATOM     22  C   UNL     1       2.835   2.617  18.810  0.00  0.00    +0.000 C 
ATOM     23  C   UNL     1       2.914   3.588  19.996  0.00  0.00    +0.000 C 
BRANCH  22  24
ATOM     24  O   UNL     1       3.981   1.768  18.752  0.00  0.00    +0.000 OA
ATOM     25  H   UNL     1       4.233   1.541  19.669  0.00  0.00    +0.000 HD
ENDBRANCH  22  24
ENDBRANCH  14  15
ENDBRANCH   1  14
TORSDOF 9
ENDMDL
MODEL 7
REMARK VINA RESULT:      -7.3      1.292      2.070
REMARK  Name = 
REMARK  13 active torsions:
REMARK  status: ('A' for Active; 'I' for Inactive)
REMARK    1  A    between atoms: C_1  and  O_2
REMARK    2  A    between atoms: O_2  and  C_3
REMARK    3  A    between atoms: C_3  and  C_4
REMARK    4  A    between atoms: C_3  and  C_5
REMARK    5  A    between atoms: C_5  and  O_6
REMARK    6  A    between atoms: C_5  and  C_7
REMARK    7  A    between atoms: C_5  and  C_21
REMARK    8  A    between atoms: C_7  and  O_9
REMARK    9  A    between atoms: O_9  and  C_10
REMARK   10  A    between atoms: C_10  and  C_11
REMARK   11  A    between atoms: C_18  and  O_19
REMARK   12  A    between atoms: C_21  and  C_22
REMARK   13  A    between atoms: C_21  and  C_23
REMARK                            x       y       z     vdW  Elec       q    Type
REMARK                         _______ _______ _______ _____ _____    ______ ____
ROOT
ATOM      1  O   UNL     1       5.028   5.978  18.233  0.00  0.00    +0.000 OA
ENDROOT
BRANCH   1   2
ATOM      2  C   UNL     1       5.892   4.941  18.059  0.00  0.00    +0.000 C 
ATOM      3  O   UNL     1       5.811   3.868  18.653  0.00  0.00    +0.000 OA
BRANCH   2   4
ATOM      4  C   UNL     1       7.062   5.272  17.092  0.00  0.00    +0.000 C 
BRANCH   4   5
ATOM      5  C   UNL     1       7.870   6.516  17.590  0.00  0.00    +0.000 C 
ATOM      6  C   UNL     1       7.163   7.850  17.302  0.00  0.00    +0.000 C 
ATOM      7  C   UNL     1       8.143   6.465  19.106  0.00  0.00    +0.000 C 
ENDBRANCH   4   5
BRANCH   4   8
ATOM      8  C   UNL     1       6.588   5.414  15.602  0.00  0.00    +0.000 C 
ATOM      9  C   UNL     1       5.604   4.340  15.127  0.00  0.00    +0.000 C 
BRANCH   8  11
ATOM     10  C   UNL     1       7.437   4.882  13.431  0.00  0.00    +0.000 C 
ATOM     11  O   UNL     1       7.714   5.474  14.701  0.00  0.00    +0.000 OA
ENDBRANCH   8  11
ENDBRANCH   4   8
BRANCH   4  12
ATOM     12  O   UNL     1       7.985   4.150  17.130  0.00  0.00    +0.000 OA
ATOM     13  H   UNL     1       8.547   4.280  17.920  0.00  0.00    +0.000 HD
ENDBRANCH   4  12
ENDBRANCH   2   4
ENDBRANCH   1   2
BRANCH   1  14
ATOM     14  C   UNL     1       3.651   5.733  17.877  0.00  0.00    +0.000 C 
BRANCH  14  15
ATOM     15  C   UNL     1       2.835   5.328  19.066  0.00  0.00    +0.000 C 
ATOM     16  C   UNL     1       2.079   6.101  19.861  0.00  0.00    +0.000 C 
ATOM     17  C   UNL     1       1.438   5.325  20.958  0.00  0.00    +0.000 C 
ATOM     18  N   UNL     1       1.797   3.871  20.715  0.00  0.00    +0.000 N 
ATOM     19  O   UNL     1       2.333   3.276  21.825  0.00  0.00    +0.000 OA
ATOM     20  C   UNL     1       0.620   3.069  20.223  0.00  0.00    +0.000 C 
ATOM     21  C   UNL     1       1.200   2.078  19.246  0.00  0.00    +0.000 C 
ATOM     22  C   UNL     1       2.298   2.855  18.541  0.00  0.00    +0.000 C 
ATOM     23  C   UNL     1       2.800   3.894  19.552  0.00  0.00    +0.000 C 
BRANCH  22  24
ATOM     24  O   UNL     1       3.342   1.964  18.144  0.00  0.00    +0.000 OA
ATOM     25  H   UNL     1       3.793   1.652  18.954  0.00  0.00    +0.000 HD
ENDBRANCH  22  24
ENDBRANCH  14  15
ENDBRANCH   1  14
TORSDOF 9
ENDMDL
MODEL 8
REMARK VINA RESULT:      -7.1      1.527      2.126
REMARK  Name = 
REMARK  13 active torsions:
REMARK  status: ('A' for Active; 'I' for Inactive)
REMARK    1  A    between atoms: C_1  and  O_2
REMARK    2  A    between atoms: O_2  and  C_3
REMARK    3  A    between atoms: C_3  and  C_4
REMARK    4  A    between atoms: C_3  and  C_5
REMARK    5  A    between atoms: C_5  and  O_6
REMARK    6  A    between atoms: C_5  and  C_7
REMARK    7  A    between atoms: C_5  and  C_21
REMARK    8  A    between atoms: C_7  and  O_9
REMARK    9  A    between atoms: O_9  and  C_10
REMARK   10  A    between atoms: C_10  and  C_11
REMARK   11  A    between atoms: C_18  and  O_19
REMARK   12  A    between atoms: C_21  and  C_22
REMARK   13  A    between atoms: C_21  and  C_23
REMARK                            x       y       z     vdW  Elec       q    Type
REMARK                         _______ _______ _______ _____ _____    ______ ____
ROOT
ATOM      1  O   UNL     1       6.441   3.964  18.390  0.00  0.00    +0.000 OA
ENDROOT
BRANCH   1   2
ATOM      2  C   UNL     1       7.039   5.147  18.086  0.00  0.00    +0.000 C 
ATOM      3  O   UNL     1       7.716   5.802  18.876  0.00  0.00    +0.000 OA
BRANCH   2   4
ATOM      4  C   UNL     1       6.711   5.650  16.653  0.00  0.00    +0.000 C 
BRANCH   4   5
ATOM      5  C   UNL     1       5.230   6.147  16.556  0.00  0.00    +0.000 C 
ATOM      6  C   UNL     1       4.820   7.055  17.727  0.00  0.00    +0.000 C 
ATOM      7  C   UNL     1       4.962   6.931  15.257  0.00  0.00    +0.000 C 
ENDBRANCH   4   5
BRANCH   4   8
ATOM      8  C   UNL     1       7.070   4.594  15.548  0.00  0.00    +0.000 C 
ATOM      9  C   UNL     1       7.715   5.172  14.284  0.00  0.00    +0.000 C 
BRANCH   8  11
ATOM     10  C   UNL     1       5.744   3.691  13.775  0.00  0.00    +0.000 C 
ATOM     11  O   UNL     1       5.918   3.804  15.189  0.00  0.00    +0.000 OA
ENDBRANCH   8  11
ENDBRANCH   4   8
BRANCH   4  12
ATOM     12  O   UNL     1       7.544   6.815  16.402  0.00  0.00    +0.000 OA
ATOM     13  H   UNL     1       8.019   6.641  15.565  0.00  0.00    +0.000 HD
ENDBRANCH   4  12
ENDBRANCH   2   4
ENDBRANCH   1   2
BRANCH   1  14
ATOM     14  C   UNL     1       5.362   4.017  19.348  0.00  0.00    +0.000 C 
BRANCH  14  15
ATOM     15  C   UNL     1       4.080   3.503  18.767  0.00  0.00    +0.000 C 
ATOM     16  C   UNL     1       3.880   2.390  18.043  0.00  0.00    +0.000 C 
ATOM     17  C   UNL     1       2.459   2.236  17.627  0.00  0.00    +0.000 C 
ATOM     18  N   UNL     1       1.700   3.377  18.280  0.00  0.00    +0.000 N 
ATOM     19  O   UNL     1       0.948   4.082  17.380  0.00  0.00    +0.000 OA
ATOM     20  C   UNL     1       0.829   2.903  19.414  0.00  0.00    +0.000 C 
ATOM     21  C   UNL     1       0.884   4.008  20.439  0.00  0.00    +0.000 C 
ATOM     22  C   UNL     1       2.316   4.509  20.365  0.00  0.00    +0.000 C 
ATOM     23  C   UNL     1       2.779   4.260  18.924  0.00  0.00    +0.000 C 
BRANCH  22  24
ATOM     24  O   UNL     1       2.359   5.898  20.696  0.00  0.00    +0.000 OA
ATOM     25  H   UNL     1       2.709   6.380  19.921  0.00  0.00    +0.000 HD
ENDBRANCH  22  24
ENDBRANCH  14  15
ENDBRANCH   1  14
TORSDOF 9
ENDMDL
MODEL 9
REMARK VINA RESULT:      -7.1      1.645      2.775
REMARK  Name = 
REMARK  13 active torsions:
REMARK  status: ('A' for Active; 'I' for Inactive)
REMARK    1  A    between atoms: C_1  and  O_2
REMARK    2  A    between atoms: O_2  and  C_3
REMARK    3  A    between atoms: C_3  and  C_4
REMARK    4  A    between atoms: C_3  and  C_5
REMARK    5  A    between atoms: C_5  and  O_6
REMARK    6  A    between atoms: C_5  and  C_7
REMARK    7  A    between atoms: C_5  and  C_21
REMARK    8  A    between atoms: C_7  and  O_9
REMARK    9  A    between atoms: O_9  and  C_10
REMARK   10  A    between atoms: C_10  and  C_11
REMARK   11  A    between atoms: C_18  and  O_19
REMARK   12  A    between atoms: C_21  and  C_22
REMARK   13  A    between atoms: C_21  and  C_23
REMARK                            x       y       z     vdW  Elec       q    Type
REMARK                         _______ _______ _______ _____ _____    ______ ____
ROOT
ATOM      1  O   UNL     1       5.918   3.981  17.704  0.00  0.00    +0.000 OA
ENDROOT
BRANCH   1   2
ATOM      2  C   UNL     1       7.024   4.511  17.114  0.00  0.00    +0.000 C 
ATOM      3  O   UNL     1       8.175   4.160  17.365  0.00  0.00    +0.000 OA
BRANCH   2   4
ATOM      4  C   UNL     1       6.702   5.680  16.144  0.00  0.00    +0.000 C 
BRANCH   4   5
ATOM      5  C   UNL     1       5.376   6.403  16.553  0.00  0.00    +0.000 C 
ATOM      6  C   UNL     1       5.596   7.542  17.562  0.00  0.00    +0.000 C 
ATOM      7  C   UNL     1       4.642   7.006  15.340  0.00  0.00    +0.000 C 
ENDBRANCH   4   5
BRANCH   4   8
ATOM      8  C   UNL     1       6.709   5.232  14.639  0.00  0.00    +0.000 C 
ATOM      9  C   UNL     1       6.260   3.789  14.389  0.00  0.00    +0.000 C 
BRANCH   8  11
ATOM     10  C   UNL     1       7.973   5.340  12.613  0.00  0.00    +0.000 C 
ATOM     11  O   UNL     1       8.002   5.451  14.037  0.00  0.00    +0.000 OA
ENDBRANCH   8  11
ENDBRANCH   4   8
BRANCH   4  12
ATOM     12  O   UNL     1       7.760   6.667  16.289  0.00  0.00    +0.000 OA
ATOM     13  H   UNL     1       8.042   6.906  15.384  0.00  0.00    +0.000 HD
ENDBRANCH   4  12
ENDBRANCH   2   4
ENDBRANCH   1   2
BRANCH   1  14
ATOM     14  C   UNL     1       5.729   4.284  19.103  0.00  0.00    +0.000 C 
BRANCH  14  15
ATOM     15  C   UNL     1       4.278   4.291  19.477  0.00  0.00    +0.000 C 
ATOM     16  C   UNL     1       3.492   5.346  19.747  0.00  0.00    +0.000 C 
ATOM     17  C   UNL     1       2.105   4.938  20.101  0.00  0.00    +0.000 C 
ATOM     18  N   UNL     1       2.046   3.432  19.924  0.00  0.00    +0.000 N 
ATOM     19  O   UNL     1       1.554   2.797  21.032  0.00  0.00    +0.000 OA
ATOM     20  C   UNL     1       1.249   3.034  18.709  0.00  0.00    +0.000 C 
ATOM     21  C   UNL     1       1.951   1.819  18.158  0.00  0.00    +0.000 C 
ATOM     22  C   UNL     1       3.425   2.109  18.387  0.00  0.00    +0.000 C 
ATOM     23  C   UNL     1       3.493   3.006  19.630  0.00  0.00    +0.000 C 
BRANCH  22  24
ATOM     24  O   UNL     1       4.133   0.885  18.586  0.00  0.00    +0.000 OA
ATOM     25  H   UNL     1       3.728   0.425  19.348  0.00  0.00    +0.000 HD
ENDBRANCH  22  24
ENDBRANCH  14  15
ENDBRANCH   1  14
TORSDOF 9
ENDMDL
