MODEL 1
REMARK VINA RESULT:      -8.7      0.000      0.000
REMARK  Name = 
REMARK  4 active torsions:
REMARK  status: ('A' for Active; 'I' for Inactive)
REMARK    1  A    between atoms: N_1  and  S_2
REMARK    2  A    between atoms: S_2  and  C_5
REMARK    3  A    between atoms: C_8  and  C_9
REMARK    4  A    between atoms: C_15  and  C_17
REMARK                            x       y       z     vdW  Elec       q    Type
REMARK                         _______ _______ _______ _____ _____    ______ ____
ROOT
ATOM      1  C   UNL     1       1.071   8.941  20.237  0.00  0.00    +0.000 A 
ATOM      2  C   UNL     1       1.479   9.212  18.913  0.00  0.00    +0.000 A 
ATOM      3  C   UNL     1       2.238   8.325  18.153  0.00  0.00    +0.000 A 
ATOM      4  C   UNL     1       2.664   7.139  18.754  0.00  0.00    +0.000 A 
ATOM      5  C   UNL     1       3.480   6.047  18.350  0.00  0.00    +0.000 A 
ATOM      6  N   UNL     1       4.124   5.995  17.128  0.00  0.00    +0.000 N 
ATOM      7  C   UNL     1       4.842   4.921  16.669  0.00  0.00    +0.000 C 
ATOM      8  O   UNL     1       4.981   3.829  17.196  0.00  0.00    +0.000 OA
ATOM      9  N   UNL     1       3.548   5.127  19.312  0.00  0.00    +0.000 NA
ATOM     10  N   UNL     1       2.815   5.628  20.316  0.00  0.00    +0.000 N 
ATOM     11  C   UNL     1       2.269   6.857  20.057  0.00  0.00    +0.000 A 
ATOM     12  C   UNL     1       1.474   7.728  20.828  0.00  0.00    +0.000 A 
ATOM     13  H   UNL     1       4.046   6.817  16.549  0.00  0.00    +0.000 HD
ATOM     14  H   UNL     1       2.733   5.073  21.161  0.00  0.00    +0.000 HD
ENDROOT
BRANCH   1  18
ATOM     15  C   UNL     1      -1.577  11.625  22.284  0.00  0.00    +0.000 A 
ATOM     16  C   UNL     1      -0.929  10.613  22.977  0.00  0.00    +0.000 A 
ATOM     17  C   UNL     1      -0.016   9.812  22.302  0.00  0.00    +0.000 A 
ATOM     18  C   UNL     1       0.229   9.952  20.918  0.00  0.00    +0.000 A 
ATOM     19  C   UNL     1      -0.421  11.002  20.246  0.00  0.00    +0.000 A 
ATOM     20  C   UNL     1      -1.318  11.840  20.926  0.00  0.00    +0.000 A 
BRANCH  15  21
ATOM     21  S   UNL     1      -2.660  12.696  23.180  0.00  0.00    +0.000 S 
ATOM     22  O   UNL     1      -1.886  13.767  23.767  0.00  0.00    +0.000 OA
ATOM     23  O   UNL     1      -3.599  11.902  23.933  0.00  0.00    +0.000 OA
BRANCH  21  24
ATOM     24  N   UNL     1      -3.548  13.368  21.919  0.00  0.00    +0.000 NA
ATOM     25  H   UNL     1      -4.089  14.165  22.260  0.00  0.00    +0.000 HD
ATOM     26  H   UNL     1      -4.096  12.657  21.438  0.00  0.00    +0.000 HD
ENDBRANCH  21  24
ENDBRANCH  15  21
ENDBRANCH   1  18
BRANCH   7  27
ATOM     27  C   UNL     1       5.453   5.161  15.319  0.00  0.00    +0.000 C 
ATOM     28  C   UNL     1       6.946   4.979  15.134  0.00  0.00    +0.000 C 
ATOM     29  C   UNL     1       5.993   3.989  14.531  0.00  0.00    +0.000 C 
ENDBRANCH   7  27
TORSDOF 4
ENDMDL
MODEL 2
REMARK VINA RESULT:      -8.5      0.353      1.029
REMARK  Name = 
REMARK  4 active torsions:
REMARK  status: ('A' for Active; 'I' for Inactive)
REMARK    1  A    between atoms: N_1  and  S_2
REMARK    2  A    between atoms: S_2  and  C_5
REMARK    3  A    between atoms: C_8  and  C_9
REMARK    4  A    between atoms: C_15  and  C_17
REMARK                            x       y       z     vdW  Elec       q    Type
REMARK                         _______ _______ _______ _____ _____    ______ ____
ROOT
ATOM      1  C   UNL     1       1.064   8.536  20.292  0.00  0.00    +0.000 A 
ATOM      2  C   UNL     1       1.437   8.886  18.976  0.00  0.00    +0.000 A 
ATOM      3  C   UNL     1       2.238   8.079  18.171  0.00  0.00    +0.000 A 
ATOM      4  C   UNL     1       2.744   6.898  18.718  0.00  0.00    +0.000 A 
ATOM      5  C   UNL     1       3.620   5.876  18.260  0.00  0.00    +0.000 A 
ATOM      6  N   UNL     1       4.249   5.915  17.029  0.00  0.00    +0.000 N 
ATOM      7  C   UNL     1       5.025   4.907  16.518  0.00  0.00    +0.000 C 
ATOM      8  O   UNL     1       5.239   3.805  16.997  0.00  0.00    +0.000 OA
ATOM      9  N   UNL     1       3.758   4.924  19.181  0.00  0.00    +0.000 NA
ATOM     10  N   UNL     1       3.009   5.336  20.214  0.00  0.00    +0.000 N 
ATOM     11  C   UNL     1       2.386   6.539  20.012  0.00  0.00    +0.000 A 
ATOM     12  C   UNL     1       1.549   7.327  20.828  0.00  0.00    +0.000 A 
ATOM     13  H   UNL     1       4.113   6.753  16.486  0.00  0.00    +0.000 HD
ATOM     14  H   UNL     1       2.972   4.744  21.035  0.00  0.00    +0.000 HD
ENDROOT
BRANCH   1  18
ATOM     15  C   UNL     1      -1.314  11.467  22.332  0.00  0.00    +0.000 A 
ATOM     16  C   UNL     1      -1.138  11.538  20.958  0.00  0.00    +0.000 A 
ATOM     17  C   UNL     1      -0.430  10.529  20.316  0.00  0.00    +0.000 A 
ATOM     18  C   UNL     1       0.171   9.464  21.024  0.00  0.00    +0.000 A 
ATOM     19  C   UNL     1      -0.045   9.402  22.411  0.00  0.00    +0.000 A 
ATOM     20  C   UNL     1      -0.790  10.396  23.065  0.00  0.00    +0.000 A 
BRANCH  15  21
ATOM     21  S   UNL     1      -2.300  12.705  23.118  0.00  0.00    +0.000 S 
ATOM     22  O   UNL     1      -1.430  13.685  23.728  0.00  0.00    +0.000 OA
ATOM     23  O   UNL     1      -3.386  12.072  23.824  0.00  0.00    +0.000 OA
BRANCH  21  24
ATOM     24  N   UNL     1      -3.002  13.441  21.778  0.00  0.00    +0.000 NA
ATOM     25  H   UNL     1      -3.330  12.731  21.121  0.00  0.00    +0.000 HD
ATOM     26  H   UNL     1      -2.377  14.137  21.375  0.00  0.00    +0.000 HD
ENDBRANCH  21  24
ENDBRANCH  15  21
ENDBRANCH   1  18
BRANCH   7  27
ATOM     27  C   UNL     1       5.603   5.239  15.172  0.00  0.00    +0.000 C 
ATOM     28  C   UNL     1       7.065   4.954  14.897  0.00  0.00    +0.000 C 
ATOM     29  C   UNL     1       6.006   4.118  14.242  0.00  0.00    +0.000 C 
ENDBRANCH   7  27
TORSDOF 4
ENDMDL
MODEL 3
REMARK VINA RESULT:      -8.2      3.444      9.777
REMARK  Name = 
REMARK  4 active torsions:
REMARK  status: ('A' for Active; 'I' for Inactive)
REMARK    1  A    between atoms: N_1  and  S_2
REMARK    2  A    between atoms: S_2  and  C_5
REMARK    3  A    between atoms: C_8  and  C_9
REMARK    4  A    between atoms: C_15  and  C_17
REMARK                            x       y       z     vdW  Elec       q    Type
REMARK                         _______ _______ _______ _____ _____    ______ ____
ROOT
ATOM      1  C   UNL     1       1.515   8.645  19.066  0.00  0.00    +0.000 A 
ATOM      2  C   UNL     1       1.121   8.757  20.417  0.00  0.00    +0.000 A 
ATOM      3  C   UNL     1       0.167   9.671  20.859  0.00  0.00    +0.000 A 
ATOM      4  C   UNL     1      -0.377  10.559  19.928  0.00  0.00    +0.000 A 
ATOM      5  C   UNL     1      -1.293  11.644  19.994  0.00  0.00    +0.000 A 
ATOM      6  N   UNL     1      -1.840  12.101  21.178  0.00  0.00    +0.000 N 
ATOM      7  C   UNL     1      -2.794  13.082  21.270  0.00  0.00    +0.000 C 
ATOM      8  O   UNL     1      -3.367  13.661  20.361  0.00  0.00    +0.000 OA
ATOM      9  N   UNL     1      -1.510  12.154  18.782  0.00  0.00    +0.000 NA
ATOM     10  N   UNL     1      -0.734  11.429  17.963  0.00  0.00    +0.000 N 
ATOM     11  C   UNL     1       0.001  10.460  18.593  0.00  0.00    +0.000 A 
ATOM     12  C   UNL     1       0.939   9.519  18.124  0.00  0.00    +0.000 A 
ATOM     13  H   UNL     1      -1.500  11.667  22.022  0.00  0.00    +0.000 HD
ATOM     14  H   UNL     1      -0.751  11.656  16.975  0.00  0.00    +0.000 HD
ENDROOT
BRANCH   1  18
ATOM     15  C   UNL     1       4.546   5.693  18.354  0.00  0.00    +0.000 A 
ATOM     16  C   UNL     1       3.696   5.578  19.445  0.00  0.00    +0.000 A 
ATOM     17  C   UNL     1       2.674   6.506  19.602  0.00  0.00    +0.000 A 
ATOM     18  C   UNL     1       2.507   7.600  18.724  0.00  0.00    +0.000 A 
ATOM     19  C   UNL     1       3.365   7.677  17.613  0.00  0.00    +0.000 A 
ATOM     20  C   UNL     1       4.378   6.724  17.423  0.00  0.00    +0.000 A 
BRANCH  15  21
ATOM     21  S   UNL     1       5.778   4.449  18.115  0.00  0.00    +0.000 S 
ATOM     22  O   UNL     1       7.003   4.867  18.761  0.00  0.00    +0.000 OA
ATOM     23  O   UNL     1       5.729   3.986  16.751  0.00  0.00    +0.000 OA
BRANCH  21  24
ATOM     24  N   UNL     1       5.140   3.196  19.040  0.00  0.00    +0.000 NA
ATOM     25  H   UNL     1       4.126   3.294  19.106  0.00  0.00    +0.000 HD
ATOM     26  H   UNL     1       5.620   3.122  19.935  0.00  0.00    +0.000 HD
ENDBRANCH  21  24
ENDBRANCH  15  21
ENDBRANCH   1  18
BRANCH   7  27
ATOM     27  C   UNL     1      -3.180  13.390  22.687  0.00  0.00    +0.000 C 
ATOM     28  C   UNL     1      -4.527  12.933  23.209  0.00  0.00    +0.000 C 
ATOM     29  C   UNL     1      -3.274  12.263  23.691  0.00  0.00    +0.000 C 
ENDBRANCH   7  27
TORSDOF 4
ENDMDL
MODEL 4
REMARK VINA RESULT:      -8.2      3.675      9.777
REMARK  Name = 
REMARK  4 active torsions:
REMARK  status: ('A' for Active; 'I' for Inactive)
REMARK    1  A    between atoms: N_1  and  S_2
REMARK    2  A    between atoms: S_2  and  C_5
REMARK    3  A    between atoms: C_8  and  C_9
REMARK    4  A    between atoms: C_15  and  C_17
REMARK                            x       y       z     vdW  Elec       q    Type
REMARK                         _______ _______ _______ _____ _____    ______ ____
ROOT
ATOM      1  C   UNL     1       2.531   7.849  18.566  0.00  0.00    +0.000 A 
ATOM      2  C   UNL     1       1.955   8.928  17.863  0.00  0.00    +0.000 A 
ATOM      3  C   UNL     1       1.053   9.819  18.441  0.00  0.00    +0.000 A 
ATOM      4  C   UNL     1       0.656   9.593  19.761  0.00  0.00    +0.000 A 
ATOM      5  C   UNL     1      -0.263  10.212  20.652  0.00  0.00    +0.000 A 
ATOM      6  N   UNL     1      -1.074  11.270  20.287  0.00  0.00    +0.000 N 
ATOM      7  C   UNL     1      -1.903  11.949  21.142  0.00  0.00    +0.000 C 
ATOM      8  O   UNL     1      -2.022  11.803  22.348  0.00  0.00    +0.000 OA
ATOM      9  N   UNL     1      -0.241   9.615  21.843  0.00  0.00    +0.000 NA
ATOM     10  N   UNL     1       0.651   8.622  21.711  0.00  0.00    +0.000 N 
ATOM     11  C   UNL     1       1.216   8.533  20.467  0.00  0.00    +0.000 A 
ATOM     12  C   UNL     1       2.154   7.644  19.908  0.00  0.00    +0.000 A 
ATOM     13  H   UNL     1      -1.037  11.545  19.318  0.00  0.00    +0.000 HD
ATOM     14  H   UNL     1       0.823   8.034  22.519  0.00  0.00    +0.000 HD
ENDROOT
BRANCH   1  18
ATOM     15  C   UNL     1       5.574   5.443  16.733  0.00  0.00    +0.000 A 
ATOM     16  C   UNL     1       4.980   5.039  17.921  0.00  0.00    +0.000 A 
ATOM     17  C   UNL     1       3.941   5.799  18.445  0.00  0.00    +0.000 A 
ATOM     18  C   UNL     1       3.511   7.003  17.845  0.00  0.00    +0.000 A 
ATOM     19  C   UNL     1       4.112   7.374  16.630  0.00  0.00    +0.000 A 
ATOM     20  C   UNL     1       5.137   6.595  16.071  0.00  0.00    +0.000 A 
BRANCH  15  21
ATOM     21  S   UNL     1       6.825   4.413  16.029  0.00  0.00    +0.000 S 
ATOM     22  O   UNL     1       6.196   3.307  15.342  0.00  0.00    +0.000 OA
ATOM     23  O   UNL     1       7.893   4.240  16.982  0.00  0.00    +0.000 OA
BRANCH  21  24
ATOM     24  N   UNL     1       7.441   5.436  14.844  0.00  0.00    +0.000 NA
ATOM     25  H   UNL     1       7.162   6.400  15.036  0.00  0.00    +0.000 HD
ATOM     26  H   UNL     1       7.202   5.102  13.912  0.00  0.00    +0.000 HD
ENDBRANCH  21  24
ENDBRANCH  15  21
ENDBRANCH   1  18
BRANCH   7  27
ATOM     27  C   UNL     1      -2.686  13.033  20.460  0.00  0.00    +0.000 C 
ATOM     28  C   UNL     1      -4.097  12.748  19.986  0.00  0.00    +0.000 C 
ATOM     29  C   UNL     1      -3.874  13.646  21.167  0.00  0.00    +0.000 C 
ENDBRANCH   7  27
TORSDOF 4
ENDMDL
MODEL 5
REMARK VINA RESULT:      -8.1      3.848     10.005
REMARK  Name = 
REMARK  4 active torsions:
REMARK  status: ('A' for Active; 'I' for Inactive)
REMARK    1  A    between atoms: N_1  and  S_2
REMARK    2  A    between atoms: S_2  and  C_5
REMARK    3  A    between atoms: C_8  and  C_9
REMARK    4  A    between atoms: C_15  and  C_17
REMARK                            x       y       z     vdW  Elec       q    Type
REMARK                         _______ _______ _______ _____ _____    ______ ____
ROOT
ATOM      1  C   UNL     1       2.431   7.934  18.475  0.00  0.00    +0.000 A 
ATOM      2  C   UNL     1       2.144   7.862  19.855  0.00  0.00    +0.000 A 
ATOM      3  C   UNL     1       1.189   8.663  20.477  0.00  0.00    +0.000 A 
ATOM      4  C   UNL     1       0.530   9.624  19.706  0.00  0.00    +0.000 A 
ATOM      5  C   UNL     1      -0.426  10.642  19.974  0.00  0.00    +0.000 A 
ATOM      6  N   UNL     1      -0.895  10.923  21.244  0.00  0.00    +0.000 N 
ATOM      7  C   UNL     1      -1.881  11.832  21.527  0.00  0.00    +0.000 C 
ATOM      8  O   UNL     1      -2.553  12.482  20.742  0.00  0.00    +0.000 OA
ATOM      9  N   UNL     1      -0.765  11.278  18.854  0.00  0.00    +0.000 NA
ATOM     10  N   UNL     1      -0.026  10.700  17.896  0.00  0.00    +0.000 N 
ATOM     11  C   UNL     1       0.802   9.706  18.345  0.00  0.00    +0.000 A 
ATOM     12  C   UNL     1       1.739   8.880  17.694  0.00  0.00    +0.000 A 
ATOM     13  H   UNL     1      -0.467  10.412  22.000  0.00  0.00    +0.000 HD
ATOM     14  H   UNL     1      -0.135  11.041  16.948  0.00  0.00    +0.000 HD
ENDROOT
BRANCH   1  18
ATOM     15  C   UNL     1       5.312   5.358  16.611  0.00  0.00    +0.000 A 
ATOM     16  C   UNL     1       5.554   6.720  16.720  0.00  0.00    +0.000 A 
ATOM     17  C   UNL     1       4.639   7.514  17.401  0.00  0.00    +0.000 A 
ATOM     18  C   UNL     1       3.438   6.993  17.932  0.00  0.00    +0.000 A 
ATOM     19  C   UNL     1       3.231   5.606  17.831  0.00  0.00    +0.000 A 
ATOM     20  C   UNL     1       4.166   4.788  17.178  0.00  0.00    +0.000 A 
BRANCH  15  21
ATOM     21  S   UNL     1       6.533   4.349  15.829  0.00  0.00    +0.000 S 
ATOM     22  O   UNL     1       5.907   3.138  15.346  0.00  0.00    +0.000 OA
ATOM     23  O   UNL     1       7.733   4.347  16.628  0.00  0.00    +0.000 OA
BRANCH  21  24
ATOM     24  N   UNL     1       6.893   5.285  14.478  0.00  0.00    +0.000 NA
ATOM     25  H   UNL     1       7.905   5.397  14.391  0.00  0.00    +0.000 HD
ATOM     26  H   UNL     1       6.368   6.157  14.487  0.00  0.00    +0.000 HD
ENDBRANCH  21  24
ENDBRANCH  15  21
ENDBRANCH   1  18
BRANCH   7  27
ATOM     27  C   UNL     1      -2.164  11.948  22.997  0.00  0.00    +0.000 C 
ATOM     28  C   UNL     1      -2.119  13.310  23.660  0.00  0.00    +0.000 C 
ATOM     29  C   UNL     1      -3.437  12.623  23.455  0.00  0.00    +0.000 C 
ENDBRANCH   7  27
TORSDOF 4
ENDMDL
MODEL 6
REMARK VINA RESULT:      -8.1      0.993      1.389
REMARK  Name = 
REMARK  4 active torsions:
REMARK  status: ('A' for Active; 'I' for Inactive)
REMARK    1  A    between atoms: N_1  and  S_2
REMARK    2  A    between atoms: S_2  and  C_5
REMARK    3  A    between atoms: C_8  and  C_9
REMARK    4  A    between atoms: C_15  and  C_17
REMARK                            x       y       z     vdW  Elec       q    Type
REMARK                         _______ _______ _______ _____ _____    ______ ____
ROOT
ATOM      1  C   UNL     1       1.036   9.150  20.340  0.00  0.00    +0.000 A 
ATOM      2  C   UNL     1       1.437   9.355  19.002  0.00  0.00    +0.000 A 
ATOM      3  C   UNL     1       2.147   8.409  18.267  0.00  0.00    +0.000 A 
ATOM      4  C   UNL     1       2.531   7.228  18.907  0.00  0.00    +0.000 A 
ATOM      5  C   UNL     1       3.295   6.088  18.534  0.00  0.00    +0.000 A 
ATOM      6  N   UNL     1       3.919   5.965  17.307  0.00  0.00    +0.000 N 
ATOM      7  C   UNL     1       4.585   4.845  16.880  0.00  0.00    +0.000 C 
ATOM      8  O   UNL     1       4.686   3.768  17.446  0.00  0.00    +0.000 OA
ATOM      9  N   UNL     1       3.337   5.203  19.528  0.00  0.00    +0.000 NA
ATOM     10  N   UNL     1       2.639   5.771  20.522  0.00  0.00    +0.000 N 
ATOM     11  C   UNL     1       2.142   7.012  20.224  0.00  0.00    +0.000 A 
ATOM     12  C   UNL     1       1.395   7.943  20.971  0.00  0.00    +0.000 A 
ATOM     13  H   UNL     1       3.869   6.767  16.699  0.00  0.00    +0.000 HD
ATOM     14  H   UNL     1       2.545   5.252  21.387  0.00  0.00    +0.000 HD
ENDROOT
BRANCH   1  18
ATOM     15  C   UNL     1      -0.968  12.413  22.276  0.00  0.00    +0.000 A 
ATOM     16  C   UNL     1      -0.310  12.609  21.070  0.00  0.00    +0.000 A 
ATOM     17  C   UNL     1       0.260  11.516  20.429  0.00  0.00    +0.000 A 
ATOM     18  C   UNL     1       0.246  10.221  20.993  0.00  0.00    +0.000 A 
ATOM     19  C   UNL     1      -0.450  10.045  22.201  0.00  0.00    +0.000 A 
ATOM     20  C   UNL     1      -1.061  11.135  22.840  0.00  0.00    +0.000 A 
BRANCH  15  21
ATOM     21  S   UNL     1      -1.771  13.795  23.029  0.00  0.00    +0.000 S 
ATOM     22  O   UNL     1      -2.282  14.666  21.994  0.00  0.00    +0.000 OA
ATOM     23  O   UNL     1      -0.969  14.271  24.129  0.00  0.00    +0.000 OA
BRANCH  21  24
ATOM     24  N   UNL     1      -3.099  13.040  23.733  0.00  0.00    +0.000 NA
ATOM     25  H   UNL     1      -3.964  13.425  23.347  0.00  0.00    +0.000 HD
ATOM     26  H   UNL     1      -3.038  13.066  24.749  0.00  0.00    +0.000 HD
ENDBRANCH  21  24
ENDBRANCH  15  21
ENDBRANCH   1  18
BRANCH   7  27
ATOM     27  C   UNL     1       5.188   5.009  15.515  0.00  0.00    +0.000 C 
ATOM     28  C   UNL     1       6.687   5.181  15.378  0.00  0.00    +0.000 C 
ATOM     29  C   UNL     1       6.042   3.899  14.944  0.00  0.00    +0.000 C 
ENDBRANCH   7  27
TORSDOF 4
ENDMDL
MODEL 7
REMARK VINA RESULT:      -8.0      3.741      9.824
REMARK  Name = 
REMARK  4 active torsions:
REMARK  status: ('A' for Active; 'I' for Inactive)
REMARK    1  A    between atoms: N_1  and  S_2
REMARK    2  A    between atoms: S_2  and  C_5
REMARK    3  A    between atoms: C_8  and  C_9
REMARK    4  A    between atoms: C_15  and  C_17
REMARK                            x       y       z     vdW  Elec       q    Type
REMARK                         _______ _______ _______ _____ _____    ______ ____
ROOT
ATOM      1  C   UNL     1       2.580   7.761  18.596  0.00  0.00    +0.000 A 
ATOM      2  C   UNL     1       2.001   8.800  17.837  0.00  0.00    +0.000 A 
ATOM      3  C   UNL     1       1.075   9.700  18.360  0.00  0.00    +0.000 A 
ATOM      4  C   UNL     1       0.658   9.525  19.681  0.00  0.00    +0.000 A 
ATOM      5  C   UNL     1      -0.286  10.168  20.529  0.00  0.00    +0.000 A 
ATOM      6  N   UNL     1      -1.106  11.196  20.104  0.00  0.00    +0.000 N 
ATOM      7  C   UNL     1      -1.960  11.898  20.914  0.00  0.00    +0.000 C 
ATOM      8  O   UNL     1      -2.099  11.803  22.123  0.00  0.00    +0.000 OA
ATOM      9  N   UNL     1      -0.277   9.623  21.744  0.00  0.00    +0.000 NA
ATOM     10  N   UNL     1       0.632   8.639  21.671  0.00  0.00    +0.000 N 
ATOM     11  C   UNL     1       1.220   8.506  20.442  0.00  0.00    +0.000 A 
ATOM     12  C   UNL     1       2.182   7.608  19.939  0.00  0.00    +0.000 A 
ATOM     13  H   UNL     1      -1.056  11.430  19.124  0.00  0.00    +0.000 HD
ATOM     14  H   UNL     1       0.798   8.090  22.507  0.00  0.00    +0.000 HD
ENDROOT
BRANCH   1  18
ATOM     15  C   UNL     1       5.443   5.447  16.393  0.00  0.00    +0.000 A 
ATOM     16  C   UNL     1       5.668   6.794  16.638  0.00  0.00    +0.000 A 
ATOM     17  C   UNL     1       4.761   7.496  17.423  0.00  0.00    +0.000 A 
ATOM     18  C   UNL     1       3.585   6.900  17.930  0.00  0.00    +0.000 A 
ATOM     19  C   UNL     1       3.396   5.528  17.690  0.00  0.00    +0.000 A 
ATOM     20  C   UNL     1       4.324   4.800  16.929  0.00  0.00    +0.000 A 
BRANCH  15  21
ATOM     21  S   UNL     1       6.656   4.547  15.476  0.00  0.00    +0.000 S 
ATOM     22  O   UNL     1       7.376   5.462  14.619  0.00  0.00    +0.000 OA
ATOM     23  O   UNL     1       6.076   3.316  14.998  0.00  0.00    +0.000 OA
BRANCH  21  24
ATOM     24  N   UNL     1       7.710   4.098  16.708  0.00  0.00    +0.000 NA
ATOM     25  H   UNL     1       7.288   4.296  17.617  0.00  0.00    +0.000 HD
ATOM     26  H   UNL     1       8.631   4.510  16.568  0.00  0.00    +0.000 HD
ENDBRANCH  21  24
ENDBRANCH  15  21
ENDBRANCH   1  18
BRANCH   7  27
ATOM     27  C   UNL     1      -2.747  12.939  20.172  0.00  0.00    +0.000 C 
ATOM     28  C   UNL     1      -4.226  12.722  19.925  0.00  0.00    +0.000 C 
ATOM     29  C   UNL     1      -3.779  13.757  20.914  0.00  0.00    +0.000 C 
ENDBRANCH   7  27
TORSDOF 4
ENDMDL
MODEL 8
REMARK VINA RESULT:      -7.9      3.739      9.925
REMARK  Name = 
REMARK  4 active torsions:
REMARK  status: ('A' for Active; 'I' for Inactive)
REMARK    1  A    between atoms: N_1  and  S_2
REMARK    2  A    between atoms: S_2  and  C_5
REMARK    3  A    between atoms: C_8  and  C_9
REMARK    4  A    between atoms: C_15  and  C_17
REMARK                            x       y       z     vdW  Elec       q    Type
REMARK                         _______ _______ _______ _____ _____    ______ ____
ROOT
ATOM      1  C   UNL     1       2.108   8.294  18.628  0.00  0.00    +0.000 A 
ATOM      2  C   UNL     1       1.827   8.220  20.009  0.00  0.00    +0.000 A 
ATOM      3  C   UNL     1       0.866   9.012  20.634  0.00  0.00    +0.000 A 
ATOM      4  C   UNL     1       0.194   9.965  19.865  0.00  0.00    +0.000 A 
ATOM      5  C   UNL     1      -0.772  10.972  20.136  0.00  0.00    +0.000 A 
ATOM      6  N   UNL     1      -1.239  11.249  21.407  0.00  0.00    +0.000 N 
ATOM      7  C   UNL     1      -2.234  12.148  21.694  0.00  0.00    +0.000 C 
ATOM      8  O   UNL     1      -2.916  12.790  20.911  0.00  0.00    +0.000 OA
ATOM      9  N   UNL     1      -1.121  11.604  19.017  0.00  0.00    +0.000 NA
ATOM     10  N   UNL     1      -0.380  11.033  18.056  0.00  0.00    +0.000 N 
ATOM     11  C   UNL     1       0.460  10.048  18.503  0.00  0.00    +0.000 A 
ATOM     12  C   UNL     1       1.404   9.233  17.848  0.00  0.00    +0.000 A 
ATOM     13  H   UNL     1      -0.803  10.743  22.162  0.00  0.00    +0.000 HD
ATOM     14  H   UNL     1      -0.497  11.373  17.108  0.00  0.00    +0.000 HD
ENDROOT
BRANCH   1  18
ATOM     15  C   UNL     1       5.237   5.672  17.308  0.00  0.00    +0.000 A 
ATOM     16  C   UNL     1       4.557   5.415  18.490  0.00  0.00    +0.000 A 
ATOM     17  C   UNL     1       3.495   6.237  18.848  0.00  0.00    +0.000 A 
ATOM     18  C   UNL     1       3.123   7.363  18.082  0.00  0.00    +0.000 A 
ATOM     19  C   UNL     1       3.811   7.585  16.876  0.00  0.00    +0.000 A 
ATOM     20  C   UNL     1       4.861   6.739  16.485  0.00  0.00    +0.000 A 
BRANCH  15  21
ATOM     21  S   UNL     1       6.519   4.559  16.819  0.00  0.00    +0.000 S 
ATOM     22  O   UNL     1       5.948   3.508  16.005  0.00  0.00    +0.000 OA
ATOM     23  O   UNL     1       7.380   4.299  17.945  0.00  0.00    +0.000 OA
BRANCH  21  24
ATOM     24  N   UNL     1       7.411   5.544  15.788  0.00  0.00    +0.000 NA
ATOM     25  H   UNL     1       6.784   6.144  15.249  0.00  0.00    +0.000 HD
ATOM     26  H   UNL     1       8.060   4.994  15.227  0.00  0.00    +0.000 HD
ENDBRANCH  21  24
ENDBRANCH  15  21
ENDBRANCH   1  18
BRANCH   7  27
ATOM     27  C   UNL     1      -2.512  12.262  23.164  0.00  0.00    +0.000 C 
ATOM     28  C   UNL     1      -2.515  13.628  23.819  0.00  0.00    +0.000 C 
ATOM     29  C   UNL     1      -3.807  12.891  23.627  0.00  0.00    +0.000 C 
ENDBRANCH   7  27
TORSDOF 4
ENDMDL
MODEL 9
REMARK VINA RESULT:      -7.9      3.442      9.860
REMARK  Name = 
REMARK  4 active torsions:
REMARK  status: ('A' for Active; 'I' for Inactive)
REMARK    1  A    between atoms: N_1  and  S_2
REMARK    2  A    between atoms: S_2  and  C_5
REMARK    3  A    between atoms: C_8  and  C_9
REMARK    4  A    between atoms: C_15  and  C_17
REMARK                            x       y       z     vdW  Elec       q    Type
REMARK                         _______ _______ _______ _____ _____    ______ ____
ROOT
ATOM      1  C   UNL     1       1.428   8.717  19.233  0.00  0.00    +0.000 A 
ATOM      2  C   UNL     1       1.000   8.850  20.571  0.00  0.00    +0.000 A 
ATOM      3  C   UNL     1       0.026   9.762  20.972  0.00  0.00    +0.000 A 
ATOM      4  C   UNL     1      -0.505  10.625  20.011  0.00  0.00    +0.000 A 
ATOM      5  C   UNL     1      -1.435  11.700  20.033  0.00  0.00    +0.000 A 
ATOM      6  N   UNL     1      -2.016  12.173  21.195  0.00  0.00    +0.000 N 
ATOM      7  C   UNL     1      -2.982  13.145  21.245  0.00  0.00    +0.000 C 
ATOM      8  O   UNL     1      -3.540  13.699  20.311  0.00  0.00    +0.000 OA
ATOM      9  N   UNL     1      -1.628  12.183  18.807  0.00  0.00    +0.000 NA
ATOM     10  N   UNL     1      -0.825  11.452  18.021  0.00  0.00    +0.000 N 
ATOM     11  C   UNL     1      -0.094  10.504  18.688  0.00  0.00    +0.000 A 
ATOM     12  C   UNL     1       0.864   9.565  18.260  0.00  0.00    +0.000 A 
ATOM     13  H   UNL     1      -1.691  11.760  22.055  0.00  0.00    +0.000 HD
ATOM     14  H   UNL     1      -0.822  11.659  17.029  0.00  0.00    +0.000 HD
ENDROOT
BRANCH   1  18
ATOM     15  C   UNL     1       4.191   5.639  18.092  0.00  0.00    +0.000 A 
ATOM     16  C   UNL     1       4.055   6.783  17.318  0.00  0.00    +0.000 A 
ATOM     17  C   UNL     1       3.212   7.796  17.758  0.00  0.00    +0.000 A 
ATOM     18  C   UNL     1       2.440   7.676  18.934  0.00  0.00    +0.000 A 
ATOM     19  C   UNL     1       2.617   6.519  19.712  0.00  0.00    +0.000 A 
ATOM     20  C   UNL     1       3.494   5.505  19.297  0.00  0.00    +0.000 A 
BRANCH  15  21
ATOM     21  S   UNL     1       5.341   4.404  17.568  0.00  0.00    +0.000 S 
ATOM     22  O   UNL     1       6.659   4.993  17.478  0.00  0.00    +0.000 OA
ATOM     23  O   UNL     1       4.754   3.626  16.506  0.00  0.00    +0.000 OA
BRANCH  21  24
ATOM     24  N   UNL     1       5.349   3.394  18.914  0.00  0.00    +0.000 NA
ATOM     25  H   UNL     1       4.395   3.103  19.138  0.00  0.00    +0.000 HD
ATOM     26  H   UNL     1       5.856   3.821  19.688  0.00  0.00    +0.000 HD
ENDBRANCH  21  24
ENDBRANCH  15  21
ENDBRANCH   1  18
BRANCH   7  27
ATOM     27  C   UNL     1      -3.406  13.476  22.646  0.00  0.00    +0.000 C 
ATOM     28  C   UNL     1      -4.716  12.932  23.177  0.00  0.00    +0.000 C 
ATOM     29  C   UNL     1      -3.418  12.386  23.694  0.00  0.00    +0.000 C 
ENDBRANCH   7  27
TORSDOF 4
ENDMDL
