MODEL 1
REMARK VINA RESULT:      -6.7      0.000      0.000
REMARK  Name = 
REMARK  6 active torsions:
REMARK  status: ('A' for Active; 'I' for Inactive)
REMARK    1  A    between atoms: C_1  and  N_2
REMARK    2  A    between atoms: N_2  and  C_3
REMARK    3  A    between atoms: N_2  and  C_4
REMARK    4  A    between atoms: C_5  and  C_6
REMARK    5  A    between atoms: C_5  and  C_8
REMARK    6  A    between atoms: C_10  and  C_11
REMARK                            x       y       z     vdW  Elec       q    Type
REMARK                         _______ _______ _______ _____ _____    ______ ____
ROOT
ATOM      1  C   UNL     1       5.144   3.870  17.816  0.00  0.00    +0.000 A 
ATOM      2  C   UNL     1       4.939   3.800  16.413  0.00  0.00    +0.000 A 
ATOM      3  C   UNL     1       6.144   4.138  15.825  0.00  0.00    +0.000 A 
ATOM      4  N   UNL     1       6.978   4.393  16.879  0.00  0.00    +0.000 N 
ATOM      5  N   UNL     1       6.410   4.238  18.084  0.00  0.00    +0.000 NA
ATOM      6  H   UNL     1       7.945   4.699  16.844  0.00  0.00    +0.000 HD
ENDROOT
BRANCH   3   7
ATOM      7  C   UNL     1       6.538   4.264  14.427  0.00  0.00    +0.000 A 
ATOM      8  C   UNL     1       7.512   5.199  14.052  0.00  0.00    +0.000 A 
ATOM      9  C   UNL     1       7.903   5.328  12.717  0.00  0.00    +0.000 A 
ATOM     10  C   UNL     1       7.321   4.524  11.741  0.00  0.00    +0.000 A 
ATOM     11  C   UNL     1       6.347   3.595  12.098  0.00  0.00    +0.000 A 
ATOM     12  C   UNL     1       5.956   3.464  13.432  0.00  0.00    +0.000 A 
ENDBRANCH   3   7
BRANCH   1  14
ATOM     13  C   UNL     1       2.907   4.116  18.854  0.00  0.00    +0.000 C 
ATOM     14  C   UNL     1       4.159   3.596  18.825  0.00  0.00    +0.000 C 
BRANCH  13  16
ATOM     15  C   UNL     1       0.856   2.878  19.554  0.00  0.00    +0.000 C 
ATOM     16  N   UNL     1       1.823   3.967  19.746  0.00  0.00    +0.000 N 
ATOM     17  C   UNL     1       1.548   4.826  20.900  0.00  0.00    +0.000 C 
ENDBRANCH  13  16
BRANCH  14  18
ATOM     18  C   UNL     1       4.507   2.670  19.978  0.00  0.00    +0.000 C 
ATOM     19  N   UNL     1       4.796   1.902  20.936  0.00  0.00    +0.000 NA
ENDBRANCH  14  18
ENDBRANCH   1  14
TORSDOF 4
ENDMDL
MODEL 2
REMARK VINA RESULT:      -6.7      1.061      1.652
REMARK  Name = 
REMARK  6 active torsions:
REMARK  status: ('A' for Active; 'I' for Inactive)
REMARK    1  A    between atoms: C_1  and  N_2
REMARK    2  A    between atoms: N_2  and  C_3
REMARK    3  A    between atoms: N_2  and  C_4
REMARK    4  A    between atoms: C_5  and  C_6
REMARK    5  A    between atoms: C_5  and  C_8
REMARK    6  A    between atoms: C_10  and  C_11
REMARK                            x       y       z     vdW  Elec       q    Type
REMARK                         _______ _______ _______ _____ _____    ______ ____
ROOT
ATOM      1  C   UNL     1       4.821   4.258  17.845  0.00  0.00    +0.000 A 
ATOM      2  C   UNL     1       4.663   4.282  16.435  0.00  0.00    +0.000 A 
ATOM      3  C   UNL     1       5.938   4.273  15.898  0.00  0.00    +0.000 A 
ATOM      4  N   UNL     1       6.766   4.253  16.987  0.00  0.00    +0.000 N 
ATOM      5  N   UNL     1       6.128   4.241  18.167  0.00  0.00    +0.000 NA
ATOM      6  H   UNL     1       7.780   4.269  16.994  0.00  0.00    +0.000 HD
ENDROOT
BRANCH   3   7
ATOM      7  C   UNL     1       6.408   4.313  14.518  0.00  0.00    +0.000 A 
ATOM      8  C   UNL     1       7.439   5.189  14.151  0.00  0.00    +0.000 A 
ATOM      9  C   UNL     1       7.904   5.234  12.835  0.00  0.00    +0.000 A 
ATOM     10  C   UNL     1       7.339   4.406  11.870  0.00  0.00    +0.000 A 
ATOM     11  C   UNL     1       6.310   3.535  12.218  0.00  0.00    +0.000 A 
ATOM     12  C   UNL     1       5.846   3.487  13.534  0.00  0.00    +0.000 A 
ENDBRANCH   3   7
BRANCH   1  14
ATOM     13  C   UNL     1       3.192   3.144  19.343  0.00  0.00    +0.000 C 
ATOM     14  C   UNL     1       3.759   4.255  18.810  0.00  0.00    +0.000 C 
BRANCH  13  16
ATOM     15  C   UNL     1       0.761   2.876  19.839  0.00  0.00    +0.000 C 
ATOM     16  N   UNL     1       2.158   2.947  20.284  0.00  0.00    +0.000 N 
ATOM     17  C   UNL     1       2.344   2.796  21.730  0.00  0.00    +0.000 C 
ENDBRANCH  13  16
BRANCH  14  18
ATOM     18  C   UNL     1       3.180   5.576  19.291  0.00  0.00    +0.000 C 
ATOM     19  N   UNL     1       2.699   6.671  19.688  0.00  0.00    +0.000 NA
ENDBRANCH  14  18
ENDBRANCH   1  14
TORSDOF 4
ENDMDL
MODEL 3
REMARK VINA RESULT:      -6.7      1.056      2.007
REMARK  Name = 
REMARK  6 active torsions:
REMARK  status: ('A' for Active; 'I' for Inactive)
REMARK    1  A    between atoms: C_1  and  N_2
REMARK    2  A    between atoms: N_2  and  C_3
REMARK    3  A    between atoms: N_2  and  C_4
REMARK    4  A    between atoms: C_5  and  C_6
REMARK    5  A    between atoms: C_5  and  C_8
REMARK    6  A    between atoms: C_10  and  C_11
REMARK                            x       y       z     vdW  Elec       q    Type
REMARK                         _______ _______ _______ _____ _____    ______ ____
ROOT
ATOM      1  C   UNL     1       4.832   4.307  17.796  0.00  0.00    +0.000 A 
ATOM      2  C   UNL     1       4.678   4.316  16.385  0.00  0.00    +0.000 A 
ATOM      3  C   UNL     1       5.954   4.308  15.852  0.00  0.00    +0.000 A 
ATOM      4  N   UNL     1       6.779   4.303  16.944  0.00  0.00    +0.000 N 
ATOM      5  N   UNL     1       6.138   4.299  18.122  0.00  0.00    +0.000 NA
ATOM      6  H   UNL     1       7.794   4.325  16.954  0.00  0.00    +0.000 HD
ENDROOT
BRANCH   3   7
ATOM      7  C   UNL     1       6.429   4.337  14.474  0.00  0.00    +0.000 A 
ATOM      8  C   UNL     1       5.850   3.497  13.513  0.00  0.00    +0.000 A 
ATOM      9  C   UNL     1       6.290   3.517  12.187  0.00  0.00    +0.000 A 
ATOM     10  C   UNL     1       7.317   4.377  11.809  0.00  0.00    +0.000 A 
ATOM     11  C   UNL     1       7.906   5.213  12.754  0.00  0.00    +0.000 A 
ATOM     12  C   UNL     1       7.466   5.195  14.079  0.00  0.00    +0.000 A 
ENDBRANCH   3   7
BRANCH   1  14
ATOM     13  C   UNL     1       3.185   3.198  19.280  0.00  0.00    +0.000 C 
ATOM     14  C   UNL     1       3.767   4.307  18.759  0.00  0.00    +0.000 C 
BRANCH  13  16
ATOM     15  C   UNL     1       0.751   2.940  19.765  0.00  0.00    +0.000 C 
ATOM     16  N   UNL     1       2.147   3.004  20.216  0.00  0.00    +0.000 N 
ATOM     17  C   UNL     1       2.325   2.853  21.663  0.00  0.00    +0.000 C 
ENDBRANCH  13  16
BRANCH  14  18
ATOM     18  C   UNL     1       3.202   5.630  19.248  0.00  0.00    +0.000 C 
ATOM     19  N   UNL     1       2.732   6.728  19.654  0.00  0.00    +0.000 NA
ENDBRANCH  14  18
ENDBRANCH   1  14
TORSDOF 4
ENDMDL
MODEL 4
REMARK VINA RESULT:      -6.7      0.137      1.145
REMARK  Name = 
REMARK  6 active torsions:
REMARK  status: ('A' for Active; 'I' for Inactive)
REMARK    1  A    between atoms: C_1  and  N_2
REMARK    2  A    between atoms: N_2  and  C_3
REMARK    3  A    between atoms: N_2  and  C_4
REMARK    4  A    between atoms: C_5  and  C_6
REMARK    5  A    between atoms: C_5  and  C_8
REMARK    6  A    between atoms: C_10  and  C_11
REMARK                            x       y       z     vdW  Elec       q    Type
REMARK                         _______ _______ _______ _____ _____    ______ ____
ROOT
ATOM      1  C   UNL     1       5.194   3.928  17.850  0.00  0.00    +0.000 A 
ATOM      2  C   UNL     1       4.975   3.894  16.448  0.00  0.00    +0.000 A 
ATOM      3  C   UNL     1       6.193   4.172  15.854  0.00  0.00    +0.000 A 
ATOM      4  N   UNL     1       7.048   4.361  16.905  0.00  0.00    +0.000 N 
ATOM      5  N   UNL     1       6.481   4.218  18.113  0.00  0.00    +0.000 NA
ATOM      6  H   UNL     1       8.031   4.611  16.867  0.00  0.00    +0.000 HD
ENDROOT
BRANCH   3   7
ATOM      7  C   UNL     1       6.582   4.300  14.455  0.00  0.00    +0.000 A 
ATOM      8  C   UNL     1       5.997   3.476  13.484  0.00  0.00    +0.000 A 
ATOM      9  C   UNL     1       6.356   3.591  12.139  0.00  0.00    +0.000 A 
ATOM     10  C   UNL     1       7.308   4.530  11.751  0.00  0.00    +0.000 A 
ATOM     11  C   UNL     1       7.902   5.351  12.705  0.00  0.00    +0.000 A 
ATOM     12  C   UNL     1       7.543   5.239  14.050  0.00  0.00    +0.000 A 
ENDBRANCH   3   7
BRANCH   1  14
ATOM     13  C   UNL     1       2.979   4.276  18.906  0.00  0.00    +0.000 C 
ATOM     14  C   UNL     1       4.203   3.693  18.862  0.00  0.00    +0.000 C 
BRANCH  13  16
ATOM     15  C   UNL     1       0.998   3.012  19.744  0.00  0.00    +0.000 C 
ATOM     16  N   UNL     1       1.895   4.173  19.803  0.00  0.00    +0.000 N 
ATOM     17  C   UNL     1       1.554   5.151  20.840  0.00  0.00    +0.000 C 
ENDBRANCH  13  16
BRANCH  14  18
ATOM     18  C   UNL     1       4.511   2.738  20.003  0.00  0.00    +0.000 C 
ATOM     19  N   UNL     1       4.767   1.945  20.950  0.00  0.00    +0.000 NA
ENDBRANCH  14  18
ENDBRANCH   1  14
TORSDOF 4
ENDMDL
MODEL 5
REMARK VINA RESULT:      -6.5      1.730      7.086
REMARK  Name = 
REMARK  6 active torsions:
REMARK  status: ('A' for Active; 'I' for Inactive)
REMARK    1  A    between atoms: C_1  and  N_2
REMARK    2  A    between atoms: N_2  and  C_3
REMARK    3  A    between atoms: N_2  and  C_4
REMARK    4  A    between atoms: C_5  and  C_6
REMARK    5  A    between atoms: C_5  and  C_8
REMARK    6  A    between atoms: C_10  and  C_11
REMARK                            x       y       z     vdW  Elec       q    Type
REMARK                         _______ _______ _______ _____ _____    ______ ____
ROOT
ATOM      1  C   UNL     1       5.531   4.030  16.241  0.00  0.00    +0.000 A 
ATOM      2  C   UNL     1       4.220   3.802  16.736  0.00  0.00    +0.000 A 
ATOM      3  C   UNL     1       4.313   3.826  18.116  0.00  0.00    +0.000 A 
ATOM      4  N   UNL     1       5.639   4.052  18.364  0.00  0.00    +0.000 N 
ATOM      5  N   UNL     1       6.394   4.181  17.263  0.00  0.00    +0.000 NA
ATOM      6  H   UNL     1       6.100   4.107  19.267  0.00  0.00    +0.000 HD
ENDROOT
BRANCH   3   7
ATOM      7  C   UNL     1       3.312   3.631  19.157  0.00  0.00    +0.000 A 
ATOM      8  C   UNL     1       3.606   2.839  20.276  0.00  0.00    +0.000 A 
ATOM      9  C   UNL     1       2.659   2.648  21.285  0.00  0.00    +0.000 A 
ATOM     10  C   UNL     1       1.405   3.243  21.183  0.00  0.00    +0.000 A 
ATOM     11  C   UNL     1       1.096   4.026  20.075  0.00  0.00    +0.000 A 
ATOM     12  C   UNL     1       2.042   4.221  19.066  0.00  0.00    +0.000 A 
ENDBRANCH   3   7
BRANCH   1  14
ATOM     13  C   UNL     1       5.287   3.432  13.849  0.00  0.00    +0.000 C 
ATOM     14  C   UNL     1       5.909   4.091  14.858  0.00  0.00    +0.000 C 
BRANCH  13  16
ATOM     15  C   UNL     1       4.375   3.407  11.526  0.00  0.00    +0.000 C 
ATOM     16  N   UNL     1       5.511   3.369  12.456  0.00  0.00    +0.000 N 
ATOM     17  C   UNL     1       6.822   3.267  11.811  0.00  0.00    +0.000 C 
ENDBRANCH  13  16
BRANCH  14  18
ATOM     18  C   UNL     1       7.105   4.934  14.445  0.00  0.00    +0.000 C 
ATOM     19  N   UNL     1       8.096   5.634  14.103  0.00  0.00    +0.000 NA
ENDBRANCH  14  18
ENDBRANCH   1  14
TORSDOF 4
ENDMDL
MODEL 6
REMARK VINA RESULT:      -6.5      1.727      7.090
REMARK  Name = 
REMARK  6 active torsions:
REMARK  status: ('A' for Active; 'I' for Inactive)
REMARK    1  A    between atoms: C_1  and  N_2
REMARK    2  A    between atoms: N_2  and  C_3
REMARK    3  A    between atoms: N_2  and  C_4
REMARK    4  A    between atoms: C_5  and  C_6
REMARK    5  A    between atoms: C_5  and  C_8
REMARK    6  A    between atoms: C_10  and  C_11
REMARK                            x       y       z     vdW  Elec       q    Type
REMARK                         _______ _______ _______ _____ _____    ______ ____
ROOT
ATOM      1  C   UNL     1       5.553   4.053  16.225  0.00  0.00    +0.000 A 
ATOM      2  C   UNL     1       4.249   3.808  16.728  0.00  0.00    +0.000 A 
ATOM      3  C   UNL     1       4.346   3.852  18.107  0.00  0.00    +0.000 A 
ATOM      4  N   UNL     1       5.669   4.104  18.347  0.00  0.00    +0.000 N 
ATOM      5  N   UNL     1       6.417   4.233  17.241  0.00  0.00    +0.000 NA
ATOM      6  H   UNL     1       6.132   4.179  19.247  0.00  0.00    +0.000 HD
ENDROOT
BRANCH   3   7
ATOM      7  C   UNL     1       3.353   3.651  19.155  0.00  0.00    +0.000 A 
ATOM      8  C   UNL     1       2.109   4.292  19.077  0.00  0.00    +0.000 A 
ATOM      9  C   UNL     1       1.145   4.105  20.071  0.00  0.00    +0.000 A 
ATOM     10  C   UNL     1       1.417   3.278  21.157  0.00  0.00    +0.000 A 
ATOM     11  C   UNL     1       2.651   2.640  21.251  0.00  0.00    +0.000 A 
ATOM     12  C   UNL     1       3.615   2.824  20.258  0.00  0.00    +0.000 A 
ENDBRANCH   3   7
BRANCH   1  14
ATOM     13  C   UNL     1       5.292   3.444  13.837  0.00  0.00    +0.000 C 
ATOM     14  C   UNL     1       5.925   4.103  14.840  0.00  0.00    +0.000 C 
BRANCH  13  16
ATOM     15  C   UNL     1       4.367   3.400  11.520  0.00  0.00    +0.000 C 
ATOM     16  N   UNL     1       5.507   3.372  12.444  0.00  0.00    +0.000 N 
ATOM     17  C   UNL     1       6.816   3.268  11.792  0.00  0.00    +0.000 C 
ENDBRANCH  13  16
BRANCH  14  18
ATOM     18  C   UNL     1       7.126   4.933  14.416  0.00  0.00    +0.000 C 
ATOM     19  N   UNL     1       8.122   5.621  14.064  0.00  0.00    +0.000 NA
ENDBRANCH  14  18
ENDBRANCH   1  14
TORSDOF 4
ENDMDL
MODEL 7
REMARK VINA RESULT:      -6.4      1.223      1.979
REMARK  Name = 
REMARK  6 active torsions:
REMARK  status: ('A' for Active; 'I' for Inactive)
REMARK    1  A    between atoms: C_1  and  N_2
REMARK    2  A    between atoms: N_2  and  C_3
REMARK    3  A    between atoms: N_2  and  C_4
REMARK    4  A    between atoms: C_5  and  C_6
REMARK    5  A    between atoms: C_5  and  C_8
REMARK    6  A    between atoms: C_10  and  C_11
REMARK                            x       y       z     vdW  Elec       q    Type
REMARK                         _______ _______ _______ _____ _____    ______ ____
ROOT
ATOM      1  C   UNL     1       4.636   4.100  17.660  0.00  0.00    +0.000 A 
ATOM      2  C   UNL     1       4.548   4.089  16.243  0.00  0.00    +0.000 A 
ATOM      3  C   UNL     1       5.841   4.215  15.769  0.00  0.00    +0.000 A 
ATOM      4  N   UNL     1       6.610   4.302  16.898  0.00  0.00    +0.000 N 
ATOM      5  N   UNL     1       5.919   4.233  18.045  0.00  0.00    +0.000 NA
ATOM      6  H   UNL     1       7.615   4.432  16.954  0.00  0.00    +0.000 HD
ENDROOT
BRANCH   3   7
ATOM      7  C   UNL     1       6.374   4.291  14.414  0.00  0.00    +0.000 A 
ATOM      8  C   UNL     1       5.841   3.480  13.403  0.00  0.00    +0.000 A 
ATOM      9  C   UNL     1       6.337   3.545  12.099  0.00  0.00    +0.000 A 
ATOM     10  C   UNL     1       7.375   4.421  11.793  0.00  0.00    +0.000 A 
ATOM     11  C   UNL     1       7.918   5.228  12.788  0.00  0.00    +0.000 A 
ATOM     12  C   UNL     1       7.422   5.165  14.092  0.00  0.00    +0.000 A 
ENDBRANCH   3   7
BRANCH   1  14
ATOM     13  C   UNL     1       3.440   4.631  19.764  0.00  0.00    +0.000 C 
ATOM     14  C   UNL     1       3.534   3.990  18.572  0.00  0.00    +0.000 C 
BRANCH  13  16
ATOM     15  C   UNL     1       1.560   5.802  20.914  0.00  0.00    +0.000 C 
ATOM     16  N   UNL     1       2.455   4.646  20.775  0.00  0.00    +0.000 N 
ATOM     17  C   UNL     1       2.219   3.576  21.747  0.00  0.00    +0.000 C 
ENDBRANCH  13  16
BRANCH  14  18
ATOM     18  C   UNL     1       2.364   3.083  18.227  0.00  0.00    +0.000 C 
ATOM     19  N   UNL     1       1.393   2.331  17.941  0.00  0.00    +0.000 NA
ENDBRANCH  14  18
ENDBRANCH   1  14
TORSDOF 4
ENDMDL
MODEL 8
REMARK VINA RESULT:      -6.4      1.259      1.915
REMARK  Name = 
REMARK  6 active torsions:
REMARK  status: ('A' for Active; 'I' for Inactive)
REMARK    1  A    between atoms: C_1  and  N_2
REMARK    2  A    between atoms: N_2  and  C_3
REMARK    3  A    between atoms: N_2  and  C_4
REMARK    4  A    between atoms: C_5  and  C_6
REMARK    5  A    between atoms: C_5  and  C_8
REMARK    6  A    between atoms: C_10  and  C_11
REMARK                            x       y       z     vdW  Elec       q    Type
REMARK                         _______ _______ _______ _____ _____    ______ ____
ROOT
ATOM      1  C   UNL     1       4.541   4.282  17.537  0.00  0.00    +0.000 A 
ATOM      2  C   UNL     1       4.487   4.336  16.119  0.00  0.00    +0.000 A 
ATOM      3  C   UNL     1       5.795   4.278  15.675  0.00  0.00    +0.000 A 
ATOM      4  N   UNL     1       6.540   4.204  16.820  0.00  0.00    +0.000 N 
ATOM      5  N   UNL     1       5.819   4.201  17.951  0.00  0.00    +0.000 NA
ATOM      6  H   UNL     1       7.552   4.174  16.900  0.00  0.00    +0.000 HD
ENDROOT
BRANCH   3   7
ATOM      7  C   UNL     1       6.366   4.319  14.334  0.00  0.00    +0.000 A 
ATOM      8  C   UNL     1       7.402   5.215  14.037  0.00  0.00    +0.000 A 
ATOM      9  C   UNL     1       7.962   5.262  12.759  0.00  0.00    +0.000 A 
ATOM     10  C   UNL     1       7.489   4.415  11.761  0.00  0.00    +0.000 A 
ATOM     11  C   UNL     1       6.455   3.525  12.039  0.00  0.00    +0.000 A 
ATOM     12  C   UNL     1       5.896   3.475  13.317  0.00  0.00    +0.000 A 
ENDBRANCH   3   7
BRANCH   1  14
ATOM     13  C   UNL     1       3.482   4.444  19.772  0.00  0.00    +0.000 C 
ATOM     14  C   UNL     1       3.412   4.312  18.423  0.00  0.00    +0.000 C 
BRANCH  13  16
ATOM     15  C   UNL     1       1.681   5.696  20.961  0.00  0.00    +0.000 C 
ATOM     16  N   UNL     1       2.503   4.492  20.787  0.00  0.00    +0.000 N 
ATOM     17  C   UNL     1       2.206   3.412  21.732  0.00  0.00    +0.000 C 
ENDBRANCH  13  16
BRANCH  14  18
ATOM     18  C   UNL     1       2.010   4.169  17.855  0.00  0.00    +0.000 C 
ATOM     19  N   UNL     1       0.847   4.050  17.383  0.00  0.00    +0.000 NA
ENDBRANCH  14  18
ENDBRANCH   1  14
TORSDOF 4
ENDMDL
MODEL 9
REMARK VINA RESULT:      -6.3      1.716      7.095
REMARK  Name = 
REMARK  6 active torsions:
REMARK  status: ('A' for Active; 'I' for Inactive)
REMARK    1  A    between atoms: C_1  and  N_2
REMARK    2  A    between atoms: N_2  and  C_3
REMARK    3  A    between atoms: N_2  and  C_4
REMARK    4  A    between atoms: C_5  and  C_6
REMARK    5  A    between atoms: C_5  and  C_8
REMARK    6  A    between atoms: C_10  and  C_11
REMARK                            x       y       z     vdW  Elec       q    Type
REMARK                         _______ _______ _______ _____ _____    ______ ____
ROOT
ATOM      1  C   UNL     1       5.844   4.172  16.088  0.00  0.00    +0.000 A 
ATOM      2  C   UNL     1       4.571   4.052  16.706  0.00  0.00    +0.000 A 
ATOM      3  C   UNL     1       4.790   4.121  18.070  0.00  0.00    +0.000 A 
ATOM      4  N   UNL     1       6.145   4.264  18.190  0.00  0.00    +0.000 N 
ATOM      5  N   UNL     1       6.804   4.302  17.022  0.00  0.00    +0.000 NA
ATOM      6  H   UNL     1       6.688   4.321  19.046  0.00  0.00    +0.000 HD
ENDROOT
BRANCH   3   7
ATOM      7  C   UNL     1       3.877   4.032  19.203  0.00  0.00    +0.000 A 
ATOM      8  C   UNL     1       3.679   2.806  19.852  0.00  0.00    +0.000 A 
ATOM      9  C   UNL     1       2.812   2.707  20.943  0.00  0.00    +0.000 A 
ATOM     10  C   UNL     1       2.129   3.833  21.393  0.00  0.00    +0.000 A 
ATOM     11  C   UNL     1       2.311   5.056  20.754  0.00  0.00    +0.000 A 
ATOM     12  C   UNL     1       3.179   5.158  19.665  0.00  0.00    +0.000 A 
ENDBRANCH   3   7
BRANCH   1  14
ATOM     13  C   UNL     1       5.386   3.451  13.762  0.00  0.00    +0.000 C 
ATOM     14  C   UNL     1       6.098   4.157  14.676  0.00  0.00    +0.000 C 
BRANCH  13  16
ATOM     15  C   UNL     1       6.752   2.888  11.750  0.00  0.00    +0.000 C 
ATOM     16  N   UNL     1       5.486   3.313  12.361  0.00  0.00    +0.000 N 
ATOM     17  C   UNL     1       4.403   3.562  11.404  0.00  0.00    +0.000 C 
ENDBRANCH  13  16
BRANCH  14  18
ATOM     18  C   UNL     1       7.256   4.966  14.115  0.00  0.00    +0.000 C 
ATOM     19  N   UNL     1       8.216   5.638  13.649  0.00  0.00    +0.000 NA
ENDBRANCH  14  18
ENDBRANCH   1  14
TORSDOF 4
ENDMDL
