MODEL 1
REMARK VINA RESULT:      -7.1      0.000      0.000
REMARK  Name = 
REMARK  5 active torsions:
REMARK  status: ('A' for Active; 'I' for Inactive)
REMARK    1  A    between atoms: C_1  and  S_2
REMARK    2  A    between atoms: S_2  and  C_3
REMARK    3  A    between atoms: C_7  and  N_8
REMARK    4  A    between atoms: C_10  and  C_11
REMARK    5  A    between atoms: N_12  and  C_13
REMARK                            x       y       z     vdW  Elec       q    Type
REMARK                         _______ _______ _______ _____ _____    ______ ____
ROOT
ATOM      1  C   UNL     1       6.211   3.907  13.459  0.00  0.00    +0.000 A 
ATOM      2  N   UNL     1       5.207   3.648  14.266  0.00  0.00    +0.000 NA
ATOM      3  C   UNL     1       5.501   4.108  15.542  0.00  0.00    +0.000 A 
ATOM      4  C   UNL     1       4.654   4.035  16.671  0.00  0.00    +0.000 A 
ATOM      5  C   UNL     1       5.027   4.594  17.914  0.00  0.00    +0.000 A 
ATOM      6  C   UNL     1       6.315   5.152  18.022  0.00  0.00    +0.000 A 
ATOM      7 CL   UNL     1       7.006   5.709  19.513  0.00  0.00    +0.000 Cl
ATOM      8  C   UNL     1       7.183   5.216  16.916  0.00  0.00    +0.000 A 
ATOM      9  C   UNL     1       6.747   4.710  15.685  0.00  0.00    +0.000 A 
ATOM     10  S   UNL     1       7.558   4.692  14.169  0.00  0.00    +0.000 S 
ENDROOT
BRANCH   5  11
ATOM     11  N   UNL     1       4.076   4.606  18.968  0.00  0.00    +0.000 N 
ATOM     12  N   UNL     1       3.393   5.755  19.317  0.00  0.00    +0.000 NA
ATOM     13  C   UNL     1       2.519   5.363  20.197  0.00  0.00    +0.000 A 
ATOM     14  C   UNL     1       1.548   6.273  20.876  0.00  0.00    +0.000 C 
ATOM     15  N   UNL     1       2.544   4.049  20.447  0.00  0.00    +0.000 N 
ATOM     16  C   UNL     1       3.540   3.520  19.686  0.00  0.00    +0.000 A 
ATOM     17  O   UNL     1       3.872   2.344  19.676  0.00  0.00    +0.000 OA
BRANCH  15  18
ATOM     18  C   UNL     1       1.807   3.305  21.404  0.00  0.00    +0.000 C 
ATOM     19  F   UNL     1       0.939   2.481  20.765  0.00  0.00    +0.000 F 
ATOM     20  F   UNL     1       2.642   2.509  22.117  0.00  0.00    +0.000 F 
ENDBRANCH  15  18
ENDBRANCH   5  11
BRANCH   1  22
ATOM     21  C   UNL     1       4.441   3.179  11.478  0.00  0.00    +0.000 C 
ATOM     22  S   UNL     1       6.195   3.491  11.757  0.00  0.00    +0.000 S 
ENDBRANCH   1  22
TORSDOF 3
ENDMDL
MODEL 2
REMARK VINA RESULT:      -6.5      4.323      5.278
REMARK  Name = 
REMARK  5 active torsions:
REMARK  status: ('A' for Active; 'I' for Inactive)
REMARK    1  A    between atoms: C_1  and  S_2
REMARK    2  A    between atoms: S_2  and  C_3
REMARK    3  A    between atoms: C_7  and  N_8
REMARK    4  A    between atoms: C_10  and  C_11
REMARK    5  A    between atoms: N_12  and  C_13
REMARK                            x       y       z     vdW  Elec       q    Type
REMARK                         _______ _______ _______ _____ _____    ______ ____
ROOT
ATOM      1  C   UNL     1       5.697   5.141  16.072  0.00  0.00    +0.000 A 
ATOM      2  N   UNL     1       5.124   6.284  16.372  0.00  0.00    +0.000 NA
ATOM      3  C   UNL     1       4.173   6.086  17.364  0.00  0.00    +0.000 A 
ATOM      4  C   UNL     1       3.373   7.084  17.964  0.00  0.00    +0.000 A 
ATOM      5  C   UNL     1       2.477   6.783  19.015  0.00  0.00    +0.000 A 
ATOM      6  C   UNL     1       2.338   5.433  19.390  0.00  0.00    +0.000 A 
ATOM      7 CL   UNL     1       1.153   4.862  20.523  0.00  0.00    +0.000 Cl
ATOM      8  C   UNL     1       3.109   4.421  18.792  0.00  0.00    +0.000 A 
ATOM      9  C   UNL     1       4.033   4.772  17.799  0.00  0.00    +0.000 A 
ATOM     10  S   UNL     1       5.132   3.772  16.934  0.00  0.00    +0.000 S 
ENDROOT
BRANCH   5  11
ATOM     11  N   UNL     1       1.805   7.852  19.663  0.00  0.00    +0.000 N 
ATOM     12  N   UNL     1       1.595   7.856  21.028  0.00  0.00    +0.000 NA
ATOM     13  C   UNL     1       1.098   9.031  21.281  0.00  0.00    +0.000 A 
ATOM     14  C   UNL     1       0.697   9.496  22.643  0.00  0.00    +0.000 C 
ATOM     15  N   UNL     1       0.980   9.820  20.207  0.00  0.00    +0.000 N 
ATOM     16  C   UNL     1       1.414   9.097  19.137  0.00  0.00    +0.000 A 
ATOM     17  O   UNL     1       1.425   9.489  17.980  0.00  0.00    +0.000 OA
BRANCH  15  18
ATOM     18  C   UNL     1       0.400  11.109  20.101  0.00  0.00    +0.000 C 
ATOM     19  F   UNL     1       1.263  11.943  19.467  0.00  0.00    +0.000 F 
ATOM     20  F   UNL     1      -0.718  11.054  19.334  0.00  0.00    +0.000 F 
ENDBRANCH  15  18
ENDBRANCH   5  11
BRANCH   1  22
ATOM     21  C   UNL     1       6.172   3.965  13.627  0.00  0.00    +0.000 C 
ATOM     22  S   UNL     1       6.967   4.999  14.873  0.00  0.00    +0.000 S 
ENDBRANCH   1  22
TORSDOF 3
ENDMDL
MODEL 3
REMARK VINA RESULT:      -6.4      5.716      7.348
REMARK  Name = 
REMARK  5 active torsions:
REMARK  status: ('A' for Active; 'I' for Inactive)
REMARK    1  A    between atoms: C_1  and  S_2
REMARK    2  A    between atoms: S_2  and  C_3
REMARK    3  A    between atoms: C_7  and  N_8
REMARK    4  A    between atoms: C_10  and  C_11
REMARK    5  A    between atoms: N_12  and  C_13
REMARK                            x       y       z     vdW  Elec       q    Type
REMARK                         _______ _______ _______ _____ _____    ______ ____
ROOT
ATOM      1  C   UNL     1       2.968   4.352  19.822  0.00  0.00    +0.000 A 
ATOM      2  N   UNL     1       2.294   5.129  20.640  0.00  0.00    +0.000 NA
ATOM      3  C   UNL     1       2.152   6.390  20.078  0.00  0.00    +0.000 A 
ATOM      4  C   UNL     1       1.463   7.485  20.647  0.00  0.00    +0.000 A 
ATOM      5  C   UNL     1       1.323   8.711  19.960  0.00  0.00    +0.000 A 
ATOM      6  C   UNL     1       1.973   8.843  18.718  0.00  0.00    +0.000 A 
ATOM      7 CL   UNL     1       2.066  10.331  17.829  0.00  0.00    +0.000 Cl
ATOM      8  C   UNL     1       2.682   7.774  18.142  0.00  0.00    +0.000 A 
ATOM      9  C   UNL     1       2.739   6.553  18.827  0.00  0.00    +0.000 A 
ATOM     10  S   UNL     1       3.482   5.076  18.357  0.00  0.00    +0.000 S 
ENDROOT
BRANCH   5  11
ATOM     11  N   UNL     1       0.505   9.721  20.530  0.00  0.00    +0.000 N 
ATOM     12  N   UNL     1      -0.379  10.457  19.765  0.00  0.00    +0.000 NA
ATOM     13  C   UNL     1      -1.050  11.164  20.627  0.00  0.00    +0.000 A 
ATOM     14  C   UNL     1      -2.126  12.132  20.258  0.00  0.00    +0.000 C 
ATOM     15  N   UNL     1      -0.706  10.947  21.901  0.00  0.00    +0.000 N 
ATOM     16  C   UNL     1       0.302  10.032  21.887  0.00  0.00    +0.000 A 
ATOM     17  O   UNL     1       0.886   9.612  22.875  0.00  0.00    +0.000 OA
BRANCH  15  18
ATOM     18  C   UNL     1      -1.157  11.602  23.075  0.00  0.00    +0.000 C 
ATOM     19  F   UNL     1      -0.867  12.925  22.993  0.00  0.00    +0.000 F 
ATOM     20  F   UNL     1      -2.506  11.506  23.171  0.00  0.00    +0.000 F 
ENDBRANCH  15  18
ENDBRANCH   5  11
BRANCH   1  22
ATOM     21  C   UNL     1       3.165   1.915  18.555  0.00  0.00    +0.000 C 
ATOM     22  S   UNL     1       3.328   2.676  20.182  0.00  0.00    +0.000 S 
ENDBRANCH   1  22
TORSDOF 3
ENDMDL
MODEL 4
REMARK VINA RESULT:      -6.3      5.101      7.816
REMARK  Name = 
REMARK  5 active torsions:
REMARK  status: ('A' for Active; 'I' for Inactive)
REMARK    1  A    between atoms: C_1  and  S_2
REMARK    2  A    between atoms: S_2  and  C_3
REMARK    3  A    between atoms: C_7  and  N_8
REMARK    4  A    between atoms: C_10  and  C_11
REMARK    5  A    between atoms: N_12  and  C_13
REMARK                            x       y       z     vdW  Elec       q    Type
REMARK                         _______ _______ _______ _____ _____    ______ ____
ROOT
ATOM      1  C   UNL     1      -0.541  10.615  21.983  0.00  0.00    +0.000 A 
ATOM      2  N   UNL     1      -0.179   9.362  22.144  0.00  0.00    +0.000 NA
ATOM      3  C   UNL     1       0.556   8.942  21.045  0.00  0.00    +0.000 A 
ATOM      4  C   UNL     1       1.140   7.667  20.869  0.00  0.00    +0.000 A 
ATOM      5  C   UNL     1       1.927   7.361  19.736  0.00  0.00    +0.000 A 
ATOM      6  C   UNL     1       2.040   8.343  18.733  0.00  0.00    +0.000 A 
ATOM      7 CL   UNL     1       2.804   8.075  17.198  0.00  0.00    +0.000 Cl
ATOM      8  C   UNL     1       1.450   9.612  18.878  0.00  0.00    +0.000 A 
ATOM      9  C   UNL     1       0.734   9.896  20.048  0.00  0.00    +0.000 A 
ATOM     10  S   UNL     1      -0.046  11.354  20.519  0.00  0.00    +0.000 S 
ENDROOT
BRANCH   5  11
ATOM     11  N   UNL     1       2.593   6.109  19.687  0.00  0.00    +0.000 N 
ATOM     12  N   UNL     1       3.895   5.997  19.240  0.00  0.00    +0.000 NA
ATOM     13  C   UNL     1       4.217   4.758  19.474  0.00  0.00    +0.000 A 
ATOM     14  C   UNL     1       5.546   4.162  19.142  0.00  0.00    +0.000 C 
ATOM     15  N   UNL     1       3.252   4.042  20.060  0.00  0.00    +0.000 N 
ATOM     16  C   UNL     1       2.180   4.868  20.207  0.00  0.00    +0.000 A 
ATOM     17  O   UNL     1       1.101   4.547  20.683  0.00  0.00    +0.000 OA
BRANCH  15  18
ATOM     18  C   UNL     1       3.225   2.657  20.368  0.00  0.00    +0.000 C 
ATOM     19  F   UNL     1       3.034   2.495  21.701  0.00  0.00    +0.000 F 
ATOM     20  F   UNL     1       2.172   2.065  19.751  0.00  0.00    +0.000 F 
ENDBRANCH  15  18
ENDBRANCH   5  11
BRANCH   1  22
ATOM     21  C   UNL     1      -1.044  13.204  22.774  0.00  0.00    +0.000 C 
ATOM     22  S   UNL     1      -1.468  11.499  23.178  0.00  0.00    +0.000 S 
ENDBRANCH   1  22
TORSDOF 3
ENDMDL
MODEL 5
REMARK VINA RESULT:      -6.3      5.177      7.245
REMARK  Name = 
REMARK  5 active torsions:
REMARK  status: ('A' for Active; 'I' for Inactive)
REMARK    1  A    between atoms: C_1  and  S_2
REMARK    2  A    between atoms: S_2  and  C_3
REMARK    3  A    between atoms: C_7  and  N_8
REMARK    4  A    between atoms: C_10  and  C_11
REMARK    5  A    between atoms: N_12  and  C_13
REMARK                            x       y       z     vdW  Elec       q    Type
REMARK                         _______ _______ _______ _____ _____    ______ ____
ROOT
ATOM      1  C   UNL     1       0.786  11.096  19.096  0.00  0.00    +0.000 A 
ATOM      2  N   UNL     1       1.471  10.329  18.278  0.00  0.00    +0.000 NA
ATOM      3  C   UNL     1       1.696   9.094  18.870  0.00  0.00    +0.000 A 
ATOM      4  C   UNL     1       2.371   7.999  18.286  0.00  0.00    +0.000 A 
ATOM      5  C   UNL     1       2.490   6.759  18.954  0.00  0.00    +0.000 A 
ATOM      6  C   UNL     1       1.991   6.673  20.268  0.00  0.00    +0.000 A 
ATOM      7 CL   UNL     1       2.218   5.297  21.300  0.00  0.00    +0.000 Cl
ATOM      8  C   UNL     1       1.333   7.758  20.877  0.00  0.00    +0.000 A 
ATOM      9  C   UNL     1       1.178   8.947  20.153  0.00  0.00    +0.000 A 
ATOM     10  S   UNL     1       0.389  10.404  20.612  0.00  0.00    +0.000 S 
ENDROOT
BRANCH   5  11
ATOM     11  N   UNL     1       3.061   5.662  18.257  0.00  0.00    +0.000 N 
ATOM     12  N   UNL     1       2.462   4.418  18.248  0.00  0.00    +0.000 NA
ATOM     13  C   UNL     1       3.167   3.720  17.406  0.00  0.00    +0.000 A 
ATOM     14  C   UNL     1       2.898   2.289  17.072  0.00  0.00    +0.000 C 
ATOM     15  N   UNL     1       4.170   4.398  16.836  0.00  0.00    +0.000 N 
ATOM     16  C   UNL     1       4.147   5.653  17.363  0.00  0.00    +0.000 A 
ATOM     17  O   UNL     1       4.939   6.545  17.095  0.00  0.00    +0.000 OA
BRANCH  15  18
ATOM     18  C   UNL     1       5.181   3.933  15.957  0.00  0.00    +0.000 C 
ATOM     19  F   UNL     1       5.209   4.713  14.848  0.00  0.00    +0.000 F 
ATOM     20  F   UNL     1       6.397   4.050  16.545  0.00  0.00    +0.000 F 
ENDBRANCH  15  18
ENDBRANCH   5  11
BRANCH   1  22
ATOM     21  C   UNL     1       1.887  13.525  18.408  0.00  0.00    +0.000 C 
ATOM     22  S   UNL     1       0.294  12.726  18.685  0.00  0.00    +0.000 S 
ENDBRANCH   1  22
TORSDOF 3
ENDMDL
MODEL 6
REMARK VINA RESULT:      -6.3      1.506      1.961
REMARK  Name = 
REMARK  5 active torsions:
REMARK  status: ('A' for Active; 'I' for Inactive)
REMARK    1  A    between atoms: C_1  and  S_2
REMARK    2  A    between atoms: S_2  and  C_3
REMARK    3  A    between atoms: C_7  and  N_8
REMARK    4  A    between atoms: C_10  and  C_11
REMARK    5  A    between atoms: N_12  and  C_13
REMARK                            x       y       z     vdW  Elec       q    Type
REMARK                         _______ _______ _______ _____ _____    ______ ____
ROOT
ATOM      1  C   UNL     1       6.551   4.001  13.350  0.00  0.00    +0.000 A 
ATOM      2  N   UNL     1       5.561   3.549  14.083  0.00  0.00    +0.000 NA
ATOM      3  C   UNL     1       5.719   3.970  15.396  0.00  0.00    +0.000 A 
ATOM      4  C   UNL     1       4.839   3.706  16.470  0.00  0.00    +0.000 A 
ATOM      5  C   UNL     1       5.061   4.239  17.760  0.00  0.00    +0.000 A 
ATOM      6  C   UNL     1       6.245   4.973  17.969  0.00  0.00    +0.000 A 
ATOM      7 CL   UNL     1       6.770   5.536  19.525  0.00  0.00    +0.000 Cl
ATOM      8  C   UNL     1       7.145   5.231  16.920  0.00  0.00    +0.000 A 
ATOM      9  C   UNL     1       6.852   4.740  15.641  0.00  0.00    +0.000 A 
ATOM     10  S   UNL     1       7.729   4.933  14.175  0.00  0.00    +0.000 S 
ENDROOT
BRANCH   5  11
ATOM     11  N   UNL     1       4.069   4.047  18.756  0.00  0.00    +0.000 N 
ATOM     12  N   UNL     1       4.144   3.009  19.664  0.00  0.00    +0.000 NA
ATOM     13  C   UNL     1       3.171   3.232  20.499  0.00  0.00    +0.000 A 
ATOM     14  C   UNL     1       2.849   2.353  21.663  0.00  0.00    +0.000 C 
ATOM     15  N   UNL     1       2.469   4.340  20.239  0.00  0.00    +0.000 N 
ATOM     16  C   UNL     1       3.005   4.894  19.117  0.00  0.00    +0.000 A 
ATOM     17  O   UNL     1       2.599   5.908  18.568  0.00  0.00    +0.000 OA
BRANCH  15  18
ATOM     18  C   UNL     1       1.301   4.831  20.877  0.00  0.00    +0.000 C 
ATOM     19  F   UNL     1       1.356   6.185  20.941  0.00  0.00    +0.000 F 
ATOM     20  F   UNL     1       0.205   4.522  20.140  0.00  0.00    +0.000 F 
ENDBRANCH  15  18
ENDBRANCH   5  11
BRANCH   1  22
ATOM     21  C   UNL     1       5.861   2.090  11.490  0.00  0.00    +0.000 C 
ATOM     22  S   UNL     1       6.682   3.690  11.630  0.00  0.00    +0.000 S 
ENDBRANCH   1  22
TORSDOF 3
ENDMDL
MODEL 7
REMARK VINA RESULT:      -5.9      4.697      6.884
REMARK  Name = 
REMARK  5 active torsions:
REMARK  status: ('A' for Active; 'I' for Inactive)
REMARK    1  A    between atoms: C_1  and  S_2
REMARK    2  A    between atoms: S_2  and  C_3
REMARK    3  A    between atoms: C_7  and  N_8
REMARK    4  A    between atoms: C_10  and  C_11
REMARK    5  A    between atoms: N_12  and  C_13
REMARK                            x       y       z     vdW  Elec       q    Type
REMARK                         _______ _______ _______ _____ _____    ______ ____
ROOT
ATOM      1  C   UNL     1       0.842  11.052  18.979  0.00  0.00    +0.000 A 
ATOM      2  N   UNL     1       1.492  10.250  18.168  0.00  0.00    +0.000 NA
ATOM      3  C   UNL     1       1.723   9.034  18.796  0.00  0.00    +0.000 A 
ATOM      4  C   UNL     1       2.368   7.911  18.230  0.00  0.00    +0.000 A 
ATOM      5  C   UNL     1       2.495   6.694  18.937  0.00  0.00    +0.000 A 
ATOM      6  C   UNL     1       2.036   6.659  20.267  0.00  0.00    +0.000 A 
ATOM      7 CL   UNL     1       2.281   5.317  21.340  0.00  0.00    +0.000 Cl
ATOM      8  C   UNL     1       1.409   7.771  20.858  0.00  0.00    +0.000 A 
ATOM      9  C   UNL     1       1.244   8.937  20.098  0.00  0.00    +0.000 A 
ATOM     10  S   UNL     1       0.485  10.418  20.530  0.00  0.00    +0.000 S 
ENDROOT
BRANCH   5  11
ATOM     11  N   UNL     1       3.032   5.567  18.262  0.00  0.00    +0.000 N 
ATOM     12  N   UNL     1       4.205   5.647  17.536  0.00  0.00    +0.000 NA
ATOM     13  C   UNL     1       4.464   4.419  17.194  0.00  0.00    +0.000 A 
ATOM     14  C   UNL     1       5.646   4.008  16.378  0.00  0.00    +0.000 C 
ATOM     15  N   UNL     1       3.578   3.525  17.647  0.00  0.00    +0.000 N 
ATOM     16  C   UNL     1       2.630   4.221  18.332  0.00  0.00    +0.000 A 
ATOM     17  O   UNL     1       1.644   3.732  18.866  0.00  0.00    +0.000 OA
BRANCH  15  18
ATOM     18  C   UNL     1       3.498   2.132  17.390  0.00  0.00    +0.000 C 
ATOM     19  F   UNL     1       3.802   1.445  18.519  0.00  0.00    +0.000 F 
ATOM     20  F   UNL     1       2.226   1.793  17.061  0.00  0.00    +0.000 F 
ENDBRANCH  15  18
ENDBRANCH   5  11
BRANCH   1  22
ATOM     21  C   UNL     1       1.840  13.618  18.915  0.00  0.00    +0.000 C 
ATOM     22  S   UNL     1       0.355  12.673  18.527  0.00  0.00    +0.000 S 
ENDBRANCH   1  22
TORSDOF 3
ENDMDL
MODEL 8
REMARK VINA RESULT:      -5.9      5.877      7.279
REMARK  Name = 
REMARK  5 active torsions:
REMARK  status: ('A' for Active; 'I' for Inactive)
REMARK    1  A    between atoms: C_1  and  S_2
REMARK    2  A    between atoms: S_2  and  C_3
REMARK    3  A    between atoms: C_7  and  N_8
REMARK    4  A    between atoms: C_10  and  C_11
REMARK    5  A    between atoms: N_12  and  C_13
REMARK                            x       y       z     vdW  Elec       q    Type
REMARK                         _______ _______ _______ _____ _____    ______ ____
ROOT
ATOM      1  C   UNL     1       4.478   5.616  17.664  0.00  0.00    +0.000 A 
ATOM      2  N   UNL     1       3.950   6.737  17.230  0.00  0.00    +0.000 NA
ATOM      3  C   UNL     1       3.076   7.244  18.182  0.00  0.00    +0.000 A 
ATOM      4  C   UNL     1       2.343   8.449  18.086  0.00  0.00    +0.000 A 
ATOM      5  C   UNL     1       1.527   8.906  19.145  0.00  0.00    +0.000 A 
ATOM      6  C   UNL     1       1.393   8.076  20.274  0.00  0.00    +0.000 A 
ATOM      7 CL   UNL     1       0.291   8.388  21.578  0.00  0.00    +0.000 Cl
ATOM      8  C   UNL     1       2.097   6.863  20.382  0.00  0.00    +0.000 A 
ATOM      9  C   UNL     1       2.947   6.479  19.337  0.00  0.00    +0.000 A 
ATOM     10  S   UNL     1       3.957   5.093  19.210  0.00  0.00    +0.000 S 
ENDROOT
BRANCH   5  11
ATOM     11  N   UNL     1       0.927  10.188  19.037  0.00  0.00    +0.000 N 
ATOM     12  N   UNL     1       1.683  11.343  19.000  0.00  0.00    +0.000 NA
ATOM     13  C   UNL     1       0.826  12.289  18.749  0.00  0.00    +0.000 A 
ATOM     14  C   UNL     1       1.186  13.733  18.626  0.00  0.00    +0.000 C 
ATOM     15  N   UNL     1      -0.432  11.862  18.593  0.00  0.00    +0.000 N 
ATOM     16  C   UNL     1      -0.418  10.514  18.781  0.00  0.00    +0.000 A 
ATOM     17  O   UNL     1      -1.399   9.786  18.741  0.00  0.00    +0.000 OA
BRANCH  15  18
ATOM     18  C   UNL     1      -1.618  12.617  18.406  0.00  0.00    +0.000 C 
ATOM     19  F   UNL     1      -2.340  12.082  17.390  0.00  0.00    +0.000 F 
ATOM     20  F   UNL     1      -2.396  12.541  19.515  0.00  0.00    +0.000 F 
ENDBRANCH  15  18
ENDBRANCH   5  11
BRANCH   1  22
ATOM     21  C   UNL     1       7.113   5.737  16.871  0.00  0.00    +0.000 C 
ATOM     22  S   UNL     1       5.647   4.694  16.740  0.00  0.00    +0.000 S 
ENDBRANCH   1  22
TORSDOF 3
ENDMDL
MODEL 9
REMARK VINA RESULT:      -5.9      5.236      7.568
REMARK  Name = 
REMARK  5 active torsions:
REMARK  status: ('A' for Active; 'I' for Inactive)
REMARK    1  A    between atoms: C_1  and  S_2
REMARK    2  A    between atoms: S_2  and  C_3
REMARK    3  A    between atoms: C_7  and  N_8
REMARK    4  A    between atoms: C_10  and  C_11
REMARK    5  A    between atoms: N_12  and  C_13
REMARK                            x       y       z     vdW  Elec       q    Type
REMARK                         _______ _______ _______ _____ _____    ______ ____
ROOT
ATOM      1  C   UNL     1      -0.132  11.607  19.509  0.00  0.00    +0.000 A 
ATOM      2  N   UNL     1       0.629  11.020  18.614  0.00  0.00    +0.000 NA
ATOM      3  C   UNL     1       1.061   9.793  19.098  0.00  0.00    +0.000 A 
ATOM      4  C   UNL     1       1.873   8.863  18.409  0.00  0.00    +0.000 A 
ATOM      5  C   UNL     1       2.203   7.609  18.971  0.00  0.00    +0.000 A 
ATOM      6  C   UNL     1       1.772   7.346  20.285  0.00  0.00    +0.000 A 
ATOM      7 CL   UNL     1       2.244   5.946  21.196  0.00  0.00    +0.000 Cl
ATOM      8  C   UNL     1       0.980   8.266  20.997  0.00  0.00    +0.000 A 
ATOM      9  C   UNL     1       0.620   9.470  20.377  0.00  0.00    +0.000 A 
ATOM     10  S   UNL     1      -0.364  10.747  20.973  0.00  0.00    +0.000 S 
ENDROOT
BRANCH   5  11
ATOM     11  N   UNL     1       2.908   6.670  18.173  0.00  0.00    +0.000 N 
ATOM     12  N   UNL     1       4.106   6.989  17.565  0.00  0.00    +0.000 NA
ATOM     13  C   UNL     1       4.525   5.867  17.057  0.00  0.00    +0.000 A 
ATOM     14  C   UNL     1       5.795   5.721  16.284  0.00  0.00    +0.000 C 
ATOM     15  N   UNL     1       3.722   4.824  17.292  0.00  0.00    +0.000 N 
ATOM     16  C   UNL     1       2.659   5.296  18.000  0.00  0.00    +0.000 A 
ATOM     17  O   UNL     1       1.705   4.627  18.369  0.00  0.00    +0.000 OA
BRANCH  15  18
ATOM     18  C   UNL     1       3.819   3.492  16.814  0.00  0.00    +0.000 C 
ATOM     19  F   UNL     1       4.116   2.663  17.846  0.00  0.00    +0.000 F 
ATOM     20  F   UNL     1       2.621   3.087  16.324  0.00  0.00    +0.000 F 
ENDBRANCH  15  18
ENDBRANCH   5  11
BRANCH   1  22
ATOM     21  C   UNL     1       0.553  14.199  18.880  0.00  0.00    +0.000 C 
ATOM     22  S   UNL     1      -0.881  13.169  19.245  0.00  0.00    +0.000 S 
ENDBRANCH   1  22
TORSDOF 3
ENDMDL
