MODEL 1
REMARK VINA RESULT:      -7.1      0.000      0.000
REMARK  Name = 
REMARK  7 active torsions:
REMARK  status: ('A' for Active; 'I' for Inactive)
REMARK    1  A    between atoms: C_1  and  C_2
REMARK    2  A    between atoms: C_6  and  N_7
REMARK    3  A    between atoms: N_7  and  C_8
REMARK    4  A    between atoms: C_8  and  N_10
REMARK    5  A    between atoms: N_10  and  N_11
REMARK    6  A    between atoms: C_12  and  C_13
REMARK    7  A    between atoms: C_16  and  N_17
REMARK                            x       y       z     vdW  Elec       q    Type
REMARK                         _______ _______ _______ _____ _____    ______ ____
ROOT
ATOM      1  N   UNL     1       5.858   5.934  17.619  0.00  0.00    +0.000 N 
ATOM      2  H   UNL     1       5.719   6.924  17.803  0.00  0.00    +0.000 HD
ENDROOT
BRANCH   1   3
ATOM      3  C   UNL     1       6.355   5.131  18.642  0.00  0.00    +0.000 C 
ATOM      4  S   UNL     1       7.647   5.701  19.524  0.00  0.00    +0.000 S 
BRANCH   3   5
ATOM      5  N   UNL     1       5.646   3.946  18.745  0.00  0.00    +0.000 N 
ATOM      6  H   UNL     1       6.274   3.190  19.001  0.00  0.00    +0.000 HD
BRANCH   5  12
ATOM      7  C   UNL     1       1.056   4.350  20.564  0.00  0.00    +0.000 C 
ATOM      8  C   UNL     1       2.000   3.754  19.562  0.00  0.00    +0.000 A 
ATOM      9  C   UNL     1       1.582   2.821  18.612  0.00  0.00    +0.000 A 
ATOM     10  C   UNL     1       2.507   2.288  17.715  0.00  0.00    +0.000 A 
ATOM     11  C   UNL     1       3.846   2.693  17.761  0.00  0.00    +0.000 A 
ATOM     12  C   UNL     1       4.277   3.636  18.703  0.00  0.00    +0.000 A 
ATOM     13  C   UNL     1       3.343   4.148  19.602  0.00  0.00    +0.000 A 
ENDBRANCH   5  12
ENDBRANCH   3   5
ENDBRANCH   1   3
BRANCH   1  14
ATOM     14  N   UNL     1       5.780   5.414  16.368  0.00  0.00    +0.000 NA
ATOM     15  C   UNL     1       6.861   5.319  15.666  0.00  0.00    +0.000 C 
BRANCH  15  16
ATOM     16  C   UNL     1       6.718   4.691  14.373  0.00  0.00    +0.000 A 
ATOM     17  C   UNL     1       7.500   4.924  13.255  0.00  0.00    +0.000 A 
ATOM     18  C   UNL     1       7.068   4.181  12.124  0.00  0.00    +0.000 A 
ATOM     19  C   UNL     1       5.973   3.402  12.432  0.00  0.00    +0.000 A 
ATOM     20  S   UNL     1       5.485   3.557  14.057  0.00  0.00    +0.000 S 
BRANCH  19  21
ATOM     21  N   UNL     1       5.270   2.540  11.519  0.00  0.00    +0.000 N 
ATOM     22  O   UNL     1       4.163   2.933  11.135  0.00  0.00    +0.000 OA
ATOM     23  O   UNL     1       5.811   1.478  11.184  0.00  0.00    +0.000 OA
ENDBRANCH  19  21
ENDBRANCH  15  16
ENDBRANCH   1  14
TORSDOF 6
ENDMDL
MODEL 2
REMARK VINA RESULT:      -6.9      1.251      1.330
REMARK  Name = 
REMARK  7 active torsions:
REMARK  status: ('A' for Active; 'I' for Inactive)
REMARK    1  A    between atoms: C_1  and  C_2
REMARK    2  A    between atoms: C_6  and  N_7
REMARK    3  A    between atoms: N_7  and  C_8
REMARK    4  A    between atoms: C_8  and  N_10
REMARK    5  A    between atoms: N_10  and  N_11
REMARK    6  A    between atoms: C_12  and  C_13
REMARK    7  A    between atoms: C_16  and  N_17
REMARK                            x       y       z     vdW  Elec       q    Type
REMARK                         _______ _______ _______ _____ _____    ______ ____
ROOT
ATOM      1  N   UNL     1       8.084   4.541  17.867  0.00  0.00    +0.000 N 
ATOM      2  H   UNL     1       8.807   4.049  18.384  0.00  0.00    +0.000 HD
ENDROOT
BRANCH   1   3
ATOM      3  C   UNL     1       7.323   5.497  18.534  0.00  0.00    +0.000 C 
ATOM      4  S   UNL     1       7.806   7.088  18.435  0.00  0.00    +0.000 S 
BRANCH   3   5
ATOM      5  N   UNL     1       6.249   4.921  19.191  0.00  0.00    +0.000 N 
ATOM      6  H   UNL     1       6.549   4.562  20.093  0.00  0.00    +0.000 HD
BRANCH   5  12
ATOM      7  C   UNL     1       1.548   5.825  20.467  0.00  0.00    +0.000 C 
ATOM      8  C   UNL     1       2.534   5.243  19.498  0.00  0.00    +0.000 A 
ATOM      9  C   UNL     1       2.131   4.567  18.346  0.00  0.00    +0.000 A 
ATOM     10  C   UNL     1       3.091   4.032  17.487  0.00  0.00    +0.000 A 
ATOM     11  C   UNL     1       4.452   4.181  17.775  0.00  0.00    +0.000 A 
ATOM     12  C   UNL     1       4.871   4.868  18.922  0.00  0.00    +0.000 A 
ATOM     13  C   UNL     1       3.899   5.383  19.777  0.00  0.00    +0.000 A 
ENDBRANCH   5  12
ENDBRANCH   3   5
ENDBRANCH   1   3
BRANCH   1  14
ATOM     14  N   UNL     1       7.696   4.157  16.625  0.00  0.00    +0.000 NA
ATOM     15  C   UNL     1       7.339   5.064  15.776  0.00  0.00    +0.000 C 
BRANCH  15  16
ATOM     16  C   UNL     1       7.006   4.592  14.453  0.00  0.00    +0.000 A 
ATOM     17  C   UNL     1       7.639   4.939  13.272  0.00  0.00    +0.000 A 
ATOM     18  C   UNL     1       7.038   4.338  12.135  0.00  0.00    +0.000 A 
ATOM     19  C   UNL     1       5.970   3.547  12.498  0.00  0.00    +0.000 A 
ATOM     20  S   UNL     1       5.707   3.521  14.182  0.00  0.00    +0.000 S 
BRANCH  19  21
ATOM     21  N   UNL     1       5.125   2.807  11.599  0.00  0.00    +0.000 N 
ATOM     22  O   UNL     1       4.091   3.372  11.227  0.00  0.00    +0.000 OA
ATOM     23  O   UNL     1       5.484   1.671  11.261  0.00  0.00    +0.000 OA
ENDBRANCH  19  21
ENDBRANCH  15  16
ENDBRANCH   1  14
TORSDOF 6
ENDMDL
MODEL 3
REMARK VINA RESULT:      -6.9      5.028      6.722
REMARK  Name = 
REMARK  7 active torsions:
REMARK  status: ('A' for Active; 'I' for Inactive)
REMARK    1  A    between atoms: C_1  and  C_2
REMARK    2  A    between atoms: C_6  and  N_7
REMARK    3  A    between atoms: N_7  and  C_8
REMARK    4  A    between atoms: C_8  and  N_10
REMARK    5  A    between atoms: N_10  and  N_11
REMARK    6  A    between atoms: C_12  and  C_13
REMARK    7  A    between atoms: C_16  and  N_17
REMARK                            x       y       z     vdW  Elec       q    Type
REMARK                         _______ _______ _______ _____ _____    ______ ____
ROOT
ATOM      1  N   UNL     1       5.209   5.625  17.498  0.00  0.00    +0.000 N 
ATOM      2  H   UNL     1       5.061   5.286  16.552  0.00  0.00    +0.000 HD
ENDROOT
BRANCH   1   3
ATOM      3  C   UNL     1       6.072   4.917  18.330  0.00  0.00    +0.000 C 
ATOM      4  S   UNL     1       7.521   5.629  18.740  0.00  0.00    +0.000 S 
BRANCH   3   5
ATOM      5  N   UNL     1       5.539   3.689  18.684  0.00  0.00    +0.000 N 
ATOM      6  H   UNL     1       6.284   3.057  18.963  0.00  0.00    +0.000 HD
BRANCH   5  12
ATOM      7  C   UNL     1       1.606   2.787  21.558  0.00  0.00    +0.000 C 
ATOM      8  C   UNL     1       2.267   2.714  20.213  0.00  0.00    +0.000 A 
ATOM      9  C   UNL     1       1.647   2.119  19.113  0.00  0.00    +0.000 A 
ATOM     10  C   UNL     1       2.315   2.065  17.889  0.00  0.00    +0.000 A 
ATOM     11  C   UNL     1       3.596   2.613  17.763  0.00  0.00    +0.000 A 
ATOM     12  C   UNL     1       4.225   3.223  18.857  0.00  0.00    +0.000 A 
ATOM     13  C   UNL     1       3.551   3.255  20.075  0.00  0.00    +0.000 A 
ENDBRANCH   5  12
ENDBRANCH   3   5
ENDBRANCH   1   3
BRANCH   1  14
ATOM     14  N   UNL     1       4.446   6.606  18.041  0.00  0.00    +0.000 NA
ATOM     15  C   UNL     1       3.165   6.442  18.092  0.00  0.00    +0.000 C 
BRANCH  15  16
ATOM     16  C   UNL     1       2.421   7.492  18.747  0.00  0.00    +0.000 A 
ATOM     17  C   UNL     1       1.986   7.496  20.061  0.00  0.00    +0.000 A 
ATOM     18  C   UNL     1       1.236   8.658  20.383  0.00  0.00    +0.000 A 
ATOM     19  C   UNL     1       1.137   9.501  19.297  0.00  0.00    +0.000 A 
ATOM     20  S   UNL     1       1.945   8.905  17.920  0.00  0.00    +0.000 S 
BRANCH  19  21
ATOM     21  N   UNL     1       0.434  10.755  19.267  0.00  0.00    +0.000 N 
ATOM     22  O   UNL     1       0.765  11.592  20.114  0.00  0.00    +0.000 OA
ATOM     23  O   UNL     1      -0.444  10.913  18.407  0.00  0.00    +0.000 OA
ENDBRANCH  19  21
ENDBRANCH  15  16
ENDBRANCH   1  14
TORSDOF 6
ENDMDL
MODEL 4
REMARK VINA RESULT:      -6.8      1.535      1.536
REMARK  Name = 
REMARK  7 active torsions:
REMARK  status: ('A' for Active; 'I' for Inactive)
REMARK    1  A    between atoms: C_1  and  C_2
REMARK    2  A    between atoms: C_6  and  N_7
REMARK    3  A    between atoms: N_7  and  C_8
REMARK    4  A    between atoms: C_8  and  N_10
REMARK    5  A    between atoms: N_10  and  N_11
REMARK    6  A    between atoms: C_12  and  C_13
REMARK    7  A    between atoms: C_16  and  N_17
REMARK                            x       y       z     vdW  Elec       q    Type
REMARK                         _______ _______ _______ _____ _____    ______ ____
ROOT
ATOM      1  N   UNL     1       5.358   6.949  16.987  0.00  0.00    +0.000 N 
ATOM      2  H   UNL     1       6.109   7.517  17.368  0.00  0.00    +0.000 HD
ENDROOT
BRANCH   1   3
ATOM      3  C   UNL     1       4.263   6.665  17.798  0.00  0.00    +0.000 C 
ATOM      4  S   UNL     1       3.055   7.806  17.908  0.00  0.00    +0.000 S 
BRANCH   3   5
ATOM      5  N   UNL     1       4.385   5.421  18.394  0.00  0.00    +0.000 N 
ATOM      6  H   UNL     1       5.299   5.335  18.829  0.00  0.00    +0.000 HD
BRANCH   5  12
ATOM      7  C   UNL     1       1.343   2.888  21.373  0.00  0.00    +0.000 C 
ATOM      8  C   UNL     1       2.001   3.049  20.034  0.00  0.00    +0.000 A 
ATOM      9  C   UNL     1       1.810   2.134  18.998  0.00  0.00    +0.000 A 
ATOM     10  C   UNL     1       2.460   2.325  17.779  0.00  0.00    +0.000 A 
ATOM     11  C   UNL     1       3.291   3.435  17.592  0.00  0.00    +0.000 A 
ATOM     12  C   UNL     1       3.482   4.368  18.620  0.00  0.00    +0.000 A 
ATOM     13  C   UNL     1       2.838   4.154  19.837  0.00  0.00    +0.000 A 
ENDBRANCH   5  12
ENDBRANCH   3   5
ENDBRANCH   1   3
BRANCH   1  14
ATOM     14  N   UNL     1       5.477   6.291  15.807  0.00  0.00    +0.000 NA
ATOM     15  C   UNL     1       6.523   5.560  15.605  0.00  0.00    +0.000 C 
BRANCH  15  16
ATOM     16  C   UNL     1       6.552   4.831  14.359  0.00  0.00    +0.000 A 
ATOM     17  C   UNL     1       7.478   4.976  13.341  0.00  0.00    +0.000 A 
ATOM     18  C   UNL     1       7.197   4.144  12.225  0.00  0.00    +0.000 A 
ATOM     19  C   UNL     1       6.065   3.388  12.443  0.00  0.00    +0.000 A 
ATOM     20  S   UNL     1       5.364   3.670  13.970  0.00  0.00    +0.000 S 
BRANCH  19  21
ATOM     21  N   UNL     1       5.486   2.454  11.515  0.00  0.00    +0.000 N 
ATOM     22  O   UNL     1       4.349   2.718  11.108  0.00  0.00    +0.000 OA
ATOM     23  O   UNL     1       6.152   1.462  11.191  0.00  0.00    +0.000 OA
ENDBRANCH  19  21
ENDBRANCH  15  16
ENDBRANCH   1  14
TORSDOF 6
ENDMDL
MODEL 5
REMARK VINA RESULT:      -6.7      1.054      1.470
REMARK  Name = 
REMARK  7 active torsions:
REMARK  status: ('A' for Active; 'I' for Inactive)
REMARK    1  A    between atoms: C_1  and  C_2
REMARK    2  A    between atoms: C_6  and  N_7
REMARK    3  A    between atoms: N_7  and  C_8
REMARK    4  A    between atoms: C_8  and  N_10
REMARK    5  A    between atoms: N_10  and  N_11
REMARK    6  A    between atoms: C_12  and  C_13
REMARK    7  A    between atoms: C_16  and  N_17
REMARK                            x       y       z     vdW  Elec       q    Type
REMARK                         _______ _______ _______ _____ _____    ______ ____
ROOT
ATOM      1  N   UNL     1       7.759   5.648  17.390  0.00  0.00    +0.000 N 
ATOM      2  H   UNL     1       8.396   6.439  17.432  0.00  0.00    +0.000 HD
ENDROOT
BRANCH   1   3
ATOM      3  C   UNL     1       7.283   5.114  18.584  0.00  0.00    +0.000 C 
ATOM      4  S   UNL     1       7.970   5.645  20.005  0.00  0.00    +0.000 S 
BRANCH   3   5
ATOM      5  N   UNL     1       6.274   4.192  18.359  0.00  0.00    +0.000 N 
ATOM      6  H   UNL     1       6.675   3.267  18.233  0.00  0.00    +0.000 HD
BRANCH   5  12
ATOM      7  C   UNL     1       1.841   2.055  18.923  0.00  0.00    +0.000 C 
ATOM      8  C   UNL     1       2.656   3.282  18.637  0.00  0.00    +0.000 A 
ATOM      9  C   UNL     1       2.068   4.511  18.338  0.00  0.00    +0.000 A 
ATOM     10  C   UNL     1       2.875   5.615  18.065  0.00  0.00    +0.000 A 
ATOM     11  C   UNL     1       4.269   5.493  18.100  0.00  0.00    +0.000 A 
ATOM     12  C   UNL     1       4.873   4.267  18.411  0.00  0.00    +0.000 A 
ATOM     13  C   UNL     1       4.052   3.171  18.666  0.00  0.00    +0.000 A 
ENDBRANCH   5  12
ENDBRANCH   3   5
ENDBRANCH   1   3
BRANCH   1  14
ATOM     14  N   UNL     1       7.526   4.969  16.239  0.00  0.00    +0.000 NA
ATOM     15  C   UNL     1       6.884   5.561  15.286  0.00  0.00    +0.000 C 
BRANCH  15  16
ATOM     16  C   UNL     1       6.733   4.806  14.064  0.00  0.00    +0.000 A 
ATOM     17  C   UNL     1       7.515   4.916  12.927  0.00  0.00    +0.000 A 
ATOM     18  C   UNL     1       7.074   4.066  11.879  0.00  0.00    +0.000 A 
ATOM     19  C   UNL     1       5.973   3.332  12.265  0.00  0.00    +0.000 A 
ATOM     20  S   UNL     1       5.490   3.656  13.867  0.00  0.00    +0.000 S 
BRANCH  19  21
ATOM     21  N   UNL     1       5.260   2.389  11.446  0.00  0.00    +0.000 N 
ATOM     22  O   UNL     1       4.139   2.734  11.059  0.00  0.00    +0.000 OA
ATOM     23  O   UNL     1       5.808   1.309  11.187  0.00  0.00    +0.000 OA
ENDBRANCH  19  21
ENDBRANCH  15  16
ENDBRANCH   1  14
TORSDOF 6
ENDMDL
MODEL 6
REMARK VINA RESULT:      -6.7      6.642      8.857
REMARK  Name = 
REMARK  7 active torsions:
REMARK  status: ('A' for Active; 'I' for Inactive)
REMARK    1  A    between atoms: C_1  and  C_2
REMARK    2  A    between atoms: C_6  and  N_7
REMARK    3  A    between atoms: N_7  and  C_8
REMARK    4  A    between atoms: C_8  and  N_10
REMARK    5  A    between atoms: N_10  and  N_11
REMARK    6  A    between atoms: C_12  and  C_13
REMARK    7  A    between atoms: C_16  and  N_17
REMARK                            x       y       z     vdW  Elec       q    Type
REMARK                         _______ _______ _______ _____ _____    ______ ____
ROOT
ATOM      1  N   UNL     1       2.803   7.974  17.550  0.00  0.00    +0.000 N 
ATOM      2  H   UNL     1       2.653   8.214  16.575  0.00  0.00    +0.000 HD
ENDROOT
BRANCH   1   3
ATOM      3  C   UNL     1       3.627   6.892  17.850  0.00  0.00    +0.000 C 
ATOM      4  S   UNL     1       4.855   6.528  16.786  0.00  0.00    +0.000 S 
BRANCH   3   5
ATOM      5  N   UNL     1       3.254   6.287  19.039  0.00  0.00    +0.000 N 
ATOM      6  H   UNL     1       3.216   6.980  19.781  0.00  0.00    +0.000 HD
BRANCH   5  12
ATOM      7  C   UNL     1       3.476   1.366  18.514  0.00  0.00    +0.000 C 
ATOM      8  C   UNL     1       2.829   2.571  19.130  0.00  0.00    +0.000 A 
ATOM      9  C   UNL     1       1.724   2.469  19.977  0.00  0.00    +0.000 A 
ATOM     10  C   UNL     1       1.153   3.625  20.509  0.00  0.00    +0.000 A 
ATOM     11  C   UNL     1       1.691   4.880  20.203  0.00  0.00    +0.000 A 
ATOM     12  C   UNL     1       2.807   4.996  19.364  0.00  0.00    +0.000 A 
ATOM     13  C   UNL     1       3.356   3.833  18.828  0.00  0.00    +0.000 A 
ENDBRANCH   5  12
ENDBRANCH   3   5
ENDBRANCH   1   3
BRANCH   1  14
ATOM     14  N   UNL     1       2.072   8.527  18.551  0.00  0.00    +0.000 NA
ATOM     15  C   UNL     1       1.324   9.546  18.285  0.00  0.00    +0.000 C 
BRANCH  15  16
ATOM     16  C   UNL     1       0.520  10.040  19.378  0.00  0.00    +0.000 A 
ATOM     17  C   UNL     1      -0.469  11.005  19.302  0.00  0.00    +0.000 A 
ATOM     18  C   UNL     1      -1.039  11.302  20.568  0.00  0.00    +0.000 A 
ATOM     19  C   UNL     1      -0.463  10.541  21.562  0.00  0.00    +0.000 A 
ATOM     20  S   UNL     1       0.734   9.480  20.974  0.00  0.00    +0.000 S 
BRANCH  19  21
ATOM     21  N   UNL     1      -0.788  10.599  22.962  0.00  0.00    +0.000 N 
ATOM     22  O   UNL     1      -0.039   9.980  23.726  0.00  0.00    +0.000 OA
ATOM     23  O   UNL     1      -1.781  11.254  23.305  0.00  0.00    +0.000 OA
ENDBRANCH  19  21
ENDBRANCH  15  16
ENDBRANCH   1  14
TORSDOF 6
ENDMDL
MODEL 7
REMARK VINA RESULT:      -6.7      5.216      6.847
REMARK  Name = 
REMARK  7 active torsions:
REMARK  status: ('A' for Active; 'I' for Inactive)
REMARK    1  A    between atoms: C_1  and  C_2
REMARK    2  A    between atoms: C_6  and  N_7
REMARK    3  A    between atoms: N_7  and  C_8
REMARK    4  A    between atoms: C_8  and  N_10
REMARK    5  A    between atoms: N_10  and  N_11
REMARK    6  A    between atoms: C_12  and  C_13
REMARK    7  A    between atoms: C_16  and  N_17
REMARK                            x       y       z     vdW  Elec       q    Type
REMARK                         _______ _______ _______ _____ _____    ______ ____
ROOT
ATOM      1  N   UNL     1       5.073   5.798  17.581  0.00  0.00    +0.000 N 
ATOM      2  H   UNL     1       5.070   5.657  16.575  0.00  0.00    +0.000 HD
ENDROOT
BRANCH   1   3
ATOM      3  C   UNL     1       5.923   5.016  18.359  0.00  0.00    +0.000 C 
ATOM      4  S   UNL     1       7.323   5.716  18.928  0.00  0.00    +0.000 S 
BRANCH   3   5
ATOM      5  N   UNL     1       5.422   3.736  18.526  0.00  0.00    +0.000 N 
ATOM      6  H   UNL     1       6.186   3.067  18.545  0.00  0.00    +0.000 HD
BRANCH   5  12
ATOM      7  C   UNL     1       1.721   2.805  21.685  0.00  0.00    +0.000 C 
ATOM      8  C   UNL     1       2.295   2.706  20.302  0.00  0.00    +0.000 A 
ATOM      9  C   UNL     1       1.627   2.051  19.267  0.00  0.00    +0.000 A 
ATOM     10  C   UNL     1       2.214   1.975  18.004  0.00  0.00    +0.000 A 
ATOM     11  C   UNL     1       3.464   2.562  17.774  0.00  0.00    +0.000 A 
ATOM     12  C   UNL     1       4.140   3.232  18.802  0.00  0.00    +0.000 A 
ATOM     13  C   UNL     1       3.546   3.285  20.061  0.00  0.00    +0.000 A 
ENDBRANCH   5  12
ENDBRANCH   3   5
ENDBRANCH   1   3
BRANCH   1  14
ATOM     14  N   UNL     1       4.140   6.558  18.206  0.00  0.00    +0.000 NA
ATOM     15  C   UNL     1       3.578   7.519  17.550  0.00  0.00    +0.000 C 
BRANCH  15  16
ATOM     16  C   UNL     1       2.544   8.242  18.253  0.00  0.00    +0.000 A 
ATOM     17  C   UNL     1       1.913   9.397  17.827  0.00  0.00    +0.000 A 
ATOM     18  C   UNL     1       0.974   9.886  18.774  0.00  0.00    +0.000 A 
ATOM     19  C   UNL     1       0.924   9.074  19.887  0.00  0.00    +0.000 A 
ATOM     20  S   UNL     1       1.980   7.741  19.782  0.00  0.00    +0.000 S 
BRANCH  19  21
ATOM     21  N   UNL     1       0.097   9.283  21.045  0.00  0.00    +0.000 N 
ATOM     22  O   UNL     1      -0.393   8.273  21.560  0.00  0.00    +0.000 OA
ATOM     23  O   UNL     1      -0.069  10.444  21.443  0.00  0.00    +0.000 OA
ENDBRANCH  19  21
ENDBRANCH  15  16
ENDBRANCH   1  14
TORSDOF 6
ENDMDL
MODEL 8
REMARK VINA RESULT:      -6.7      6.634      8.710
REMARK  Name = 
REMARK  7 active torsions:
REMARK  status: ('A' for Active; 'I' for Inactive)
REMARK    1  A    between atoms: C_1  and  C_2
REMARK    2  A    between atoms: C_6  and  N_7
REMARK    3  A    between atoms: N_7  and  C_8
REMARK    4  A    between atoms: C_8  and  N_10
REMARK    5  A    between atoms: N_10  and  N_11
REMARK    6  A    between atoms: C_12  and  C_13
REMARK    7  A    between atoms: C_16  and  N_17
REMARK                            x       y       z     vdW  Elec       q    Type
REMARK                         _______ _______ _______ _____ _____    ______ ____
ROOT
ATOM      1  N   UNL     1       2.975   8.113  17.427  0.00  0.00    +0.000 N 
ATOM      2  H   UNL     1       3.045   8.482  16.483  0.00  0.00    +0.000 HD
ENDROOT
BRANCH   1   3
ATOM      3  C   UNL     1       3.337   6.787  17.651  0.00  0.00    +0.000 C 
ATOM      4  S   UNL     1       4.941   6.376  17.473  0.00  0.00    +0.000 S 
BRANCH   3   5
ATOM      5  N   UNL     1       2.242   6.015  18.000  0.00  0.00    +0.000 N 
ATOM      6  H   UNL     1       1.385   6.522  17.798  0.00  0.00    +0.000 HD
BRANCH   5  12
ATOM      7  C   UNL     1       1.502   2.662  21.571  0.00  0.00    +0.000 C 
ATOM      8  C   UNL     1       1.778   2.974  20.129  0.00  0.00    +0.000 A 
ATOM      9  C   UNL     1       1.979   1.973  19.178  0.00  0.00    +0.000 A 
ATOM     10  C   UNL     1       2.248   2.322  17.855  0.00  0.00    +0.000 A 
ATOM     11  C   UNL     1       2.308   3.669  17.481  0.00  0.00    +0.000 A 
ATOM     12  C   UNL     1       2.097   4.684  18.424  0.00  0.00    +0.000 A 
ATOM     13  C   UNL     1       1.845   4.319  19.744  0.00  0.00    +0.000 A 
ENDBRANCH   5  12
ENDBRANCH   3   5
ENDBRANCH   1   3
BRANCH   1  14
ATOM     14  N   UNL     1       2.349   8.789  18.422  0.00  0.00    +0.000 NA
ATOM     15  C   UNL     1       1.216   9.358  18.172  0.00  0.00    +0.000 C 
BRANCH  15  16
ATOM     16  C   UNL     1       0.572  10.000  19.294  0.00  0.00    +0.000 A 
ATOM     17  C   UNL     1      -0.164  11.172  19.260  0.00  0.00    +0.000 A 
ATOM     18  C   UNL     1      -0.624  11.563  20.546  0.00  0.00    +0.000 A 
ATOM     19  C   UNL     1      -0.224  10.663  21.511  0.00  0.00    +0.000 A 
ATOM     20  S   UNL     1       0.678   9.365  20.873  0.00  0.00    +0.000 S 
BRANCH  19  21
ATOM     21  N   UNL     1      -0.500  10.761  22.919  0.00  0.00    +0.000 N 
ATOM     22  O   UNL     1       0.022   9.905  23.642  0.00  0.00    +0.000 OA
ATOM     23  O   UNL     1      -1.231  11.681  23.309  0.00  0.00    +0.000 OA
ENDBRANCH  19  21
ENDBRANCH  15  16
ENDBRANCH   1  14
TORSDOF 6
ENDMDL
MODEL 9
REMARK VINA RESULT:      -6.6      4.186      4.997
REMARK  Name = 
REMARK  7 active torsions:
REMARK  status: ('A' for Active; 'I' for Inactive)
REMARK    1  A    between atoms: C_1  and  C_2
REMARK    2  A    between atoms: C_6  and  N_7
REMARK    3  A    between atoms: N_7  and  C_8
REMARK    4  A    between atoms: C_8  and  N_10
REMARK    5  A    between atoms: N_10  and  N_11
REMARK    6  A    between atoms: C_12  and  C_13
REMARK    7  A    between atoms: C_16  and  N_17
REMARK                            x       y       z     vdW  Elec       q    Type
REMARK                         _______ _______ _______ _____ _____    ______ ____
ROOT
ATOM      1  N   UNL     1       3.665   5.398  20.222  0.00  0.00    +0.000 N 
ATOM      2  H   UNL     1       4.209   5.502  21.073  0.00  0.00    +0.000 HD
ENDROOT
BRANCH   1   3
ATOM      3  C   UNL     1       2.284   5.560  20.291  0.00  0.00    +0.000 C 
ATOM      4  S   UNL     1       1.324   4.262  19.885  0.00  0.00    +0.000 S 
BRANCH   3   5
ATOM      5  N   UNL     1       1.945   6.837  20.707  0.00  0.00    +0.000 N 
ATOM      6  H   UNL     1       2.044   6.908  21.716  0.00  0.00    +0.000 HD
BRANCH   5  12
ATOM      7  C   UNL     1      -0.281  11.256  20.471  0.00  0.00    +0.000 C 
ATOM      8  C   UNL     1       0.548  10.191  19.815  0.00  0.00    +0.000 A 
ATOM      9  C   UNL     1       0.982  10.296  18.493  0.00  0.00    +0.000 A 
ATOM     10  C   UNL     1       1.736   9.268  17.930  0.00  0.00    +0.000 A 
ATOM     11  C   UNL     1       2.064   8.139  18.690  0.00  0.00    +0.000 A 
ATOM     12  C   UNL     1       1.644   8.025  20.021  0.00  0.00    +0.000 A 
ATOM     13  C   UNL     1       0.878   9.055  20.564  0.00  0.00    +0.000 A 
ENDBRANCH   5  12
ENDBRANCH   3   5
ENDBRANCH   1   3
BRANCH   1  14
ATOM     14  N   UNL     1       4.202   4.903  19.078  0.00  0.00    +0.000 NA
ATOM     15  C   UNL     1       4.341   5.692  18.064  0.00  0.00    +0.000 C 
BRANCH  15  16
ATOM     16  C   UNL     1       4.984   5.120  16.904  0.00  0.00    +0.000 A 
ATOM     17  C   UNL     1       5.013   3.781  16.556  0.00  0.00    +0.000 A 
ATOM     18  C   UNL     1       5.772   3.540  15.380  0.00  0.00    +0.000 A 
ATOM     19  C   UNL     1       6.287   4.714  14.873  0.00  0.00    +0.000 A 
ATOM     20  S   UNL     1       5.851   6.080  15.794  0.00  0.00    +0.000 S 
BRANCH  19  21
ATOM     21  N   UNL     1       7.117   4.833  13.705  0.00  0.00    +0.000 N 
ATOM     22  O   UNL     1       8.032   5.661  13.763  0.00  0.00    +0.000 OA
ATOM     23  O   UNL     1       6.863   4.111  12.731  0.00  0.00    +0.000 OA
ENDBRANCH  19  21
ENDBRANCH  15  16
ENDBRANCH   1  14
TORSDOF 6
ENDMDL
