MODEL 1
REMARK VINA RESULT:      -7.1      0.000      0.000
REMARK  Name = 
REMARK  7 active torsions:
REMARK  status: ('A' for Active; 'I' for Inactive)
REMARK    1  A    between atoms: C_1  and  C_2
REMARK    2  A    between atoms: C_2  and  C_3
REMARK    3  A    between atoms: C_3  and  C_4
REMARK    4  A    between atoms: C_4  and  O_5
REMARK    5  A    between atoms: O_5  and  C_6
REMARK    6  A    between atoms: C_6  and  C_8
REMARK    7  A    between atoms: C_8  and  N_9
REMARK                            x       y       z     vdW  Elec       q    Type
REMARK                         _______ _______ _______ _____ _____    ______ ____
ROOT
ATOM      1  N   UNL     1       4.601   5.943  16.549  0.00  0.00    +0.000 N 
ATOM      2  C   UNL     1       4.307   7.203  17.018  0.00  0.00    +0.000 A 
ATOM      3  N   UNL     1       3.638   7.447  18.097  0.00  0.00    +0.000 NA
ATOM      4  C   UNL     1       3.158   6.345  18.821  0.00  0.00    +0.000 A 
ATOM      5  C   UNL     1       2.337   6.580  19.923  0.00  0.00    +0.000 A 
ATOM      6  C   UNL     1       1.780   5.513  20.634  0.00  0.00    +0.000 A 
ATOM      7  C   UNL     1       2.087   4.198  20.265  0.00  0.00    +0.000 A 
ATOM      8 BR   UNL     1       1.347   2.754  21.235  0.00  0.00    +0.000 Br
ATOM      9  C   UNL     1       2.926   3.942  19.190  0.00  0.00    +0.000 A 
ATOM     10  C   UNL     1       3.430   5.026  18.455  0.00  0.00    +0.000 A 
ATOM     11  C   UNL     1       4.221   4.802  17.240  0.00  0.00    +0.000 A 
ATOM     12  O   UNL     1       4.467   3.662  16.868  0.00  0.00    +0.000 OA
ENDROOT
BRANCH   1  13
ATOM     13  C   UNL     1       5.327   5.778  15.313  0.00  0.00    +0.000 C 
BRANCH  13  14
ATOM     14  C   UNL     1       6.779   5.446  15.583  0.00  0.00    +0.000 C 
ATOM     15  O   UNL     1       7.501   6.068  16.354  0.00  0.00    +0.000 OA
BRANCH  14  16
ATOM     16  O   UNL     1       7.167   4.381  14.838  0.00  0.00    +0.000 OA
BRANCH  16  17
ATOM     17  C   UNL     1       6.145   3.867  13.986  0.00  0.00    +0.000 C 
BRANCH  17  18
ATOM     18  C   UNL     1       6.611   3.801  12.540  0.00  0.00    +0.000 C 
BRANCH  18  20
ATOM     19  C   UNL     1       4.379   3.201  11.531  0.00  0.00    +0.000 C 
ATOM     20  C   UNL     1       5.806   2.749  11.780  0.00  0.00    +0.000 C 
ENDBRANCH  18  20
ENDBRANCH  17  18
ENDBRANCH  16  17
ENDBRANCH  14  16
ENDBRANCH  13  14
ENDBRANCH   1  13
TORSDOF 6
ENDMDL
MODEL 2
REMARK VINA RESULT:      -7.0      2.279      4.098
REMARK  Name = 
REMARK  7 active torsions:
REMARK  status: ('A' for Active; 'I' for Inactive)
REMARK    1  A    between atoms: C_1  and  C_2
REMARK    2  A    between atoms: C_2  and  C_3
REMARK    3  A    between atoms: C_3  and  C_4
REMARK    4  A    between atoms: C_4  and  O_5
REMARK    5  A    between atoms: O_5  and  C_6
REMARK    6  A    between atoms: C_6  and  C_8
REMARK    7  A    between atoms: C_8  and  N_9
REMARK                            x       y       z     vdW  Elec       q    Type
REMARK                         _______ _______ _______ _____ _____    ______ ____
ROOT
ATOM      1  N   UNL     1       4.787   5.695  17.064  0.00  0.00    +0.000 N 
ATOM      2  C   UNL     1       4.240   6.935  17.305  0.00  0.00    +0.000 A 
ATOM      3  N   UNL     1       3.394   7.193  18.248  0.00  0.00    +0.000 NA
ATOM      4  C   UNL     1       2.991   6.125  19.063  0.00  0.00    +0.000 A 
ATOM      5  C   UNL     1       1.995   6.352  20.012  0.00  0.00    +0.000 A 
ATOM      6  C   UNL     1       1.513   5.302  20.800  0.00  0.00    +0.000 A 
ATOM      7  C   UNL     1       2.067   4.024  20.667  0.00  0.00    +0.000 A 
ATOM      8 BR   UNL     1       1.427   2.607  21.743  0.00  0.00    +0.000 Br
ATOM      9  C   UNL     1       3.080   3.783  19.749  0.00  0.00    +0.000 A 
ATOM     10  C   UNL     1       3.511   4.837  18.929  0.00  0.00    +0.000 A 
ATOM     11  C   UNL     1       4.492   4.601  17.864  0.00  0.00    +0.000 A 
ATOM     12  O   UNL     1       4.960   3.483  17.696  0.00  0.00    +0.000 OA
ENDROOT
BRANCH   1  13
ATOM     13  C   UNL     1       5.698   5.504  15.962  0.00  0.00    +0.000 C 
BRANCH  13  14
ATOM     14  C   UNL     1       7.134   5.575  16.434  0.00  0.00    +0.000 C 
ATOM     15  O   UNL     1       7.796   4.606  16.786  0.00  0.00    +0.000 OA
BRANCH  14  16
ATOM     16  O   UNL     1       7.571   6.859  16.430  0.00  0.00    +0.000 OA
BRANCH  16  17
ATOM     17  C   UNL     1       7.807   7.395  17.730  0.00  0.00    +0.000 C 
BRANCH  17  18
ATOM     18  C   UNL     1       7.964   8.906  17.687  0.00  0.00    +0.000 C 
BRANCH  18  20
ATOM     19  C   UNL     1       9.326  10.799  18.648  0.00  0.00    +0.000 C 
ATOM     20  C   UNL     1       8.845   9.373  18.844  0.00  0.00    +0.000 C 
ENDBRANCH  18  20
ENDBRANCH  17  18
ENDBRANCH  16  17
ENDBRANCH  14  16
ENDBRANCH  13  14
ENDBRANCH   1  13
TORSDOF 6
ENDMDL
MODEL 3
REMARK VINA RESULT:      -7.0      1.357      1.457
REMARK  Name = 
REMARK  7 active torsions:
REMARK  status: ('A' for Active; 'I' for Inactive)
REMARK    1  A    between atoms: C_1  and  C_2
REMARK    2  A    between atoms: C_2  and  C_3
REMARK    3  A    between atoms: C_3  and  C_4
REMARK    4  A    between atoms: C_4  and  O_5
REMARK    5  A    between atoms: O_5  and  C_6
REMARK    6  A    between atoms: C_6  and  C_8
REMARK    7  A    between atoms: C_8  and  N_9
REMARK                            x       y       z     vdW  Elec       q    Type
REMARK                         _______ _______ _______ _____ _____    ______ ____
ROOT
ATOM      1  N   UNL     1       5.570   6.244  17.846  0.00  0.00    +0.000 N 
ATOM      2  C   UNL     1       4.534   6.990  17.330  0.00  0.00    +0.000 A 
ATOM      3  N   UNL     1       3.298   6.878  17.691  0.00  0.00    +0.000 NA
ATOM      4  C   UNL     1       2.994   5.909  18.660  0.00  0.00    +0.000 A 
ATOM      5  C   UNL     1       1.656   5.689  18.983  0.00  0.00    +0.000 A 
ATOM      6  C   UNL     1       1.301   4.687  19.891  0.00  0.00    +0.000 A 
ATOM      7  C   UNL     1       2.299   3.931  20.516  0.00  0.00    +0.000 A 
ATOM      8 BR   UNL     1       1.821   2.587  21.756  0.00  0.00    +0.000 Br
ATOM      9  C   UNL     1       3.639   4.154  20.231  0.00  0.00    +0.000 A 
ATOM     10  C   UNL     1       3.972   5.126  19.275  0.00  0.00    +0.000 A 
ATOM     11  C   UNL     1       5.364   5.312  18.853  0.00  0.00    +0.000 A 
ATOM     12  O   UNL     1       6.253   4.634  19.349  0.00  0.00    +0.000 OA
ENDROOT
BRANCH   1  13
ATOM     13  C   UNL     1       6.912   6.423  17.349  0.00  0.00    +0.000 C 
BRANCH  13  14
ATOM     14  C   UNL     1       7.244   5.372  16.312  0.00  0.00    +0.000 C 
ATOM     15  O   UNL     1       7.957   4.396  16.517  0.00  0.00    +0.000 OA
BRANCH  14  16
ATOM     16  O   UNL     1       6.661   5.676  15.125  0.00  0.00    +0.000 OA
BRANCH  16  17
ATOM     17  C   UNL     1       7.016   4.794  14.062  0.00  0.00    +0.000 C 
BRANCH  17  18
ATOM     18  C   UNL     1       5.910   3.790  13.782  0.00  0.00    +0.000 C 
BRANCH  18  20
ATOM     19  C   UNL     1       4.574   3.352  11.688  0.00  0.00    +0.000 C 
ATOM     20  C   UNL     1       5.955   3.358  12.318  0.00  0.00    +0.000 C 
ENDBRANCH  18  20
ENDBRANCH  17  18
ENDBRANCH  16  17
ENDBRANCH  14  16
ENDBRANCH  13  14
ENDBRANCH   1  13
TORSDOF 6
ENDMDL
MODEL 4
REMARK VINA RESULT:      -7.0      3.487      6.369
REMARK  Name = 
REMARK  7 active torsions:
REMARK  status: ('A' for Active; 'I' for Inactive)
REMARK    1  A    between atoms: C_1  and  C_2
REMARK    2  A    between atoms: C_2  and  C_3
REMARK    3  A    between atoms: C_3  and  C_4
REMARK    4  A    between atoms: C_4  and  O_5
REMARK    5  A    between atoms: O_5  and  C_6
REMARK    6  A    between atoms: C_6  and  C_8
REMARK    7  A    between atoms: C_8  and  N_9
REMARK                            x       y       z     vdW  Elec       q    Type
REMARK                         _______ _______ _______ _____ _____    ______ ____
ROOT
ATOM      1  N   UNL     1       3.413   3.125  18.840  0.00  0.00    +0.000 N 
ATOM      2  C   UNL     1       4.406   3.485  19.722  0.00  0.00    +0.000 A 
ATOM      3  N   UNL     1       5.540   4.004  19.381  0.00  0.00    +0.000 NA
ATOM      4  C   UNL     1       5.778   4.185  18.010  0.00  0.00    +0.000 A 
ATOM      5  C   UNL     1       7.036   4.634  17.608  0.00  0.00    +0.000 A 
ATOM      6  C   UNL     1       7.342   4.764  16.250  0.00  0.00    +0.000 A 
ATOM      7  C   UNL     1       6.364   4.487  15.288  0.00  0.00    +0.000 A 
ATOM      8 BR   UNL     1       6.772   4.677  13.452  0.00  0.00    +0.000 Br
ATOM      9  C   UNL     1       5.097   4.067  15.668  0.00  0.00    +0.000 A 
ATOM     10  C   UNL     1       4.826   3.889  17.033  0.00  0.00    +0.000 A 
ATOM     11  C   UNL     1       3.543   3.332  17.474  0.00  0.00    +0.000 A 
ATOM     12  O   UNL     1       2.685   3.038  16.652  0.00  0.00    +0.000 OA
ENDROOT
BRANCH   1  13
ATOM     13  C   UNL     1       2.195   2.521  19.322  0.00  0.00    +0.000 C 
BRANCH  13  14
ATOM     14  C   UNL     1       1.509   3.423  20.325  0.00  0.00    +0.000 C 
ATOM     15  O   UNL     1       1.219   3.093  21.469  0.00  0.00    +0.000 OA
BRANCH  14  16
ATOM     16  O   UNL     1       1.245   4.633  19.771  0.00  0.00    +0.000 OA
BRANCH  16  17
ATOM     17  C   UNL     1       1.552   5.738  20.620  0.00  0.00    +0.000 C 
BRANCH  17  18
ATOM     18  C   UNL     1       2.414   6.764  19.903  0.00  0.00    +0.000 C 
BRANCH  18  20
ATOM     19  C   UNL     1       3.497   7.217  17.670  0.00  0.00    +0.000 C 
ATOM     20  C   UNL     1       2.347   6.539  18.393  0.00  0.00    +0.000 C 
ENDBRANCH  18  20
ENDBRANCH  17  18
ENDBRANCH  16  17
ENDBRANCH  14  16
ENDBRANCH  13  14
ENDBRANCH   1  13
TORSDOF 6
ENDMDL
MODEL 5
REMARK VINA RESULT:      -6.8      2.466      4.072
REMARK  Name = 
REMARK  7 active torsions:
REMARK  status: ('A' for Active; 'I' for Inactive)
REMARK    1  A    between atoms: C_1  and  C_2
REMARK    2  A    between atoms: C_2  and  C_3
REMARK    3  A    between atoms: C_3  and  C_4
REMARK    4  A    between atoms: C_4  and  O_5
REMARK    5  A    between atoms: O_5  and  C_6
REMARK    6  A    between atoms: C_6  and  C_8
REMARK    7  A    between atoms: C_8  and  N_9
REMARK                            x       y       z     vdW  Elec       q    Type
REMARK                         _______ _______ _______ _____ _____    ______ ____
ROOT
ATOM      1  N   UNL     1       4.356   4.210  16.937  0.00  0.00    +0.000 N 
ATOM      2  C   UNL     1       3.931   3.058  17.561  0.00  0.00    +0.000 A 
ATOM      3  N   UNL     1       3.140   3.026  18.583  0.00  0.00    +0.000 NA
ATOM      4  C   UNL     1       2.710   4.255  19.104  0.00  0.00    +0.000 A 
ATOM      5  C   UNL     1       1.950   4.253  20.274  0.00  0.00    +0.000 A 
ATOM      6  C   UNL     1       1.557   5.455  20.867  0.00  0.00    +0.000 A 
ATOM      7  C   UNL     1       1.887   6.671  20.257  0.00  0.00    +0.000 A 
ATOM      8 BR   UNL     1       1.341   8.298  21.050  0.00  0.00    +0.000 Br
ATOM      9  C   UNL     1       2.616   6.695  19.076  0.00  0.00    +0.000 A 
ATOM     10  C   UNL     1       3.049   5.479  18.526  0.00  0.00    +0.000 A 
ATOM     11  C   UNL     1       3.924   5.462  17.349  0.00  0.00    +0.000 A 
ATOM     12  O   UNL     1       4.265   6.512  16.821  0.00  0.00    +0.000 OA
ENDROOT
BRANCH   1  13
ATOM     13  C   UNL     1       5.268   4.139  15.822  0.00  0.00    +0.000 C 
BRANCH  13  14
ATOM     14  C   UNL     1       6.690   4.387  16.274  0.00  0.00    +0.000 C 
ATOM     15  O   UNL     1       7.630   4.606  15.519  0.00  0.00    +0.000 OA
BRANCH  14  16
ATOM     16  O   UNL     1       6.777   4.312  17.626  0.00  0.00    +0.000 OA
BRANCH  16  17
ATOM     17  C   UNL     1       7.913   4.980  18.172  0.00  0.00    +0.000 C 
BRANCH  17  18
ATOM     18  C   UNL     1       7.545   6.357  18.702  0.00  0.00    +0.000 C 
BRANCH  18  20
ATOM     19  C   UNL     1       8.175   8.691  17.986  0.00  0.00    +0.000 C 
ATOM     20  C   UNL     1       7.552   7.374  17.562  0.00  0.00    +0.000 C 
ENDBRANCH  18  20
ENDBRANCH  17  18
ENDBRANCH  16  17
ENDBRANCH  14  16
ENDBRANCH  13  14
ENDBRANCH   1  13
TORSDOF 6
ENDMDL
MODEL 6
REMARK VINA RESULT:      -6.7      3.086      6.510
REMARK  Name = 
REMARK  7 active torsions:
REMARK  status: ('A' for Active; 'I' for Inactive)
REMARK    1  A    between atoms: C_1  and  C_2
REMARK    2  A    between atoms: C_2  and  C_3
REMARK    3  A    between atoms: C_3  and  C_4
REMARK    4  A    between atoms: C_4  and  O_5
REMARK    5  A    between atoms: O_5  and  C_6
REMARK    6  A    between atoms: C_6  and  C_8
REMARK    7  A    between atoms: C_8  and  N_9
REMARK                            x       y       z     vdW  Elec       q    Type
REMARK                         _______ _______ _______ _____ _____    ______ ____
ROOT
ATOM      1  N   UNL     1       5.721   5.488  17.062  0.00  0.00    +0.000 N 
ATOM      2  C   UNL     1       6.905   6.134  16.787  0.00  0.00    +0.000 A 
ATOM      3  N   UNL     1       7.544   6.050  15.667  0.00  0.00    +0.000 NA
ATOM      4  C   UNL     1       7.000   5.220  14.675  0.00  0.00    +0.000 A 
ATOM      5  C   UNL     1       7.728   5.022  13.501  0.00  0.00    +0.000 A 
ATOM      6  C   UNL     1       7.259   4.151  12.514  0.00  0.00    +0.000 A 
ATOM      7  C   UNL     1       6.027   3.508  12.684  0.00  0.00    +0.000 A 
ATOM      8 BR   UNL     1       5.384   2.341  11.343  0.00  0.00    +0.000 Br
ATOM      9  C   UNL     1       5.273   3.715  13.831  0.00  0.00    +0.000 A 
ATOM     10  C   UNL     1       5.787   4.550  14.834  0.00  0.00    +0.000 A 
ATOM     11  C   UNL     1       5.083   4.701  16.113  0.00  0.00    +0.000 A 
ATOM     12  O   UNL     1       4.027   4.117  16.306  0.00  0.00    +0.000 OA
ENDROOT
BRANCH   1  13
ATOM     13  C   UNL     1       5.104   5.620  18.358  0.00  0.00    +0.000 C 
BRANCH  13  14
ATOM     14  C   UNL     1       5.845   4.801  19.392  0.00  0.00    +0.000 C 
ATOM     15  O   UNL     1       6.907   5.131  19.908  0.00  0.00    +0.000 OA
BRANCH  14  16
ATOM     16  O   UNL     1       5.180   3.647  19.648  0.00  0.00    +0.000 OA
BRANCH  16  17
ATOM     17  C   UNL     1       3.761   3.789  19.669  0.00  0.00    +0.000 C 
BRANCH  17  18
ATOM     18  C   UNL     1       3.081   2.498  20.098  0.00  0.00    +0.000 C 
BRANCH  18  20
ATOM     19  C   UNL     1       1.031   3.928  20.438  0.00  0.00    +0.000 C 
ATOM     20  C   UNL     1       1.890   2.811  21.002  0.00  0.00    +0.000 C 
ENDBRANCH  18  20
ENDBRANCH  17  18
ENDBRANCH  16  17
ENDBRANCH  14  16
ENDBRANCH  13  14
ENDBRANCH   1  13
TORSDOF 6
ENDMDL
MODEL 7
REMARK VINA RESULT:      -6.7      3.389      4.655
REMARK  Name = 
REMARK  7 active torsions:
REMARK  status: ('A' for Active; 'I' for Inactive)
REMARK    1  A    between atoms: C_1  and  C_2
REMARK    2  A    between atoms: C_2  and  C_3
REMARK    3  A    between atoms: C_3  and  C_4
REMARK    4  A    between atoms: C_4  and  O_5
REMARK    5  A    between atoms: O_5  and  C_6
REMARK    6  A    between atoms: C_6  and  C_8
REMARK    7  A    between atoms: C_8  and  N_9
REMARK                            x       y       z     vdW  Elec       q    Type
REMARK                         _______ _______ _______ _____ _____    ______ ____
ROOT
ATOM      1  N   UNL     1       3.367   5.475  18.767  0.00  0.00    +0.000 N 
ATOM      2  C   UNL     1       3.521   6.357  17.721  0.00  0.00    +0.000 A 
ATOM      3  N   UNL     1       3.044   7.558  17.698  0.00  0.00    +0.000 NA
ATOM      4  C   UNL     1       2.297   7.977  18.810  0.00  0.00    +0.000 A 
ATOM      5  C   UNL     1       1.676   9.225  18.762  0.00  0.00    +0.000 A 
ATOM      6  C   UNL     1       0.866   9.655  19.817  0.00  0.00    +0.000 A 
ATOM      7  C   UNL     1       0.715   8.848  20.950  0.00  0.00    +0.000 A 
ATOM      8 BR   UNL     1      -0.367   9.436  22.384  0.00  0.00    +0.000 Br
ATOM      9  C   UNL     1       1.349   7.616  21.031  0.00  0.00    +0.000 A 
ATOM     10  C   UNL     1       2.113   7.177  19.938  0.00  0.00    +0.000 A 
ATOM     11  C   UNL     1       2.700   5.833  19.929  0.00  0.00    +0.000 A 
ATOM     12  O   UNL     1       2.547   5.089  20.888  0.00  0.00    +0.000 OA
ENDROOT
BRANCH   1  13
ATOM     13  C   UNL     1       3.910   4.142  18.679  0.00  0.00    +0.000 C 
BRANCH  13  14
ATOM     14  C   UNL     1       5.199   4.138  17.886  0.00  0.00    +0.000 C 
ATOM     15  O   UNL     1       5.278   3.867  16.694  0.00  0.00    +0.000 OA
BRANCH  14  16
ATOM     16  O   UNL     1       6.248   4.454  18.686  0.00  0.00    +0.000 OA
BRANCH  16  17
ATOM     17  C   UNL     1       7.350   5.037  17.992  0.00  0.00    +0.000 C 
BRANCH  17  18
ATOM     18  C   UNL     1       7.724   6.387  18.582  0.00  0.00    +0.000 C 
BRANCH  18  20
ATOM     19  C   UNL     1       8.191   8.793  17.987  0.00  0.00    +0.000 C 
ATOM     20  C   UNL     1       7.616   7.472  17.511  0.00  0.00    +0.000 C 
ENDBRANCH  18  20
ENDBRANCH  17  18
ENDBRANCH  16  17
ENDBRANCH  14  16
ENDBRANCH  13  14
ENDBRANCH   1  13
TORSDOF 6
ENDMDL
MODEL 8
REMARK VINA RESULT:      -6.6      1.310      1.801
REMARK  Name = 
REMARK  7 active torsions:
REMARK  status: ('A' for Active; 'I' for Inactive)
REMARK    1  A    between atoms: C_1  and  C_2
REMARK    2  A    between atoms: C_2  and  C_3
REMARK    3  A    between atoms: C_3  and  C_4
REMARK    4  A    between atoms: C_4  and  O_5
REMARK    5  A    between atoms: O_5  and  C_6
REMARK    6  A    between atoms: C_6  and  C_8
REMARK    7  A    between atoms: C_8  and  N_9
REMARK                            x       y       z     vdW  Elec       q    Type
REMARK                         _______ _______ _______ _____ _____    ______ ____
ROOT
ATOM      1  N   UNL     1       5.913   4.824  16.221  0.00  0.00    +0.000 N 
ATOM      2  C   UNL     1       5.839   6.199  16.201  0.00  0.00    +0.000 A 
ATOM      3  N   UNL     1       5.002   6.899  16.893  0.00  0.00    +0.000 NA
ATOM      4  C   UNL     1       4.091   6.201  17.700  0.00  0.00    +0.000 A 
ATOM      5  C   UNL     1       3.104   6.926  18.368  0.00  0.00    +0.000 A 
ATOM      6  C   UNL     1       2.133   6.268  19.129  0.00  0.00    +0.000 A 
ATOM      7  C   UNL     1       2.180   4.875  19.259  0.00  0.00    +0.000 A 
ATOM      8 BR   UNL     1       0.876   3.986  20.301  0.00  0.00    +0.000 Br
ATOM      9  C   UNL     1       3.171   4.138  18.628  0.00  0.00    +0.000 A 
ATOM     10  C   UNL     1       4.104   4.811  17.824  0.00  0.00    +0.000 A 
ATOM     11  C   UNL     1       5.093   4.063  17.041  0.00  0.00    +0.000 A 
ATOM     12  O   UNL     1       5.129   2.842  17.101  0.00  0.00    +0.000 OA
ENDROOT
BRANCH   1  13
ATOM     13  C   UNL     1       6.863   4.135  15.382  0.00  0.00    +0.000 C 
BRANCH  13  14
ATOM     14  C   UNL     1       6.782   4.634  13.956  0.00  0.00    +0.000 C 
ATOM     15  O   UNL     1       7.501   5.506  13.484  0.00  0.00    +0.000 OA
BRANCH  14  16
ATOM     16  O   UNL     1       5.789   3.995  13.287  0.00  0.00    +0.000 OA
BRANCH  16  17
ATOM     17  C   UNL     1       6.250   3.161  12.225  0.00  0.00    +0.000 C 
BRANCH  17  18
ATOM     18  C   UNL     1       5.089   2.573  11.438  0.00  0.00    +0.000 C 
BRANCH  18  20
ATOM     19  C   UNL     1       3.213   3.530  10.050  0.00  0.00    +0.000 C 
ATOM     20  C   UNL     1       3.936   3.574  11.384  0.00  0.00    +0.000 C 
ENDBRANCH  18  20
ENDBRANCH  17  18
ENDBRANCH  16  17
ENDBRANCH  14  16
ENDBRANCH  13  14
ENDBRANCH   1  13
TORSDOF 6
ENDMDL
MODEL 9
REMARK VINA RESULT:      -6.6      3.589      6.799
REMARK  Name = 
REMARK  7 active torsions:
REMARK  status: ('A' for Active; 'I' for Inactive)
REMARK    1  A    between atoms: C_1  and  C_2
REMARK    2  A    between atoms: C_2  and  C_3
REMARK    3  A    between atoms: C_3  and  C_4
REMARK    4  A    between atoms: C_4  and  O_5
REMARK    5  A    between atoms: O_5  and  C_6
REMARK    6  A    between atoms: C_6  and  C_8
REMARK    7  A    between atoms: C_8  and  N_9
REMARK                            x       y       z     vdW  Elec       q    Type
REMARK                         _______ _______ _______ _____ _____    ______ ____
ROOT
ATOM      1  N   UNL     1       3.570   3.080  19.233  0.00  0.00    +0.000 N 
ATOM      2  C   UNL     1       4.597   3.590  19.995  0.00  0.00    +0.000 A 
ATOM      3  N   UNL     1       5.665   4.139  19.516  0.00  0.00    +0.000 NA
ATOM      4  C   UNL     1       5.790   4.192  18.119  0.00  0.00    +0.000 A 
ATOM      5  C   UNL     1       6.981   4.674  17.576  0.00  0.00    +0.000 A 
ATOM      6  C   UNL     1       7.178   4.683  16.193  0.00  0.00    +0.000 A 
ATOM      7  C   UNL     1       6.154   4.249  15.343  0.00  0.00    +0.000 A 
ATOM      8 BR   UNL     1       6.413   4.274  13.470  0.00  0.00    +0.000 Br
ATOM      9  C   UNL     1       4.950   3.793  15.861  0.00  0.00    +0.000 A 
ATOM     10  C   UNL     1       4.792   3.740  17.255  0.00  0.00    +0.000 A 
ATOM     11  C   UNL     1       3.586   3.153  17.848  0.00  0.00    +0.000 A 
ATOM     12  O   UNL     1       2.693   2.725  17.130  0.00  0.00    +0.000 OA
ENDROOT
BRANCH   1  13
ATOM     13  C   UNL     1       2.435   2.456  19.867  0.00  0.00    +0.000 C 
BRANCH  13  14
ATOM     14  C   UNL     1       1.909   3.316  20.996  0.00  0.00    +0.000 C 
ATOM     15  O   UNL     1       2.142   3.121  22.183  0.00  0.00    +0.000 OA
BRANCH  14  16
ATOM     16  O   UNL     1       1.131   4.314  20.507  0.00  0.00    +0.000 OA
BRANCH  16  17
ATOM     17  C   UNL     1       1.563   5.621  20.882  0.00  0.00    +0.000 C 
BRANCH  17  18
ATOM     18  C   UNL     1       2.170   6.364  19.703  0.00  0.00    +0.000 C 
BRANCH  18  20
ATOM     19  C   UNL     1       1.105   8.208  21.055  0.00  0.00    +0.000 C 
ATOM     20  C   UNL     1       2.057   7.872  19.922  0.00  0.00    +0.000 C 
ENDBRANCH  18  20
ENDBRANCH  17  18
ENDBRANCH  16  17
ENDBRANCH  14  16
ENDBRANCH  13  14
ENDBRANCH   1  13
TORSDOF 6
ENDMDL
