MODEL 1
REMARK VINA RESULT:      -6.6      0.000      0.000
REMARK  Name = 
REMARK  5 active torsions:
REMARK  status: ('A' for Active; 'I' for Inactive)
REMARK    1  A    between atoms: C_1  and  O_2
REMARK    2  A    between atoms: O_2  and  C_3
REMARK    3  A    between atoms: C_3  and  C_4
REMARK    4  A    between atoms: C_10  and  N_11
REMARK    5  A    between atoms: N_14  and  C_15
REMARK                            x       y       z     vdW  Elec       q    Type
REMARK                         _______ _______ _______ _____ _____    ______ ____
ROOT
ATOM      1  C   UNL     1       6.777   5.174  17.508  0.00  0.00    +0.000 A 
ATOM      2  C   UNL     1       6.835   5.110  16.129  0.00  0.00    +0.000 A 
ATOM      3  C   UNL     1       5.721   5.801  15.634  0.00  0.00    +0.000 A 
ATOM      4  C   UNL     1       4.966   6.236  16.707  0.00  0.00    +0.000 A 
ATOM      5  N   UNL     1       5.536   5.727  17.849  0.00  0.00    +0.000 N 
ATOM      6  C   UNL     1       5.022   5.768  19.204  0.00  0.00    +0.000 C 
ATOM      7  C   UNL     1       3.496   5.595  19.435  0.00  0.00    +0.000 C 
ATOM      8  C   UNL     1       2.806   6.943  19.243  0.00  0.00    +0.000 A 
ATOM      9  C   UNL     1       2.037   7.444  20.325  0.00  0.00    +0.000 A 
ATOM     10  C   UNL     1       1.258   8.580  20.212  0.00  0.00    +0.000 A 
ATOM     11 CL   UNL     1       0.269   9.088  21.520  0.00  0.00    +0.000 Cl
ATOM     12  C   UNL     1       1.241   9.287  19.024  0.00  0.00    +0.000 A 
ATOM     13  C   UNL     1       2.049   8.843  17.962  0.00  0.00    +0.000 A 
ATOM     14  C   UNL     1       2.840   7.668  18.050  0.00  0.00    +0.000 A 
ATOM     15  S   UNL     1       3.574   7.235  16.507  0.00  0.00    +0.000 S 
ENDROOT
BRANCH   7  16
ATOM     16  N   UNL     1       2.818   4.471  18.731  0.00  0.00    +0.000 NA
ATOM     17  C   UNL     1       1.362   4.365  18.993  0.00  0.00    +0.000 C 
ATOM     18  C   UNL     1       0.986   3.869  20.409  0.00  0.00    +0.000 C 
ATOM     19  N   UNL     1       1.591   2.565  20.723  0.00  0.00    +0.000 NA
ATOM     20  C   UNL     1       1.315   2.180  22.106  0.00  0.00    +0.000 C 
ATOM     21  C   UNL     1       3.040   2.575  20.446  0.00  0.00    +0.000 C 
ATOM     22  C   UNL     1       3.403   3.145  19.045  0.00  0.00    +0.000 C 
ENDBRANCH   7  16
BRANCH   1  23
ATOM     23  C   UNL     1       7.866   4.810  18.461  0.00  0.00    +0.000 C 
BRANCH  23  25
ATOM     24  C   UNL     1       8.276   7.109  18.614  0.00  0.00    +0.000 C 
ATOM     25  O   UNL     1       8.087   5.902  19.345  0.00  0.00    +0.000 OA
ENDBRANCH  23  25
ENDBRANCH   1  23
TORSDOF 3
ENDMDL
MODEL 2
REMARK VINA RESULT:      -6.0      6.010      9.107
REMARK  Name = 
REMARK  5 active torsions:
REMARK  status: ('A' for Active; 'I' for Inactive)
REMARK    1  A    between atoms: C_1  and  O_2
REMARK    2  A    between atoms: O_2  and  C_3
REMARK    3  A    between atoms: C_3  and  C_4
REMARK    4  A    between atoms: C_10  and  N_11
REMARK    5  A    between atoms: N_14  and  C_15
REMARK                            x       y       z     vdW  Elec       q    Type
REMARK                         _______ _______ _______ _____ _____    ______ ____
ROOT
ATOM      1  C   UNL     1       0.889   9.406  19.680  0.00  0.00    +0.000 A 
ATOM      2  C   UNL     1       1.421   8.514  20.590  0.00  0.00    +0.000 A 
ATOM      3  C   UNL     1       0.885   8.832  21.846  0.00  0.00    +0.000 A 
ATOM      4  C   UNL     1       0.074   9.941  21.704  0.00  0.00    +0.000 A 
ATOM      5  N   UNL     1       0.191  10.379  20.407  0.00  0.00    +0.000 N 
ATOM      6  C   UNL     1      -0.335  11.595  19.819  0.00  0.00    +0.000 C 
ATOM      7  C   UNL     1      -0.329  12.901  20.660  0.00  0.00    +0.000 C 
ATOM      8  C   UNL     1      -1.564  12.924  21.557  0.00  0.00    +0.000 A 
ATOM      9  C   UNL     1      -2.441  14.031  21.433  0.00  0.00    +0.000 A 
ATOM     10  C   UNL     1      -3.509  14.225  22.290  0.00  0.00    +0.000 A 
ATOM     11 CL   UNL     1      -4.481  15.634  22.161  0.00  0.00    +0.000 Cl
ATOM     12  C   UNL     1      -3.768  13.302  23.286  0.00  0.00    +0.000 A 
ATOM     13  C   UNL     1      -2.948  12.163  23.382  0.00  0.00    +0.000 A 
ATOM     14  C   UNL     1      -1.836  11.955  22.526  0.00  0.00    +0.000 A 
ATOM     15  S   UNL     1      -0.867  10.565  23.010  0.00  0.00    +0.000 S 
ENDROOT
BRANCH   7  16
ATOM     16  N   UNL     1       0.932  13.254  21.370  0.00  0.00    +0.000 NA
ATOM     17  C   UNL     1       0.955  14.620  21.949  0.00  0.00    +0.000 C 
ATOM     18  C   UNL     1       1.068  15.766  20.917  0.00  0.00    +0.000 C 
ATOM     19  N   UNL     1       2.253  15.628  20.056  0.00  0.00    +0.000 NA
ATOM     20  C   UNL     1       2.269  16.657  19.018  0.00  0.00    +0.000 C 
ATOM     21  C   UNL     1       2.327  14.275  19.473  0.00  0.00    +0.000 C 
ATOM     22  C   UNL     1       2.139  13.136  20.516  0.00  0.00    +0.000 C 
ENDBRANCH   7  16
BRANCH   1  23
ATOM     23  C   UNL     1       0.960   9.307  18.193  0.00  0.00    +0.000 C 
BRANCH  23  25
ATOM     24  C   UNL     1       2.886   8.144  17.550  0.00  0.00    +0.000 C 
ATOM     25  O   UNL     1       2.319   9.428  17.789  0.00  0.00    +0.000 OA
ENDBRANCH  23  25
ENDBRANCH   1  23
TORSDOF 3
ENDMDL
MODEL 3
REMARK VINA RESULT:      -6.0      7.230     10.509
REMARK  Name = 
REMARK  5 active torsions:
REMARK  status: ('A' for Active; 'I' for Inactive)
REMARK    1  A    between atoms: C_1  and  O_2
REMARK    2  A    between atoms: O_2  and  C_3
REMARK    3  A    between atoms: C_3  and  C_4
REMARK    4  A    between atoms: C_10  and  N_11
REMARK    5  A    between atoms: N_14  and  C_15
REMARK                            x       y       z     vdW  Elec       q    Type
REMARK                         _______ _______ _______ _____ _____    ______ ____
ROOT
ATOM      1  C   UNL     1      -0.402  10.399  19.260  0.00  0.00    +0.000 A 
ATOM      2  C   UNL     1       0.571   9.698  19.945  0.00  0.00    +0.000 A 
ATOM      3  C   UNL     1       0.365   9.930  21.312  0.00  0.00    +0.000 A 
ATOM      4  C   UNL     1      -0.694  10.807  21.450  0.00  0.00    +0.000 A 
ATOM      5  N   UNL     1      -1.070  11.206  20.190  0.00  0.00    +0.000 N 
ATOM      6  C   UNL     1      -2.020  12.237  19.821  0.00  0.00    +0.000 C 
ATOM      7  C   UNL     1      -2.082  13.540  20.664  0.00  0.00    +0.000 C 
ATOM      8  C   UNL     1      -2.969  13.304  21.883  0.00  0.00    +0.000 A 
ATOM      9  C   UNL     1      -4.083  14.164  22.057  0.00  0.00    +0.000 A 
ATOM     10  C   UNL     1      -4.868  14.133  23.195  0.00  0.00    +0.000 A 
ATOM     11 CL   UNL     1      -6.144  15.263  23.401  0.00  0.00    +0.000 Cl
ATOM     12  C   UNL     1      -4.596  13.216  24.193  0.00  0.00    +0.000 A 
ATOM     13  C   UNL     1      -3.536  12.311  24.008  0.00  0.00    +0.000 A 
ATOM     14  C   UNL     1      -2.706  12.339  22.858  0.00  0.00    +0.000 A 
ATOM     15  S   UNL     1      -1.334  11.241  22.992  0.00  0.00    +0.000 S 
ENDROOT
BRANCH   7  16
ATOM     16  N   UNL     1      -0.792  14.212  20.983  0.00  0.00    +0.000 NA
ATOM     17  C   UNL     1      -0.924  15.612  21.457  0.00  0.00    +0.000 C 
ATOM     18  C   UNL     1      -1.331  16.634  20.370  0.00  0.00    +0.000 C 
ATOM     19  N   UNL     1      -0.402  16.636  19.229  0.00  0.00    +0.000 NA
ATOM     20  C   UNL     1      -0.876  17.525  18.170  0.00  0.00    +0.000 C 
ATOM     21  C   UNL     1      -0.182  15.267  18.725  0.00  0.00    +0.000 C 
ATOM     22  C   UNL     1       0.155  14.239  19.842  0.00  0.00    +0.000 C 
ENDBRANCH   7  16
BRANCH   1  23
ATOM     23  C   UNL     1      -0.746  10.259  17.814  0.00  0.00    +0.000 C 
BRANCH  23  25
ATOM     24  C   UNL     1      -2.659  10.038  16.485  0.00  0.00    +0.000 C 
ATOM     25  O   UNL     1      -2.030   9.656  17.704  0.00  0.00    +0.000 OA
ENDBRANCH  23  25
ENDBRANCH   1  23
TORSDOF 3
ENDMDL
MODEL 4
REMARK VINA RESULT:      -5.9      2.491      5.171
REMARK  Name = 
REMARK  5 active torsions:
REMARK  status: ('A' for Active; 'I' for Inactive)
REMARK    1  A    between atoms: C_1  and  O_2
REMARK    2  A    between atoms: O_2  and  C_3
REMARK    3  A    between atoms: C_3  and  C_4
REMARK    4  A    between atoms: C_10  and  N_11
REMARK    5  A    between atoms: N_14  and  C_15
REMARK                            x       y       z     vdW  Elec       q    Type
REMARK                         _______ _______ _______ _____ _____    ______ ____
ROOT
ATOM      1  C   UNL     1       1.618   2.944  19.414  0.00  0.00    +0.000 A 
ATOM      2  C   UNL     1       1.761   2.522  20.721  0.00  0.00    +0.000 A 
ATOM      3  C   UNL     1       1.895   3.669  21.516  0.00  0.00    +0.000 A 
ATOM      4  C   UNL     1       1.884   4.775  20.688  0.00  0.00    +0.000 A 
ATOM      5  N   UNL     1       1.860   4.323  19.391  0.00  0.00    +0.000 N 
ATOM      6  C   UNL     1       2.002   5.092  18.169  0.00  0.00    +0.000 C 
ATOM      7  C   UNL     1       3.008   6.275  18.138  0.00  0.00    +0.000 C 
ATOM      8  C   UNL     1       2.336   7.517  18.719  0.00  0.00    +0.000 A 
ATOM      9  C   UNL     1       2.279   8.673  17.899  0.00  0.00    +0.000 A 
ATOM     10  C   UNL     1       1.823   9.890  18.371  0.00  0.00    +0.000 A 
ATOM     11 CL   UNL     1       1.868  11.282  17.368  0.00  0.00    +0.000 Cl
ATOM     12  C   UNL     1       1.370   9.996  19.673  0.00  0.00    +0.000 A 
ATOM     13  C   UNL     1       1.356   8.845  20.480  0.00  0.00    +0.000 A 
ATOM     14  C   UNL     1       1.839   7.591  20.022  0.00  0.00    +0.000 A 
ATOM     15  S   UNL     1       1.903   6.386  21.306  0.00  0.00    +0.000 S 
ENDROOT
BRANCH   7  16
ATOM     16  N   UNL     1       4.375   6.029  18.675  0.00  0.00    +0.000 NA
ATOM     17  C   UNL     1       5.430   6.902  18.106  0.00  0.00    +0.000 C 
ATOM     18  C   UNL     1       5.815   6.592  16.640  0.00  0.00    +0.000 C 
ATOM     19  N   UNL     1       6.246   5.198  16.459  0.00  0.00    +0.000 NA
ATOM     20  C   UNL     1       6.489   4.904  15.048  0.00  0.00    +0.000 C 
ATOM     21  C   UNL     1       5.265   4.262  17.041  0.00  0.00    +0.000 C 
ATOM     22  C   UNL     1       4.835   4.631  18.490  0.00  0.00    +0.000 C 
ENDBRANCH   7  16
BRANCH   1  23
ATOM     23  C   UNL     1       1.192   2.109  18.252  0.00  0.00    +0.000 C 
BRANCH  23  25
ATOM     24  C   UNL     1       3.414   1.382  18.152  0.00  0.00    +0.000 C 
ATOM     25  O   UNL     1       2.315   1.893  17.405  0.00  0.00    +0.000 OA
ENDBRANCH  23  25
ENDBRANCH   1  23
TORSDOF 3
ENDMDL
MODEL 5
REMARK VINA RESULT:      -5.9      1.154      1.485
REMARK  Name = 
REMARK  5 active torsions:
REMARK  status: ('A' for Active; 'I' for Inactive)
REMARK    1  A    between atoms: C_1  and  O_2
REMARK    2  A    between atoms: O_2  and  C_3
REMARK    3  A    between atoms: C_3  and  C_4
REMARK    4  A    between atoms: C_10  and  N_11
REMARK    5  A    between atoms: N_14  and  C_15
REMARK                            x       y       z     vdW  Elec       q    Type
REMARK                         _______ _______ _______ _____ _____    ______ ____
ROOT
ATOM      1  C   UNL     1       6.036   5.458  17.478  0.00  0.00    +0.000 A 
ATOM      2  C   UNL     1       6.107   5.803  16.143  0.00  0.00    +0.000 A 
ATOM      3  C   UNL     1       5.059   6.699  15.890  0.00  0.00    +0.000 A 
ATOM      4  C   UNL     1       4.330   6.855  17.053  0.00  0.00    +0.000 A 
ATOM      5  N   UNL     1       4.842   5.985  17.985  0.00  0.00    +0.000 N 
ATOM      6  C   UNL     1       4.316   5.663  19.297  0.00  0.00    +0.000 C 
ATOM      7  C   UNL     1       2.777   5.556  19.485  0.00  0.00    +0.000 C 
ATOM      8  C   UNL     1       2.204   6.952  19.712  0.00  0.00    +0.000 A 
ATOM      9  C   UNL     1       1.466   7.170  20.904  0.00  0.00    +0.000 A 
ATOM     10  C   UNL     1       0.785   8.348  21.144  0.00  0.00    +0.000 A 
ATOM     11 CL   UNL     1      -0.175   8.524  22.556  0.00  0.00    +0.000 Cl
ATOM     12  C   UNL     1       0.841   9.376  20.220  0.00  0.00    +0.000 A 
ATOM     13  C   UNL     1       1.622   9.203  19.064  0.00  0.00    +0.000 A 
ATOM     14  C   UNL     1       2.313   7.994  18.789  0.00  0.00    +0.000 A 
ATOM     15  S   UNL     1       3.027   7.981  17.178  0.00  0.00    +0.000 S 
ENDROOT
BRANCH   7  16
ATOM     16  N   UNL     1       2.018   4.752  18.488  0.00  0.00    +0.000 NA
ATOM     17  C   UNL     1       1.204   3.655  19.067  0.00  0.00    +0.000 C 
ATOM     18  C   UNL     1       2.015   2.452  19.604  0.00  0.00    +0.000 C 
ATOM     19  N   UNL     1       2.887   1.864  18.576  0.00  0.00    +0.000 NA
ATOM     20  C   UNL     1       3.725   0.808  19.143  0.00  0.00    +0.000 C 
ATOM     21  C   UNL     1       3.704   2.902  17.919  0.00  0.00    +0.000 C 
ATOM     22  C   UNL     1       2.881   4.137  17.450  0.00  0.00    +0.000 C 
ENDBRANCH   7  16
BRANCH   1  23
ATOM     23  C   UNL     1       7.080   4.738  18.266  0.00  0.00    +0.000 C 
BRANCH  23  25
ATOM     24  C   UNL     1       8.145   6.757  18.778  0.00  0.00    +0.000 C 
ATOM     25  O   UNL     1       7.534   5.588  19.313  0.00  0.00    +0.000 OA
ENDBRANCH  23  25
ENDBRANCH   1  23
TORSDOF 3
ENDMDL
MODEL 6
REMARK VINA RESULT:      -5.8      8.591     11.121
REMARK  Name = 
REMARK  5 active torsions:
REMARK  status: ('A' for Active; 'I' for Inactive)
REMARK    1  A    between atoms: C_1  and  O_2
REMARK    2  A    between atoms: O_2  and  C_3
REMARK    3  A    between atoms: C_3  and  C_4
REMARK    4  A    between atoms: C_10  and  N_11
REMARK    5  A    between atoms: N_14  and  C_15
REMARK                            x       y       z     vdW  Elec       q    Type
REMARK                         _______ _______ _______ _____ _____    ______ ____
ROOT
ATOM      1  C   UNL     1      10.165  11.543  18.735  0.00  0.00    +0.000 A 
ATOM      2  C   UNL     1      11.203  11.524  17.824  0.00  0.00    +0.000 A 
ATOM      3  C   UNL     1      11.898  12.733  17.960  0.00  0.00    +0.000 A 
ATOM      4  C   UNL     1      11.253  13.500  18.912  0.00  0.00    +0.000 A 
ATOM      5  N   UNL     1      10.111  12.831  19.281  0.00  0.00    +0.000 N 
ATOM      6  C   UNL     1       9.028  13.300  20.124  0.00  0.00    +0.000 C 
ATOM      7  C   UNL     1       8.579  14.783  20.016  0.00  0.00    +0.000 C 
ATOM      8  C   UNL     1       9.491  15.645  20.885  0.00  0.00    +0.000 A 
ATOM      9  C   UNL     1       8.879  16.434  21.893  0.00  0.00    +0.000 A 
ATOM     10  C   UNL     1       9.589  17.355  22.641  0.00  0.00    +0.000 A 
ATOM     11 CL   UNL     1       8.783  18.356  23.778  0.00  0.00    +0.000 Cl
ATOM     12  C   UNL     1      10.949  17.503  22.439  0.00  0.00    +0.000 A 
ATOM     13  C   UNL     1      11.585  16.682  21.491  0.00  0.00    +0.000 A 
ATOM     14  C   UNL     1      10.872  15.745  20.699  0.00  0.00    +0.000 A 
ATOM     15  S   UNL     1      11.880  15.015  19.452  0.00  0.00    +0.000 S 
ENDROOT
BRANCH   7  16
ATOM     16  N   UNL     1       8.357  15.336  18.651  0.00  0.00    +0.000 NA
ATOM     17  C   UNL     1       7.935  16.758  18.620  0.00  0.00    +0.000 C 
ATOM     18  C   UNL     1       6.488  17.021  19.098  0.00  0.00    +0.000 C 
ATOM     19  N   UNL     1       5.498  16.247  18.334  0.00  0.00    +0.000 NA
ATOM     20  C   UNL     1       4.155  16.426  18.884  0.00  0.00    +0.000 C 
ATOM     21  C   UNL     1       5.870  14.820  18.281  0.00  0.00    +0.000 C 
ATOM     22  C   UNL     1       7.351  14.578  17.869  0.00  0.00    +0.000 C 
ENDBRANCH   7  16
BRANCH   1  23
ATOM     23  C   UNL     1       9.315  10.384  19.137  0.00  0.00    +0.000 C 
BRANCH  23  25
ATOM     24  C   UNL     1       8.177   8.728  17.938  0.00  0.00    +0.000 C 
ATOM     25  O   UNL     1       8.368  10.128  18.106  0.00  0.00    +0.000 OA
ENDBRANCH  23  25
ENDBRANCH   1  23
TORSDOF 3
ENDMDL
MODEL 7
REMARK VINA RESULT:      -5.8      6.922     10.388
REMARK  Name = 
REMARK  5 active torsions:
REMARK  status: ('A' for Active; 'I' for Inactive)
REMARK    1  A    between atoms: C_1  and  O_2
REMARK    2  A    between atoms: O_2  and  C_3
REMARK    3  A    between atoms: C_3  and  C_4
REMARK    4  A    between atoms: C_10  and  N_11
REMARK    5  A    between atoms: N_14  and  C_15
REMARK                            x       y       z     vdW  Elec       q    Type
REMARK                         _______ _______ _______ _____ _____    ______ ____
ROOT
ATOM      1  C   UNL     1      -3.301  13.072  22.232  0.00  0.00    +0.000 A 
ATOM      2  C   UNL     1      -4.397  13.617  21.591  0.00  0.00    +0.000 A 
ATOM      3  C   UNL     1      -4.317  13.244  20.242  0.00  0.00    +0.000 A 
ATOM      4  C   UNL     1      -3.153  12.522  20.059  0.00  0.00    +0.000 A 
ATOM      5  N   UNL     1      -2.461  12.541  21.245  0.00  0.00    +0.000 N 
ATOM      6  C   UNL     1      -1.117  12.064  21.509  0.00  0.00    +0.000 C 
ATOM      7  C   UNL     1      -0.020  12.272  20.429  0.00  0.00    +0.000 C 
ATOM      8  C   UNL     1      -0.108  11.144  19.404  0.00  0.00    +0.000 A 
ATOM      9  C   UNL     1       1.054  10.358  19.196  0.00  0.00    +0.000 A 
ATOM     10  C   UNL     1       1.131   9.407  18.197  0.00  0.00    +0.000 A 
ATOM     11 CL   UNL     1       2.595   8.552  17.922  0.00  0.00    +0.000 Cl
ATOM     12  C   UNL     1       0.038   9.173  17.383  0.00  0.00    +0.000 A 
ATOM     13  C   UNL     1      -1.145   9.896  17.618  0.00  0.00    +0.000 A 
ATOM     14  C   UNL     1      -1.239  10.891  18.625  0.00  0.00    +0.000 A 
ATOM     15  S   UNL     1      -2.759  11.781  18.551  0.00  0.00    +0.000 S 
ENDROOT
BRANCH   7  16
ATOM     16  N   UNL     1       0.095  13.626  19.819  0.00  0.00    +0.000 NA
ATOM     17  C   UNL     1       1.192  13.768  18.830  0.00  0.00    +0.000 C 
ATOM     18  C   UNL     1       2.617  13.781  19.431  0.00  0.00    +0.000 C 
ATOM     19  N   UNL     1       2.788  14.838  20.440  0.00  0.00    +0.000 NA
ATOM     20  C   UNL     1       4.103  14.750  21.072  0.00  0.00    +0.000 C 
ATOM     21  C   UNL     1       1.706  14.792  21.442  0.00  0.00    +0.000 C 
ATOM     22  C   UNL     1       0.283  14.705  20.818  0.00  0.00    +0.000 C 
ENDBRANCH   7  16
BRANCH   1  23
ATOM     23  C   UNL     1      -3.090  12.980  23.706  0.00  0.00    +0.000 C 
BRANCH  23  25
ATOM     24  C   UNL     1      -4.958  12.327  24.955  0.00  0.00    +0.000 C 
ATOM     25  O   UNL     1      -3.833  11.876  24.209  0.00  0.00    +0.000 OA
ENDBRANCH  23  25
ENDBRANCH   1  23
TORSDOF 3
ENDMDL
MODEL 8
REMARK VINA RESULT:      -5.7      7.817     11.149
REMARK  Name = 
REMARK  5 active torsions:
REMARK  status: ('A' for Active; 'I' for Inactive)
REMARK    1  A    between atoms: C_1  and  O_2
REMARK    2  A    between atoms: O_2  and  C_3
REMARK    3  A    between atoms: C_3  and  C_4
REMARK    4  A    between atoms: C_10  and  N_11
REMARK    5  A    between atoms: N_14  and  C_15
REMARK                            x       y       z     vdW  Elec       q    Type
REMARK                         _______ _______ _______ _____ _____    ______ ____
ROOT
ATOM      1  C   UNL     1      -4.520  13.064  22.737  0.00  0.00    +0.000 A 
ATOM      2  C   UNL     1      -5.684  13.575  22.196  0.00  0.00    +0.000 A 
ATOM      3  C   UNL     1      -5.656  13.302  20.822  0.00  0.00    +0.000 A 
ATOM      4  C   UNL     1      -4.461  12.677  20.526  0.00  0.00    +0.000 A 
ATOM      5  N   UNL     1      -3.704  12.662  21.672  0.00  0.00    +0.000 N 
ATOM      6  C   UNL     1      -2.319  12.263  21.829  0.00  0.00    +0.000 C 
ATOM      7  C   UNL     1      -1.302  12.620  20.711  0.00  0.00    +0.000 C 
ATOM      8  C   UNL     1      -1.375  11.561  19.614  0.00  0.00    +0.000 A 
ATOM      9  C   UNL     1      -0.177  10.874  19.288  0.00  0.00    +0.000 A 
ATOM     10  C   UNL     1      -0.095  10.001  18.220  0.00  0.00    +0.000 A 
ATOM     11 CL   UNL     1       1.403   9.272  17.807  0.00  0.00    +0.000 Cl
ATOM     12  C   UNL     1      -1.216   9.749  17.450  0.00  0.00    +0.000 A 
ATOM     13  C   UNL     1      -2.429  10.370  17.799  0.00  0.00    +0.000 A 
ATOM     14  C   UNL     1      -2.529  11.284  18.879  0.00  0.00    +0.000 A 
ATOM     15  S   UNL     1      -4.106  12.070  18.950  0.00  0.00    +0.000 S 
ENDROOT
BRANCH   7  16
ATOM     16  N   UNL     1      -1.311  14.017  20.196  0.00  0.00    +0.000 NA
ATOM     17  C   UNL     1      -0.324  14.287  19.122  0.00  0.00    +0.000 C 
ATOM     18  C   UNL     1       1.151  14.335  19.586  0.00  0.00    +0.000 C 
ATOM     19  N   UNL     1       1.369  15.327  20.650  0.00  0.00    +0.000 NA
ATOM     20  C   UNL     1       2.743  15.266  21.148  0.00  0.00    +0.000 C 
ATOM     21  C   UNL     1       0.394  15.152  21.743  0.00  0.00    +0.000 C 
ATOM     22  C   UNL     1      -1.078  15.033  21.251  0.00  0.00    +0.000 C 
ENDBRANCH   7  16
BRANCH   1  23
ATOM     23  C   UNL     1      -4.218  12.886  24.188  0.00  0.00    +0.000 C 
BRANCH  23  25
ATOM     24  C   UNL     1      -3.796  15.161  24.531  0.00  0.00    +0.000 C 
ATOM     25  O   UNL     1      -3.246  13.849  24.578  0.00  0.00    +0.000 OA
ENDBRANCH  23  25
ENDBRANCH   1  23
TORSDOF 3
ENDMDL
MODEL 9
REMARK VINA RESULT:      -5.7      8.150      9.887
REMARK  Name = 
REMARK  5 active torsions:
REMARK  status: ('A' for Active; 'I' for Inactive)
REMARK    1  A    between atoms: C_1  and  O_2
REMARK    2  A    between atoms: O_2  and  C_3
REMARK    3  A    between atoms: C_3  and  C_4
REMARK    4  A    between atoms: C_10  and  N_11
REMARK    5  A    between atoms: N_14  and  C_15
REMARK                            x       y       z     vdW  Elec       q    Type
REMARK                         _______ _______ _______ _____ _____    ______ ____
ROOT
ATOM      1  C   UNL     1       1.654  15.212  19.363  0.00  0.00    +0.000 A 
ATOM      2  C   UNL     1       2.889  14.594  19.352  0.00  0.00    +0.000 A 
ATOM      3  C   UNL     1       2.669  13.230  19.113  0.00  0.00    +0.000 A 
ATOM      4  C   UNL     1       1.306  13.017  19.031  0.00  0.00    +0.000 A 
ATOM      5  N   UNL     1       0.681  14.204  19.328  0.00  0.00    +0.000 N 
ATOM      6  C   UNL     1      -0.733  14.449  19.531  0.00  0.00    +0.000 C 
ATOM      7  C   UNL     1      -1.582  13.380  20.272  0.00  0.00    +0.000 C 
ATOM      8  C   UNL     1      -2.016  12.308  19.276  0.00  0.00    +0.000 A 
ATOM      9  C   UNL     1      -3.407  12.067  19.138  0.00  0.00    +0.000 A 
ATOM     10  C   UNL     1      -3.904  11.028  18.374  0.00  0.00    +0.000 A 
ATOM     11 CL   UNL     1      -5.591  10.718  18.321  0.00  0.00    +0.000 Cl
ATOM     12  C   UNL     1      -3.033  10.204  17.685  0.00  0.00    +0.000 A 
ATOM     13  C   UNL     1      -1.654  10.469  17.756  0.00  0.00    +0.000 A 
ATOM     14  C   UNL     1      -1.122  11.518  18.550  0.00  0.00    +0.000 A 
ATOM     15  S   UNL     1       0.638  11.480  18.621  0.00  0.00    +0.000 S 
ENDROOT
BRANCH   7  16
ATOM     16  N   UNL     1      -1.035  12.829  21.543  0.00  0.00    +0.000 NA
ATOM     17  C   UNL     1      -1.994  12.012  22.327  0.00  0.00    +0.000 C 
ATOM     18  C   UNL     1      -3.125  12.811  23.015  0.00  0.00    +0.000 C 
ATOM     19  N   UNL     1      -2.605  13.862  23.904  0.00  0.00    +0.000 NA
ATOM     20  C   UNL     1      -3.693  14.674  24.447  0.00  0.00    +0.000 C 
ATOM     21  C   UNL     1      -1.607  14.696  23.208  0.00  0.00    +0.000 C 
ATOM     22  C   UNL     1      -0.519  13.873  22.461  0.00  0.00    +0.000 C 
ENDBRANCH   7  16
BRANCH   1  23
ATOM     23  C   UNL     1       1.396  16.681  19.324  0.00  0.00    +0.000 C 
BRANCH  23  25
ATOM     24  C   UNL     1      -0.005  17.690  17.744  0.00  0.00    +0.000 C 
ATOM     25  O   UNL     1       1.266  17.090  17.968  0.00  0.00    +0.000 OA
ENDBRANCH  23  25
ENDBRANCH   1  23
TORSDOF 3
ENDMDL
