MODEL 1
REMARK VINA RESULT:      -8.6      0.000      0.000
REMARK  Name = 
REMARK  7 active torsions:
REMARK  status: ('A' for Active; 'I' for Inactive)
REMARK    1  A    between atoms: C_1  and  C_2
REMARK    2  A    between atoms: C_2  and  C_22
REMARK    3  A    between atoms: N_3  and  N_4
REMARK    4  A    between atoms: C_5  and  C_7
REMARK    5  A    between atoms: C_12  and  O_13
REMARK    6  A    between atoms: O_13  and  C_14
REMARK    7  A    between atoms: C_14  and  C_15
REMARK                            x       y       z     vdW  Elec       q    Type
REMARK                         _______ _______ _______ _____ _____    ______ ____
ROOT
ATOM      1  C   UNL     1       2.784   3.486  19.079  0.00  0.00    +0.000 A 
ATOM      2  C   UNL     1       2.197   2.351  19.678  0.00  0.00    +0.000 A 
ATOM      3  C   UNL     1       1.697   2.394  20.981  0.00  0.00    +0.000 A 
ATOM      4  C   UNL     1       1.844   3.544  21.739  0.00  0.00    +0.000 A 
ATOM      5  C   UNL     1       2.482   4.652  21.189  0.00  0.00    +0.000 A 
ATOM      6  C   UNL     1       2.908   4.665  19.845  0.00  0.00    +0.000 A 
ENDROOT
BRANCH   1   8
ATOM      7  N   UNL     1       4.631   3.537  17.475  0.00  0.00    +0.000 N 
ATOM      8  C   UNL     1       3.249   3.375  17.646  0.00  0.00    +0.000 C 
ATOM      9  O   UNL     1       2.446   3.181  16.738  0.00  0.00    +0.000 OA
ATOM     10  H   UNL     1       5.226   3.581  18.288  0.00  0.00    +0.000 HD
BRANCH   7  13
ATOM     11  C   UNL     1       5.408   6.016  16.215  0.00  0.00    +0.000 C 
ATOM     12  C   UNL     1       5.578   4.616  15.649  0.00  0.00    +0.000 C 
ATOM     13  N   UNL     1       5.207   3.505  16.233  0.00  0.00    +0.000 NA
BRANCH  12  14
ATOM     14  C   UNL     1       6.266   4.555  14.308  0.00  0.00    +0.000 A 
ATOM     15  C   UNL     1       5.815   3.706  13.308  0.00  0.00    +0.000 A 
ATOM     16  C   UNL     1       6.507   3.673  12.097  0.00  0.00    +0.000 A 
ATOM     17  C   UNL     1       7.619   4.489  11.929  0.00  0.00    +0.000 A 
ATOM     18  C   UNL     1       7.999   5.312  12.975  0.00  0.00    +0.000 A 
ATOM     19  N   UNL     1       7.349   5.365  14.159  0.00  0.00    +0.000 NA
ENDBRANCH  12  14
ENDBRANCH   7  13
ENDBRANCH   1   8
BRANCH   6  20
ATOM     20  O   UNL     1       3.402   5.813  19.263  0.00  0.00    +0.000 OA
BRANCH  20  21
ATOM     21  C   UNL     1       2.530   6.422  18.300  0.00  0.00    +0.000 C 
BRANCH  21  22
ATOM     22  C   UNL     1       1.908   7.717  18.768  0.00  0.00    +0.000 A 
ATOM     23  C   UNL     1       1.575   7.925  20.111  0.00  0.00    +0.000 A 
ATOM     24  C   UNL     1       1.173   9.187  20.548  0.00  0.00    +0.000 A 
ATOM     25  C   UNL     1       1.098  10.237  19.638  0.00  0.00    +0.000 A 
ATOM     26  F   UNL     1       0.747  11.457  20.068  0.00  0.00    +0.000 F 
ATOM     27  C   UNL     1       1.399  10.049  18.295  0.00  0.00    +0.000 A 
ATOM     28  C   UNL     1       1.806   8.789  17.858  0.00  0.00    +0.000 A 
ENDBRANCH  21  22
ENDBRANCH  20  21
ENDBRANCH   6  20
TORSDOF 6
ENDMDL
MODEL 2
REMARK VINA RESULT:      -8.6      2.814      7.559
REMARK  Name = 
REMARK  7 active torsions:
REMARK  status: ('A' for Active; 'I' for Inactive)
REMARK    1  A    between atoms: C_1  and  C_2
REMARK    2  A    between atoms: C_2  and  C_22
REMARK    3  A    between atoms: N_3  and  N_4
REMARK    4  A    between atoms: C_5  and  C_7
REMARK    5  A    between atoms: C_12  and  O_13
REMARK    6  A    between atoms: O_13  and  C_14
REMARK    7  A    between atoms: C_14  and  C_15
REMARK                            x       y       z     vdW  Elec       q    Type
REMARK                         _______ _______ _______ _____ _____    ______ ____
ROOT
ATOM      1  C   UNL     1       5.263   5.280  17.117  0.00  0.00    +0.000 A 
ATOM      2  C   UNL     1       6.499   5.835  16.721  0.00  0.00    +0.000 A 
ATOM      3  C   UNL     1       7.153   5.401  15.566  0.00  0.00    +0.000 A 
ATOM      4  C   UNL     1       6.627   4.353  14.828  0.00  0.00    +0.000 A 
ATOM      5  C   UNL     1       5.444   3.747  15.241  0.00  0.00    +0.000 A 
ATOM      6  C   UNL     1       4.717   4.231  16.348  0.00  0.00    +0.000 A 
ENDROOT
BRANCH   1   8
ATOM      7  N   UNL     1       3.337   6.421  18.106  0.00  0.00    +0.000 N 
ATOM      8  C   UNL     1       4.591   5.843  18.348  0.00  0.00    +0.000 C 
ATOM      9  O   UNL     1       5.145   5.795  19.443  0.00  0.00    +0.000 OA
ATOM     10  H   UNL     1       2.913   6.315  17.198  0.00  0.00    +0.000 HD
BRANCH   7  13
ATOM     11  C   UNL     1       2.181   9.030  17.665  0.00  0.00    +0.000 C 
ATOM     12  C   UNL     1       2.073   8.189  18.927  0.00  0.00    +0.000 C 
ATOM     13  N   UNL     1       2.617   7.012  19.110  0.00  0.00    +0.000 NA
BRANCH  12  14
ATOM     14  C   UNL     1       1.232   8.796  20.022  0.00  0.00    +0.000 A 
ATOM     15  C   UNL     1       1.179   8.226  21.285  0.00  0.00    +0.000 A 
ATOM     16  C   UNL     1       0.363   8.817  22.250  0.00  0.00    +0.000 A 
ATOM     17  C   UNL     1      -0.365   9.953  21.920  0.00  0.00    +0.000 A 
ATOM     18  C   UNL     1      -0.250  10.462  20.638  0.00  0.00    +0.000 A 
ATOM     19  N   UNL     1       0.531   9.912  19.682  0.00  0.00    +0.000 NA
ENDBRANCH  12  14
ENDBRANCH   7  13
ENDBRANCH   1   8
BRANCH   6  20
ATOM     20  O   UNL     1       3.473   3.725  16.661  0.00  0.00    +0.000 OA
BRANCH  20  21
ATOM     21  C   UNL     1       3.491   2.560  17.499  0.00  0.00    +0.000 C 
BRANCH  21  22
ATOM     22  C   UNL     1       2.846   2.766  18.850  0.00  0.00    +0.000 A 
ATOM     23  C   UNL     1       1.486   3.067  18.972  0.00  0.00    +0.000 A 
ATOM     24  C   UNL     1       0.877   3.074  20.227  0.00  0.00    +0.000 A 
ATOM     25  C   UNL     1       1.634   2.784  21.359  0.00  0.00    +0.000 A 
ATOM     26  F   UNL     1       1.039   2.755  22.559  0.00  0.00    +0.000 F 
ATOM     27  C   UNL     1       2.991   2.507  21.265  0.00  0.00    +0.000 A 
ATOM     28  C   UNL     1       3.600   2.495  20.010  0.00  0.00    +0.000 A 
ENDBRANCH  21  22
ENDBRANCH  20  21
ENDBRANCH   6  20
TORSDOF 6
ENDMDL
MODEL 3
REMARK VINA RESULT:      -8.5      0.565      1.319
REMARK  Name = 
REMARK  7 active torsions:
REMARK  status: ('A' for Active; 'I' for Inactive)
REMARK    1  A    between atoms: C_1  and  C_2
REMARK    2  A    between atoms: C_2  and  C_22
REMARK    3  A    between atoms: N_3  and  N_4
REMARK    4  A    between atoms: C_5  and  C_7
REMARK    5  A    between atoms: C_12  and  O_13
REMARK    6  A    between atoms: O_13  and  C_14
REMARK    7  A    between atoms: C_14  and  C_15
REMARK                            x       y       z     vdW  Elec       q    Type
REMARK                         _______ _______ _______ _____ _____    ______ ____
ROOT
ATOM      1  C   UNL     1       2.777   3.435  19.056  0.00  0.00    +0.000 A 
ATOM      2  C   UNL     1       2.186   2.305  19.661  0.00  0.00    +0.000 A 
ATOM      3  C   UNL     1       1.666   2.364  20.956  0.00  0.00    +0.000 A 
ATOM      4  C   UNL     1       1.796   3.525  21.700  0.00  0.00    +0.000 A 
ATOM      5  C   UNL     1       2.437   4.629  21.144  0.00  0.00    +0.000 A 
ATOM      6  C   UNL     1       2.883   4.625  19.807  0.00  0.00    +0.000 A 
ENDROOT
BRANCH   1   8
ATOM      7  N   UNL     1       4.647   3.482  17.478  0.00  0.00    +0.000 N 
ATOM      8  C   UNL     1       3.264   3.307  17.632  0.00  0.00    +0.000 C 
ATOM      9  O   UNL     1       2.477   3.089  16.715  0.00  0.00    +0.000 OA
ATOM     10  H   UNL     1       5.229   3.545  18.299  0.00  0.00    +0.000 HD
BRANCH   7  13
ATOM     11  C   UNL     1       5.252   5.952  16.111  0.00  0.00    +0.000 C 
ATOM     12  C   UNL     1       5.536   4.545  15.613  0.00  0.00    +0.000 C 
ATOM     13  N   UNL     1       5.241   3.436  16.245  0.00  0.00    +0.000 NA
BRANCH  12  14
ATOM     14  C   UNL     1       6.245   4.475  14.284  0.00  0.00    +0.000 A 
ATOM     15  C   UNL     1       7.325   5.299  14.004  0.00  0.00    +0.000 A 
ATOM     16  C   UNL     1       7.926   5.208  12.747  0.00  0.00    +0.000 A 
ATOM     17  C   UNL     1       7.428   4.299  11.821  0.00  0.00    +0.000 A 
ATOM     18  C   UNL     1       6.350   3.510  12.184  0.00  0.00    +0.000 A 
ATOM     19  N   UNL     1       5.749   3.575  13.393  0.00  0.00    +0.000 NA
ENDBRANCH  12  14
ENDBRANCH   7  13
ENDBRANCH   1   8
BRANCH   6  20
ATOM     20  O   UNL     1       3.380   5.767  19.217  0.00  0.00    +0.000 OA
BRANCH  20  21
ATOM     21  C   UNL     1       2.474   6.422  18.316  0.00  0.00    +0.000 C 
BRANCH  21  22
ATOM     22  C   UNL     1       2.099   7.824  18.734  0.00  0.00    +0.000 A 
ATOM     23  C   UNL     1       2.072   8.879  17.815  0.00  0.00    +0.000 A 
ATOM     24  C   UNL     1       1.550  10.119  18.183  0.00  0.00    +0.000 A 
ATOM     25  C   UNL     1       1.062  10.303  19.473  0.00  0.00    +0.000 A 
ATOM     26  F   UNL     1       0.528  11.484  19.813  0.00  0.00    +0.000 F 
ATOM     27  C   UNL     1       1.102   9.279  20.411  0.00  0.00    +0.000 A 
ATOM     28  C   UNL     1       1.619   8.037  20.042  0.00  0.00    +0.000 A 
ENDBRANCH  21  22
ENDBRANCH  20  21
ENDBRANCH   6  20
TORSDOF 6
ENDMDL
MODEL 4
REMARK VINA RESULT:      -8.3      2.789      7.663
REMARK  Name = 
REMARK  7 active torsions:
REMARK  status: ('A' for Active; 'I' for Inactive)
REMARK    1  A    between atoms: C_1  and  C_2
REMARK    2  A    between atoms: C_2  and  C_22
REMARK    3  A    between atoms: N_3  and  N_4
REMARK    4  A    between atoms: C_5  and  C_7
REMARK    5  A    between atoms: C_12  and  O_13
REMARK    6  A    between atoms: O_13  and  C_14
REMARK    7  A    between atoms: C_14  and  C_15
REMARK                            x       y       z     vdW  Elec       q    Type
REMARK                         _______ _______ _______ _____ _____    ______ ____
ROOT
ATOM      1  C   UNL     1       4.853   5.430  16.998  0.00  0.00    +0.000 A 
ATOM      2  C   UNL     1       5.211   6.379  16.017  0.00  0.00    +0.000 A 
ATOM      3  C   UNL     1       5.751   5.987  14.790  0.00  0.00    +0.000 A 
ATOM      4  C   UNL     1       6.016   4.649  14.549  0.00  0.00    +0.000 A 
ATOM      5  C   UNL     1       5.734   3.705  15.532  0.00  0.00    +0.000 A 
ATOM      6  C   UNL     1       5.100   4.065  16.739  0.00  0.00    +0.000 A 
ENDROOT
BRANCH   1   8
ATOM      7  N   UNL     1       3.088   6.732  18.084  0.00  0.00    +0.000 N 
ATOM      8  C   UNL     1       4.222   5.930  18.277  0.00  0.00    +0.000 C 
ATOM      9  O   UNL     1       4.710   5.652  19.369  0.00  0.00    +0.000 OA
ATOM     10  H   UNL     1       2.695   6.814  17.159  0.00  0.00    +0.000 HD
BRANCH   7  13
ATOM     11  C   UNL     1       1.940   9.363  17.783  0.00  0.00    +0.000 C 
ATOM     12  C   UNL     1       1.885   8.484  19.021  0.00  0.00    +0.000 C 
ATOM     13  N   UNL     1       2.424   7.297  19.140  0.00  0.00    +0.000 NA
BRANCH  12  14
ATOM     14  C   UNL     1       1.105   9.064  20.175  0.00  0.00    +0.000 A 
ATOM     15  C   UNL     1       0.143  10.042  19.970  0.00  0.00    +0.000 A 
ATOM     16  C   UNL     1      -0.528  10.560  21.079  0.00  0.00    +0.000 A 
ATOM     17  C   UNL     1      -0.215  10.082  22.346  0.00  0.00    +0.000 A 
ATOM     18  C   UNL     1       0.754   9.101  22.461  0.00  0.00    +0.000 A 
ATOM     19  N   UNL     1       1.420   8.580  21.407  0.00  0.00    +0.000 NA
ENDBRANCH  12  14
ENDBRANCH   7  13
ENDBRANCH   1   8
BRANCH   6  20
ATOM     20  O   UNL     1       4.687   3.109  17.642  0.00  0.00    +0.000 OA
BRANCH  20  21
ATOM     21  C   UNL     1       3.291   2.781  17.575  0.00  0.00    +0.000 C 
BRANCH  21  22
ATOM     22  C   UNL     1       2.633   2.618  18.924  0.00  0.00    +0.000 A 
ATOM     23  C   UNL     1       3.389   2.494  20.095  0.00  0.00    +0.000 A 
ATOM     24  C   UNL     1       2.763   2.527  21.342  0.00  0.00    +0.000 A 
ATOM     25  C   UNL     1       1.381   2.678  21.413  0.00  0.00    +0.000 A 
ATOM     26  F   UNL     1       0.788   2.745  22.612  0.00  0.00    +0.000 F 
ATOM     27  C   UNL     1       0.608   2.776  20.264  0.00  0.00    +0.000 A 
ATOM     28  C   UNL     1       1.233   2.748  19.017  0.00  0.00    +0.000 A 
ENDBRANCH  21  22
ENDBRANCH  20  21
ENDBRANCH   6  20
TORSDOF 6
ENDMDL
MODEL 5
REMARK VINA RESULT:      -8.3      0.967      1.038
REMARK  Name = 
REMARK  7 active torsions:
REMARK  status: ('A' for Active; 'I' for Inactive)
REMARK    1  A    between atoms: C_1  and  C_2
REMARK    2  A    between atoms: C_2  and  C_22
REMARK    3  A    between atoms: N_3  and  N_4
REMARK    4  A    between atoms: C_5  and  C_7
REMARK    5  A    between atoms: C_12  and  O_13
REMARK    6  A    between atoms: O_13  and  C_14
REMARK    7  A    between atoms: C_14  and  C_15
REMARK                            x       y       z     vdW  Elec       q    Type
REMARK                         _______ _______ _______ _____ _____    ______ ____
ROOT
ATOM      1  C   UNL     1       3.476   3.630  19.538  0.00  0.00    +0.000 A 
ATOM      2  C   UNL     1       3.553   2.585  20.484  0.00  0.00    +0.000 A 
ATOM      3  C   UNL     1       2.631   2.480  21.527  0.00  0.00    +0.000 A 
ATOM      4  C   UNL     1       1.663   3.457  21.693  0.00  0.00    +0.000 A 
ATOM      5  C   UNL     1       1.614   4.533  20.811  0.00  0.00    +0.000 A 
ATOM      6  C   UNL     1       2.473   4.609  19.695  0.00  0.00    +0.000 A 
ENDROOT
BRANCH   1   8
ATOM      7  N   UNL     1       3.901   3.661  17.129  0.00  0.00    +0.000 N 
ATOM      8  C   UNL     1       4.477   3.641  18.407  0.00  0.00    +0.000 C 
ATOM      9  O   UNL     1       5.683   3.612  18.634  0.00  0.00    +0.000 OA
ATOM     10  H   UNL     1       2.906   3.798  17.039  0.00  0.00    +0.000 HD
BRANCH   7  13
ATOM     11  C   UNL     1       5.051   6.119  16.143  0.00  0.00    +0.000 C 
ATOM     12  C   UNL     1       5.213   4.734  15.539  0.00  0.00    +0.000 C 
ATOM     13  N   UNL     1       4.671   3.633  15.997  0.00  0.00    +0.000 NA
BRANCH  12  14
ATOM     14  C   UNL     1       6.108   4.673  14.327  0.00  0.00    +0.000 A 
ATOM     15  C   UNL     1       5.823   3.822  13.268  0.00  0.00    +0.000 A 
ATOM     16  C   UNL     1       6.701   3.789  12.184  0.00  0.00    +0.000 A 
ATOM     17  C   UNL     1       7.826   4.605  12.196  0.00  0.00    +0.000 A 
ATOM     18  C   UNL     1       8.032   5.429  13.290  0.00  0.00    +0.000 A 
ATOM     19  N   UNL     1       7.200   5.483  14.353  0.00  0.00    +0.000 NA
ENDBRANCH  12  14
ENDBRANCH   7  13
ENDBRANCH   1   8
BRANCH   6  20
ATOM     20  O   UNL     1       2.320   5.594  18.743  0.00  0.00    +0.000 OA
BRANCH  20  21
ATOM     21  C   UNL     1       2.934   6.849  19.072  0.00  0.00    +0.000 C 
BRANCH  21  22
ATOM     22  C   UNL     1       1.956   7.988  19.232  0.00  0.00    +0.000 A 
ATOM     23  C   UNL     1       1.431   8.331  20.484  0.00  0.00    +0.000 A 
ATOM     24  C   UNL     1       0.675   9.493  20.635  0.00  0.00    +0.000 A 
ATOM     25  C   UNL     1       0.440  10.307  19.531  0.00  0.00    +0.000 A 
ATOM     26  F   UNL     1      -0.256  11.442  19.686  0.00  0.00    +0.000 F 
ATOM     27  C   UNL     1       0.928   9.975  18.274  0.00  0.00    +0.000 A 
ATOM     28  C   UNL     1       1.688   8.815  18.123  0.00  0.00    +0.000 A 
ENDBRANCH  21  22
ENDBRANCH  20  21
ENDBRANCH   6  20
TORSDOF 6
ENDMDL
MODEL 6
REMARK VINA RESULT:      -8.2      3.880      8.047
REMARK  Name = 
REMARK  7 active torsions:
REMARK  status: ('A' for Active; 'I' for Inactive)
REMARK    1  A    between atoms: C_1  and  C_2
REMARK    2  A    between atoms: C_2  and  C_22
REMARK    3  A    between atoms: N_3  and  N_4
REMARK    4  A    between atoms: C_5  and  C_7
REMARK    5  A    between atoms: C_12  and  O_13
REMARK    6  A    between atoms: O_13  and  C_14
REMARK    7  A    between atoms: C_14  and  C_15
REMARK                            x       y       z     vdW  Elec       q    Type
REMARK                         _______ _______ _______ _____ _____    ______ ____
ROOT
ATOM      1  C   UNL     1       2.363   5.358  19.860  0.00  0.00    +0.000 A 
ATOM      2  C   UNL     1       2.085   4.767  21.112  0.00  0.00    +0.000 A 
ATOM      3  C   UNL     1       2.171   3.385  21.298  0.00  0.00    +0.000 A 
ATOM      4  C   UNL     1       2.459   2.561  20.222  0.00  0.00    +0.000 A 
ATOM      5  C   UNL     1       2.670   3.120  18.965  0.00  0.00    +0.000 A 
ATOM      6  C   UNL     1       2.683   4.517  18.773  0.00  0.00    +0.000 A 
ENDROOT
BRANCH   1   8
ATOM      7  N   UNL     1       1.611   7.487  20.803  0.00  0.00    +0.000 N 
ATOM      8  C   UNL     1       2.303   6.863  19.755  0.00  0.00    +0.000 C 
ATOM      9  O   UNL     1       2.813   7.448  18.802  0.00  0.00    +0.000 OA
ATOM     10  H   UNL     1       1.324   6.938  21.598  0.00  0.00    +0.000 HD
BRANCH   7  13
ATOM     11  C   UNL     1      -0.543   8.590  22.377  0.00  0.00    +0.000 C 
ATOM     12  C   UNL     1       0.470   9.367  21.552  0.00  0.00    +0.000 C 
ATOM     13  N   UNL     1       1.432   8.844  20.834  0.00  0.00    +0.000 NA
BRANCH  12  14
ATOM     14  C   UNL     1       0.327  10.866  21.622  0.00  0.00    +0.000 A 
ATOM     15  C   UNL     1      -0.692  11.456  22.356  0.00  0.00    +0.000 A 
ATOM     16  C   UNL     1      -0.790  12.848  22.362  0.00  0.00    +0.000 A 
ATOM     17  C   UNL     1       0.131  13.597  21.641  0.00  0.00    +0.000 A 
ATOM     18  C   UNL     1       1.121  12.929  20.940  0.00  0.00    +0.000 A 
ATOM     19  N   UNL     1       1.242  11.583  20.915  0.00  0.00    +0.000 NA
ENDBRANCH  12  14
ENDBRANCH   7  13
ENDBRANCH   1   8
BRANCH   6  20
ATOM     20  O   UNL     1       3.041   5.068  17.562  0.00  0.00    +0.000 OA
BRANCH  20  21
ATOM     21  C   UNL     1       4.232   4.519  16.978  0.00  0.00    +0.000 C 
BRANCH  21  22
ATOM     22  C   UNL     1       5.489   5.286  17.313  0.00  0.00    +0.000 A 
ATOM     23  C   UNL     1       5.700   6.585  16.839  0.00  0.00    +0.000 A 
ATOM     24  C   UNL     1       6.778   7.337  17.306  0.00  0.00    +0.000 A 
ATOM     25  C   UNL     1       7.647   6.784  18.242  0.00  0.00    +0.000 A 
ATOM     26  F   UNL     1       8.660   7.521  18.716  0.00  0.00    +0.000 F 
ATOM     27  C   UNL     1       7.473   5.487  18.707  0.00  0.00    +0.000 A 
ATOM     28  C   UNL     1       6.392   4.736  18.245  0.00  0.00    +0.000 A 
ENDBRANCH  21  22
ENDBRANCH  20  21
ENDBRANCH   6  20
TORSDOF 6
ENDMDL
MODEL 7
REMARK VINA RESULT:      -8.1      0.973      1.289
REMARK  Name = 
REMARK  7 active torsions:
REMARK  status: ('A' for Active; 'I' for Inactive)
REMARK    1  A    between atoms: C_1  and  C_2
REMARK    2  A    between atoms: C_2  and  C_22
REMARK    3  A    between atoms: N_3  and  N_4
REMARK    4  A    between atoms: C_5  and  C_7
REMARK    5  A    between atoms: C_12  and  O_13
REMARK    6  A    between atoms: O_13  and  C_14
REMARK    7  A    between atoms: C_14  and  C_15
REMARK                            x       y       z     vdW  Elec       q    Type
REMARK                         _______ _______ _______ _____ _____    ______ ____
ROOT
ATOM      1  C   UNL     1       2.565   3.601  18.998  0.00  0.00    +0.000 A 
ATOM      2  C   UNL     1       2.441   2.376  19.688  0.00  0.00    +0.000 A 
ATOM      3  C   UNL     1       2.048   2.334  21.028  0.00  0.00    +0.000 A 
ATOM      4  C   UNL     1       1.848   3.514  21.725  0.00  0.00    +0.000 A 
ATOM      5  C   UNL     1       2.033   4.734  21.080  0.00  0.00    +0.000 A 
ATOM      6  C   UNL     1       2.335   4.801  19.705  0.00  0.00    +0.000 A 
ENDROOT
BRANCH   1   8
ATOM      7  N   UNL     1       4.232   4.026  17.258  0.00  0.00    +0.000 N 
ATOM      8  C   UNL     1       2.940   3.559  17.535  0.00  0.00    +0.000 C 
ATOM      9  O   UNL     1       2.139   3.162  16.692  0.00  0.00    +0.000 OA
ATOM     10  H   UNL     1       4.858   4.226  18.023  0.00  0.00    +0.000 HD
BRANCH   7  13
ATOM     11  C   UNL     1       7.019   4.640  16.819  0.00  0.00    +0.000 C 
ATOM     12  C   UNL     1       5.973   4.355  15.755  0.00  0.00    +0.000 C 
ATOM     13  N   UNL     1       4.710   4.091  15.976  0.00  0.00    +0.000 NA
BRANCH  12  14
ATOM     14  C   UNL     1       6.493   4.361  14.339  0.00  0.00    +0.000 A 
ATOM     15  C   UNL     1       7.468   5.263  13.938  0.00  0.00    +0.000 A 
ATOM     16  C   UNL     1       7.892   5.240  12.608  0.00  0.00    +0.000 A 
ATOM     17  C   UNL     1       7.329   4.319  11.733  0.00  0.00    +0.000 A 
ATOM     18  C   UNL     1       6.366   3.450  12.217  0.00  0.00    +0.000 A 
ATOM     19  N   UNL     1       5.936   3.449  13.498  0.00  0.00    +0.000 NA
ENDBRANCH  12  14
ENDBRANCH   7  13
ENDBRANCH   1   8
BRANCH   6  20
ATOM     20  O   UNL     1       2.368   6.007  19.038  0.00  0.00    +0.000 OA
BRANCH  20  21
ATOM     21  C   UNL     1       2.624   7.148  19.871  0.00  0.00    +0.000 C 
BRANCH  21  22
ATOM     22  C   UNL     1       1.581   8.235  19.761  0.00  0.00    +0.000 A 
ATOM     23  C   UNL     1       0.842   8.654  20.873  0.00  0.00    +0.000 A 
ATOM     24  C   UNL     1       0.019   9.777  20.788  0.00  0.00    +0.000 A 
ATOM     25  C   UNL     1      -0.068  10.474  19.586  0.00  0.00    +0.000 A 
ATOM     26  F   UNL     1      -0.831  11.574  19.518  0.00  0.00    +0.000 F 
ATOM     27  C   UNL     1       0.636  10.063  18.462  0.00  0.00    +0.000 A 
ATOM     28  C   UNL     1       1.463   8.943  18.548  0.00  0.00    +0.000 A 
ENDBRANCH  21  22
ENDBRANCH  20  21
ENDBRANCH   6  20
TORSDOF 6
ENDMDL
MODEL 8
REMARK VINA RESULT:      -8.1      3.952      8.353
REMARK  Name = 
REMARK  7 active torsions:
REMARK  status: ('A' for Active; 'I' for Inactive)
REMARK    1  A    between atoms: C_1  and  C_2
REMARK    2  A    between atoms: C_2  and  C_22
REMARK    3  A    between atoms: N_3  and  N_4
REMARK    4  A    between atoms: C_5  and  C_7
REMARK    5  A    between atoms: C_12  and  O_13
REMARK    6  A    between atoms: O_13  and  C_14
REMARK    7  A    between atoms: C_14  and  C_15
REMARK                            x       y       z     vdW  Elec       q    Type
REMARK                         _______ _______ _______ _____ _____    ______ ____
ROOT
ATOM      1  C   UNL     1       2.235   5.395  20.069  0.00  0.00    +0.000 A 
ATOM      2  C   UNL     1       1.114   4.686  20.551  0.00  0.00    +0.000 A 
ATOM      3  C   UNL     1       1.190   3.324  20.853  0.00  0.00    +0.000 A 
ATOM      4  C   UNL     1       2.361   2.628  20.606  0.00  0.00    +0.000 A 
ATOM      5  C   UNL     1       3.457   3.295  20.066  0.00  0.00    +0.000 A 
ATOM      6  C   UNL     1       3.435   4.687  19.844  0.00  0.00    +0.000 A 
ENDROOT
BRANCH   1   8
ATOM      7  N   UNL     1       1.740   7.620  20.956  0.00  0.00    +0.000 N 
ATOM      8  C   UNL     1       2.088   6.877  19.820  0.00  0.00    +0.000 C 
ATOM      9  O   UNL     1       2.246   7.345  18.695  0.00  0.00    +0.000 OA
ATOM     10  H   UNL     1       1.741   7.169  21.858  0.00  0.00    +0.000 HD
BRANCH   7  13
ATOM     11  C   UNL     1      -0.566   8.754  22.274  0.00  0.00    +0.000 C 
ATOM     12  C   UNL     1       0.496   9.508  21.491  0.00  0.00    +0.000 C 
ATOM     13  N   UNL     1       1.528   8.972  20.890  0.00  0.00    +0.000 NA
BRANCH  12  14
ATOM     14  C   UNL     1       0.314  11.005  21.459  0.00  0.00    +0.000 A 
ATOM     15  C   UNL     1       0.895  11.777  20.463  0.00  0.00    +0.000 A 
ATOM     16  C   UNL     1       0.714  13.160  20.499  0.00  0.00    +0.000 A 
ATOM     17  C   UNL     1      -0.040  13.719  21.523  0.00  0.00    +0.000 A 
ATOM     18  C   UNL     1      -0.590  12.876  22.474  0.00  0.00    +0.000 A 
ATOM     19  N   UNL     1      -0.432  11.534  22.465  0.00  0.00    +0.000 NA
ENDBRANCH  12  14
ENDBRANCH   7  13
ENDBRANCH   1   8
BRANCH   6  20
ATOM     20  O   UNL     1       4.569   5.365  19.452  0.00  0.00    +0.000 OA
BRANCH  20  21
ATOM     21  C   UNL     1       5.684   4.528  19.112  0.00  0.00    +0.000 C 
BRANCH  21  22
ATOM     22  C   UNL     1       5.935   4.413  17.627  0.00  0.00    +0.000 A 
ATOM     23  C   UNL     1       4.892   4.168  16.726  0.00  0.00    +0.000 A 
ATOM     24  C   UNL     1       5.117   4.245  15.352  0.00  0.00    +0.000 A 
ATOM     25  C   UNL     1       6.388   4.562  14.881  0.00  0.00    +0.000 A 
ATOM     26  F   UNL     1       6.592   4.672  13.562  0.00  0.00    +0.000 F 
ATOM     27  C   UNL     1       7.444   4.784  15.755  0.00  0.00    +0.000 A 
ATOM     28  C   UNL     1       7.219   4.712  17.129  0.00  0.00    +0.000 A 
ENDBRANCH  21  22
ENDBRANCH  20  21
ENDBRANCH   6  20
TORSDOF 6
ENDMDL
MODEL 9
REMARK VINA RESULT:      -8.1      3.849      6.053
REMARK  Name = 
REMARK  7 active torsions:
REMARK  status: ('A' for Active; 'I' for Inactive)
REMARK    1  A    between atoms: C_1  and  C_2
REMARK    2  A    between atoms: C_2  and  C_22
REMARK    3  A    between atoms: N_3  and  N_4
REMARK    4  A    between atoms: C_5  and  C_7
REMARK    5  A    between atoms: C_12  and  O_13
REMARK    6  A    between atoms: O_13  and  C_14
REMARK    7  A    between atoms: C_14  and  C_15
REMARK                            x       y       z     vdW  Elec       q    Type
REMARK                         _______ _______ _______ _____ _____    ______ ____
ROOT
ATOM      1  C   UNL     1       0.495   9.769  20.701  0.00  0.00    +0.000 A 
ATOM      2  C   UNL     1       0.665   9.052  21.905  0.00  0.00    +0.000 A 
ATOM      3  C   UNL     1      -0.072   9.368  23.049  0.00  0.00    +0.000 A 
ATOM      4  C   UNL     1      -0.933  10.453  23.036  0.00  0.00    +0.000 A 
ATOM      5  C   UNL     1      -1.063  11.214  21.878  0.00  0.00    +0.000 A 
ATOM      6  C   UNL     1      -0.404  10.857  20.685  0.00  0.00    +0.000 A 
ENDROOT
BRANCH   1   8
ATOM      7  N   UNL     1       1.856   8.053  19.610  0.00  0.00    +0.000 N 
ATOM      8  C   UNL     1       1.288   9.329  19.493  0.00  0.00    +0.000 C 
ATOM      9  O   UNL     1       1.416  10.070  18.521  0.00  0.00    +0.000 OA
ATOM     10  H   UNL     1       1.605   7.473  20.396  0.00  0.00    +0.000 HD
BRANCH   7  13
ATOM     11  C   UNL     1       2.860   5.361  19.889  0.00  0.00    +0.000 C 
ATOM     12  C   UNL     1       3.093   6.301  18.718  0.00  0.00    +0.000 C 
ATOM     13  N   UNL     1       2.638   7.524  18.618  0.00  0.00    +0.000 NA
BRANCH  12  14
ATOM     14  C   UNL     1       3.902   5.715  17.587  0.00  0.00    +0.000 A 
ATOM     15  C   UNL     1       3.955   4.345  17.379  0.00  0.00    +0.000 A 
ATOM     16  C   UNL     1       4.741   3.859  16.333  0.00  0.00    +0.000 A 
ATOM     17  C   UNL     1       5.440   4.757  15.536  0.00  0.00    +0.000 A 
ATOM     18  C   UNL     1       5.327   6.109  15.808  0.00  0.00    +0.000 A 
ATOM     19  N   UNL     1       4.574   6.609  16.813  0.00  0.00    +0.000 NA
ENDBRANCH  12  14
ENDBRANCH   7  13
ENDBRANCH   1   8
BRANCH   6  20
ATOM     20  O   UNL     1      -0.652  11.523  19.504  0.00  0.00    +0.000 OA
BRANCH  20  21
ATOM     21  C   UNL     1      -2.026  11.884  19.294  0.00  0.00    +0.000 C 
BRANCH  21  22
ATOM     22  C   UNL     1      -2.651  11.241  18.079  0.00  0.00    +0.000 A 
ATOM     23  C   UNL     1      -3.880  11.678  17.572  0.00  0.00    +0.000 A 
ATOM     24  C   UNL     1      -4.349  11.194  16.351  0.00  0.00    +0.000 A 
ATOM     25  C   UNL     1      -3.588  10.269  15.642  0.00  0.00    +0.000 A 
ATOM     26  F   UNL     1      -4.023   9.833  14.452  0.00  0.00    +0.000 F 
ATOM     27  C   UNL     1      -2.378   9.801  16.137  0.00  0.00    +0.000 A 
ATOM     28  C   UNL     1      -1.906  10.288  17.356  0.00  0.00    +0.000 A 
ENDBRANCH  21  22
ENDBRANCH  20  21
ENDBRANCH   6  20
TORSDOF 6
ENDMDL
