MODEL 1
REMARK VINA RESULT:      -7.3      0.000      0.000
REMARK  Name = 
REMARK  4 active torsions:
REMARK  status: ('A' for Active; 'I' for Inactive)
REMARK    1  A    between atoms: C_2  and  O_12
REMARK    2  A    between atoms: N_3  and  C_4
REMARK    3  A    between atoms: O_12  and  N_13
REMARK    4  A    between atoms: C_14  and  C_15
REMARK                            x       y       z     vdW  Elec       q    Type
REMARK                         _______ _______ _______ _____ _____    ______ ____
ROOT
ATOM      1  O   UNL     1       7.674   5.692  18.108  0.00  0.00    +0.000 OA
ATOM      2  C   UNL     1       6.980   6.573  17.619  0.00  0.00    +0.000 C 
ATOM      3  N   UNL     1       5.609   6.574  17.463  0.00  0.00    +0.000 N 
ATOM      4  H   UNL     1       5.273   7.309  16.859  0.00  0.00    +0.000 HD
ENDROOT
BRANCH   3   5
ATOM      5  C   UNL     1       4.730   5.539  17.822  0.00  0.00    +0.000 A 
ATOM      6  C   UNL     1       4.496   4.431  17.007  0.00  0.00    +0.000 A 
ATOM      7  C   UNL     1       3.590   3.441  17.390  0.00  0.00    +0.000 A 
ATOM      8  C   UNL     1       2.895   3.552  18.594  0.00  0.00    +0.000 A 
ATOM      9 CL   UNL     1       1.770   2.304  18.990  0.00  0.00    +0.000 Cl
ATOM     10  C   UNL     1       3.129   4.651  19.424  0.00  0.00    +0.000 A 
ATOM     11 CL   UNL     1       2.284   4.873  20.917  0.00  0.00    +0.000 Cl
ATOM     12  C   UNL     1       4.059   5.632  19.049  0.00  0.00    +0.000 A 
ENDBRANCH   3   5
BRANCH   2  13
ATOM     13  O   UNL     1       7.483   7.731  17.074  0.00  0.00    +0.000 OA
BRANCH  13  14
ATOM     14  N   UNL     1       8.225   8.424  18.052  0.00  0.00    +0.000 NA
ATOM     15  C   UNL     1       8.246   9.681  17.743  0.00  0.00    +0.000 C 
BRANCH  15  16
ATOM     16  C   UNL     1       9.052  10.662  18.493  0.00  0.00    +0.000 A 
ATOM     17  C   UNL     1       9.511  11.831  17.891  0.00  0.00    +0.000 A 
ATOM     18  C   UNL     1      10.237  12.711  18.673  0.00  0.00    +0.000 A 
ATOM     19  N   UNL     1      10.518  12.498  19.977  0.00  0.00    +0.000 NA
ATOM     20  C   UNL     1      10.053  11.357  20.531  0.00  0.00    +0.000 A 
ATOM     21  C   UNL     1       9.315  10.416  19.838  0.00  0.00    +0.000 A 
ENDBRANCH  15  16
ENDBRANCH  13  14
ENDBRANCH   2  13
TORSDOF 4
ENDMDL
MODEL 2
REMARK VINA RESULT:      -7.2      4.297      6.053
REMARK  Name = 
REMARK  4 active torsions:
REMARK  status: ('A' for Active; 'I' for Inactive)
REMARK    1  A    between atoms: C_2  and  O_12
REMARK    2  A    between atoms: N_3  and  C_4
REMARK    3  A    between atoms: O_12  and  N_13
REMARK    4  A    between atoms: C_14  and  C_15
REMARK                            x       y       z     vdW  Elec       q    Type
REMARK                         _______ _______ _______ _____ _____    ______ ____
ROOT
ATOM      1  O   UNL     1       7.449   5.315  19.959  0.00  0.00    +0.000 OA
ATOM      2  C   UNL     1       6.997   5.438  18.828  0.00  0.00    +0.000 C 
ATOM      3  N   UNL     1       5.733   5.105  18.388  0.00  0.00    +0.000 N 
ATOM      4  H   UNL     1       5.644   5.104  17.383  0.00  0.00    +0.000 HD
ENDROOT
BRANCH   3   5
ATOM      5  C   UNL     1       4.706   4.534  19.158  0.00  0.00    +0.000 A 
ATOM      6  C   UNL     1       4.662   3.173  19.465  0.00  0.00    +0.000 A 
ATOM      7  C   UNL     1       3.606   2.643  20.208  0.00  0.00    +0.000 A 
ATOM      8  C   UNL     1       2.571   3.468  20.646  0.00  0.00    +0.000 A 
ATOM      9 CL   UNL     1       1.285   2.739  21.537  0.00  0.00    +0.000 Cl
ATOM     10  C   UNL     1       2.610   4.834  20.355  0.00  0.00    +0.000 A 
ATOM     11 CL   UNL     1       1.348   5.915  20.838  0.00  0.00    +0.000 Cl
ATOM     12  C   UNL     1       3.685   5.370  19.630  0.00  0.00    +0.000 A 
ENDBRANCH   3   5
BRANCH   2  13
ATOM     13  O   UNL     1       7.728   5.896  17.757  0.00  0.00    +0.000 OA
BRANCH  13  14
ATOM     14  N   UNL     1       7.635   4.970  16.699  0.00  0.00    +0.000 NA
ATOM     15  C   UNL     1       7.109   5.561  15.674  0.00  0.00    +0.000 C 
BRANCH  15  16
ATOM     16  C   UNL     1       6.752   4.834  14.442  0.00  0.00    +0.000 A 
ATOM     17  C   UNL     1       5.563   4.116  14.346  0.00  0.00    +0.000 A 
ATOM     18  C   UNL     1       5.292   3.484  13.146  0.00  0.00    +0.000 A 
ATOM     19  N   UNL     1       6.111   3.531  12.072  0.00  0.00    +0.000 NA
ATOM     20  C   UNL     1       7.253   4.241  12.198  0.00  0.00    +0.000 A 
ATOM     21  C   UNL     1       7.615   4.911  13.352  0.00  0.00    +0.000 A 
ENDBRANCH  15  16
ENDBRANCH  13  14
ENDBRANCH   2  13
TORSDOF 4
ENDMDL
MODEL 3
REMARK VINA RESULT:      -7.1      1.080      1.591
REMARK  Name = 
REMARK  4 active torsions:
REMARK  status: ('A' for Active; 'I' for Inactive)
REMARK    1  A    between atoms: C_2  and  O_12
REMARK    2  A    between atoms: N_3  and  C_4
REMARK    3  A    between atoms: O_12  and  N_13
REMARK    4  A    between atoms: C_14  and  C_15
REMARK                            x       y       z     vdW  Elec       q    Type
REMARK                         _______ _______ _______ _____ _____    ______ ____
ROOT
ATOM      1  O   UNL     1       7.896   6.624  18.577  0.00  0.00    +0.000 OA
ATOM      2  C   UNL     1       7.437   7.337  17.695  0.00  0.00    +0.000 C 
ATOM      3  N   UNL     1       6.289   7.129  16.958  0.00  0.00    +0.000 N 
ATOM      4  H   UNL     1       6.211   7.734  16.154  0.00  0.00    +0.000 HD
ENDROOT
BRANCH   3   5
ATOM      5  C   UNL     1       5.418   6.032  17.065  0.00  0.00    +0.000 A 
ATOM      6  C   UNL     1       5.563   4.876  16.296  0.00  0.00    +0.000 A 
ATOM      7  C   UNL     1       4.656   3.823  16.414  0.00  0.00    +0.000 A 
ATOM      8  C   UNL     1       3.581   3.916  17.297  0.00  0.00    +0.000 A 
ATOM      9 CL   UNL     1       2.484   2.585  17.370  0.00  0.00    +0.000 Cl
ATOM     10  C   UNL     1       3.432   5.063  18.080  0.00  0.00    +0.000 A 
ATOM     11 CL   UNL     1       2.108   5.264  19.175  0.00  0.00    +0.000 Cl
ATOM     12  C   UNL     1       4.359   6.111  17.979  0.00  0.00    +0.000 A 
ENDBRANCH   3   5
BRANCH   2  13
ATOM     13  O   UNL     1       8.049   8.481  17.238  0.00  0.00    +0.000 OA
BRANCH  13  14
ATOM     14  N   UNL     1       8.432   9.275  18.337  0.00  0.00    +0.000 NA
ATOM     15  C   UNL     1       9.047  10.326  17.896  0.00  0.00    +0.000 C 
BRANCH  15  16
ATOM     16  C   UNL     1       9.693  11.297  18.798  0.00  0.00    +0.000 A 
ATOM     17  C   UNL     1       9.674  11.123  20.180  0.00  0.00    +0.000 A 
ATOM     18  C   UNL     1      10.327  12.066  20.952  0.00  0.00    +0.000 A 
ATOM     19  N   UNL     1      10.980  13.133  20.441  0.00  0.00    +0.000 NA
ATOM     20  C   UNL     1      10.984  13.267  19.097  0.00  0.00    +0.000 A 
ATOM     21  C   UNL     1      10.365  12.380  18.237  0.00  0.00    +0.000 A 
ENDBRANCH  15  16
ENDBRANCH  13  14
ENDBRANCH   2  13
TORSDOF 4
ENDMDL
MODEL 4
REMARK VINA RESULT:      -7.0      0.967      1.868
REMARK  Name = 
REMARK  4 active torsions:
REMARK  status: ('A' for Active; 'I' for Inactive)
REMARK    1  A    between atoms: C_2  and  O_12
REMARK    2  A    between atoms: N_3  and  C_4
REMARK    3  A    between atoms: O_12  and  N_13
REMARK    4  A    between atoms: C_14  and  C_15
REMARK                            x       y       z     vdW  Elec       q    Type
REMARK                         _______ _______ _______ _____ _____    ______ ____
ROOT
ATOM      1  O   UNL     1       7.094   5.945  18.825  0.00  0.00    +0.000 OA
ATOM      2  C   UNL     1       6.754   6.573  17.831  0.00  0.00    +0.000 C 
ATOM      3  N   UNL     1       5.531   6.541  17.194  0.00  0.00    +0.000 N 
ATOM      4  H   UNL     1       5.537   6.981  16.287  0.00  0.00    +0.000 HD
ENDROOT
BRANCH   3   5
ATOM      5  C   UNL     1       4.425   5.754  17.556  0.00  0.00    +0.000 A 
ATOM      6  C   UNL     1       3.238   6.300  18.046  0.00  0.00    +0.000 A 
ATOM      7  C   UNL     1       2.175   5.478  18.422  0.00  0.00    +0.000 A 
ATOM      8  C   UNL     1       2.290   4.091  18.323  0.00  0.00    +0.000 A 
ATOM      9 CL   UNL     1       0.945   3.136  18.832  0.00  0.00    +0.000 Cl
ATOM     10  C   UNL     1       3.469   3.533  17.824  0.00  0.00    +0.000 A 
ATOM     11 CL   UNL     1       3.697   1.823  17.700  0.00  0.00    +0.000 Cl
ATOM     12  C   UNL     1       4.527   4.362  17.422  0.00  0.00    +0.000 A 
ENDBRANCH   3   5
BRANCH   2  13
ATOM     13  O   UNL     1       7.592   7.407  17.128  0.00  0.00    +0.000 OA
BRANCH  13  14
ATOM     14  N   UNL     1       8.330   8.197  18.031  0.00  0.00    +0.000 NA
ATOM     15  C   UNL     1       8.084   9.445  17.789  0.00  0.00    +0.000 C 
BRANCH  15  16
ATOM     16  C   UNL     1       8.802  10.536  18.473  0.00  0.00    +0.000 A 
ATOM     17  C   UNL     1       9.361  10.353  19.735  0.00  0.00    +0.000 A 
ATOM     18  C   UNL     1      10.040  11.420  20.294  0.00  0.00    +0.000 A 
ATOM     19  N   UNL     1      10.191  12.616  19.684  0.00  0.00    +0.000 NA
ATOM     20  C   UNL     1       9.641  12.757  18.458  0.00  0.00    +0.000 A 
ATOM     21  C   UNL     1       8.946  11.753  17.812  0.00  0.00    +0.000 A 
ENDBRANCH  15  16
ENDBRANCH  13  14
ENDBRANCH   2  13
TORSDOF 4
ENDMDL
MODEL 5
REMARK VINA RESULT:      -7.0      1.097      1.254
REMARK  Name = 
REMARK  4 active torsions:
REMARK  status: ('A' for Active; 'I' for Inactive)
REMARK    1  A    between atoms: C_2  and  O_12
REMARK    2  A    between atoms: N_3  and  C_4
REMARK    3  A    between atoms: O_12  and  N_13
REMARK    4  A    between atoms: C_14  and  C_15
REMARK                            x       y       z     vdW  Elec       q    Type
REMARK                         _______ _______ _______ _____ _____    ______ ____
ROOT
ATOM      1  O   UNL     1       5.297   7.289  17.426  0.00  0.00    +0.000 OA
ATOM      2  C   UNL     1       6.166   6.439  17.573  0.00  0.00    +0.000 C 
ATOM      3  N   UNL     1       5.993   5.104  17.874  0.00  0.00    +0.000 N 
ATOM      4  H   UNL     1       6.846   4.639  18.145  0.00  0.00    +0.000 HD
ENDROOT
BRANCH   3   5
ATOM      5  C   UNL     1       4.768   4.452  18.094  0.00  0.00    +0.000 A 
ATOM      6  C   UNL     1       4.126   3.700  17.109  0.00  0.00    +0.000 A 
ATOM      7  C   UNL     1       2.895   3.095  17.362  0.00  0.00    +0.000 A 
ATOM      8  C   UNL     1       2.281   3.243  18.606  0.00  0.00    +0.000 A 
ATOM      9 CL   UNL     1       0.746   2.489  18.838  0.00  0.00    +0.000 Cl
ATOM     10  C   UNL     1       2.919   3.985  19.604  0.00  0.00    +0.000 A 
ATOM     11 CL   UNL     1       2.206   4.238  21.159  0.00  0.00    +0.000 Cl
ATOM     12  C   UNL     1       4.169   4.571  19.356  0.00  0.00    +0.000 A 
ENDBRANCH   3   5
BRANCH   2  13
ATOM     13  O   UNL     1       7.514   6.704  17.513  0.00  0.00    +0.000 OA
BRANCH  13  14
ATOM     14  N   UNL     1       7.711   8.090  17.359  0.00  0.00    +0.000 NA
ATOM     15  C   UNL     1       8.484   8.508  18.310  0.00  0.00    +0.000 C 
BRANCH  15  16
ATOM     16  C   UNL     1       8.780   9.938  18.513  0.00  0.00    +0.000 A 
ATOM     17  C   UNL     1       8.360  10.900  17.597  0.00  0.00    +0.000 A 
ATOM     18  C   UNL     1       8.656  12.222  17.877  0.00  0.00    +0.000 A 
ATOM     19  N   UNL     1       9.321  12.624  18.983  0.00  0.00    +0.000 NA
ATOM     20  C   UNL     1       9.708  11.665  19.852  0.00  0.00    +0.000 A 
ATOM     21  C   UNL     1       9.459  10.318  19.667  0.00  0.00    +0.000 A 
ENDBRANCH  15  16
ENDBRANCH  13  14
ENDBRANCH   2  13
TORSDOF 4
ENDMDL
MODEL 6
REMARK VINA RESULT:      -7.0      4.626      6.002
REMARK  Name = 
REMARK  4 active torsions:
REMARK  status: ('A' for Active; 'I' for Inactive)
REMARK    1  A    between atoms: C_2  and  O_12
REMARK    2  A    between atoms: N_3  and  C_4
REMARK    3  A    between atoms: O_12  and  N_13
REMARK    4  A    between atoms: C_14  and  C_15
REMARK                            x       y       z     vdW  Elec       q    Type
REMARK                         _______ _______ _______ _____ _____    ______ ____
ROOT
ATOM      1  O   UNL     1       6.091   6.000  18.966  0.00  0.00    +0.000 OA
ATOM      2  C   UNL     1       6.538   5.082  18.293  0.00  0.00    +0.000 C 
ATOM      3  N   UNL     1       5.881   3.938  17.887  0.00  0.00    +0.000 N 
ATOM      4  H   UNL     1       6.496   3.230  17.516  0.00  0.00    +0.000 HD
ENDROOT
BRANCH   3   5
ATOM      5  C   UNL     1       4.554   3.590  18.188  0.00  0.00    +0.000 A 
ATOM      6  C   UNL     1       3.541   3.579  17.229  0.00  0.00    +0.000 A 
ATOM      7  C   UNL     1       2.229   3.257  17.579  0.00  0.00    +0.000 A 
ATOM      8  C   UNL     1       1.910   2.950  18.901  0.00  0.00    +0.000 A 
ATOM      9 CL   UNL     1       0.262   2.588  19.266  0.00  0.00    +0.000 Cl
ATOM     10  C   UNL     1       2.918   2.947  19.869  0.00  0.00    +0.000 A 
ATOM     11 CL   UNL     1       2.594   2.607  21.534  0.00  0.00    +0.000 Cl
ATOM     12  C   UNL     1       4.240   3.247  19.511  0.00  0.00    +0.000 A 
ENDBRANCH   3   5
BRANCH   2  13
ATOM     13  O   UNL     1       7.843   5.013  17.861  0.00  0.00    +0.000 OA
BRANCH  13  14
ATOM     14  N   UNL     1       7.882   4.405  16.591  0.00  0.00    +0.000 NA
ATOM     15  C   UNL     1       7.219   5.141  15.757  0.00  0.00    +0.000 C 
BRANCH  15  16
ATOM     16  C   UNL     1       6.956   4.719  14.370  0.00  0.00    +0.000 A 
ATOM     17  C   UNL     1       7.777   5.129  13.321  0.00  0.00    +0.000 A 
ATOM     18  C   UNL     1       7.475   4.665  12.054  0.00  0.00    +0.000 A 
ATOM     19  N   UNL     1       6.440   3.840  11.784  0.00  0.00    +0.000 NA
ATOM     20  C   UNL     1       5.669   3.456  12.824  0.00  0.00    +0.000 A 
ATOM     21  C   UNL     1       5.887   3.861  14.128  0.00  0.00    +0.000 A 
ENDBRANCH  15  16
ENDBRANCH  13  14
ENDBRANCH   2  13
TORSDOF 4
ENDMDL
MODEL 7
REMARK VINA RESULT:      -6.9      1.244      1.350
REMARK  Name = 
REMARK  4 active torsions:
REMARK  status: ('A' for Active; 'I' for Inactive)
REMARK    1  A    between atoms: C_2  and  O_12
REMARK    2  A    between atoms: N_3  and  C_4
REMARK    3  A    between atoms: O_12  and  N_13
REMARK    4  A    between atoms: C_14  and  C_15
REMARK                            x       y       z     vdW  Elec       q    Type
REMARK                         _______ _______ _______ _____ _____    ______ ____
ROOT
ATOM      1  O   UNL     1       7.577   6.078  16.838  0.00  0.00    +0.000 OA
ATOM      2  C   UNL     1       6.887   7.004  17.242  0.00  0.00    +0.000 C 
ATOM      3  N   UNL     1       5.676   6.925  17.899  0.00  0.00    +0.000 N 
ATOM      4  H   UNL     1       5.192   7.809  17.958  0.00  0.00    +0.000 HD
ENDROOT
BRANCH   3   5
ATOM      5  C   UNL     1       4.979   5.749  18.221  0.00  0.00    +0.000 A 
ATOM      6  C   UNL     1       5.571   4.682  18.897  0.00  0.00    +0.000 A 
ATOM      7  C   UNL     1       4.849   3.520  19.169  0.00  0.00    +0.000 A 
ATOM      8  C   UNL     1       3.522   3.404  18.757  0.00  0.00    +0.000 A 
ATOM      9 CL   UNL     1       2.699   1.927  19.104  0.00  0.00    +0.000 Cl
ATOM     10  C   UNL     1       2.914   4.470  18.089  0.00  0.00    +0.000 A 
ATOM     11 CL   UNL     1       1.282   4.390  17.520  0.00  0.00    +0.000 Cl
ATOM     12  C   UNL     1       3.634   5.648  17.839  0.00  0.00    +0.000 A 
ENDBRANCH   3   5
BRANCH   2  13
ATOM     13  O   UNL     1       7.194   8.331  17.048  0.00  0.00    +0.000 OA
BRANCH  13  14
ATOM     14  N   UNL     1       8.318   8.668  17.827  0.00  0.00    +0.000 NA
ATOM     15  C   UNL     1       8.281   9.937  18.082  0.00  0.00    +0.000 C 
BRANCH  15  16
ATOM     16  C   UNL     1       9.384  10.635  18.767  0.00  0.00    +0.000 A 
ATOM     17  C   UNL     1      10.502  11.083  18.066  0.00  0.00    +0.000 A 
ATOM     18  C   UNL     1      11.479  11.752  18.781  0.00  0.00    +0.000 A 
ATOM     19  N   UNL     1      11.404  11.995  20.108  0.00  0.00    +0.000 NA
ATOM     20  C   UNL     1      10.304  11.552  20.755  0.00  0.00    +0.000 A 
ATOM     21  C   UNL     1       9.271  10.876  20.133  0.00  0.00    +0.000 A 
ENDBRANCH  15  16
ENDBRANCH  13  14
ENDBRANCH   2  13
TORSDOF 4
ENDMDL
MODEL 8
REMARK VINA RESULT:      -6.9      1.183      1.636
REMARK  Name = 
REMARK  4 active torsions:
REMARK  status: ('A' for Active; 'I' for Inactive)
REMARK    1  A    between atoms: C_2  and  O_12
REMARK    2  A    between atoms: N_3  and  C_4
REMARK    3  A    between atoms: O_12  and  N_13
REMARK    4  A    between atoms: C_14  and  C_15
REMARK                            x       y       z     vdW  Elec       q    Type
REMARK                         _______ _______ _______ _____ _____    ______ ____
ROOT
ATOM      1  O   UNL     1       6.785   7.584  16.851  0.00  0.00    +0.000 OA
ATOM      2  C   UNL     1       7.324   7.146  17.858  0.00  0.00    +0.000 C 
ATOM      3  N   UNL     1       6.937   6.058  18.613  0.00  0.00    +0.000 N 
ATOM      4  H   UNL     1       7.404   6.000  19.506  0.00  0.00    +0.000 HD
ENDROOT
BRANCH   3   5
ATOM      5  C   UNL     1       5.821   5.237  18.380  0.00  0.00    +0.000 A 
ATOM      6  C   UNL     1       5.708   4.418  17.256  0.00  0.00    +0.000 A 
ATOM      7  C   UNL     1       4.567   3.642  17.050  0.00  0.00    +0.000 A 
ATOM      8  C   UNL     1       3.513   3.685  17.963  0.00  0.00    +0.000 A 
ATOM      9 CL   UNL     1       2.122   2.720  17.629  0.00  0.00    +0.000 Cl
ATOM     10  C   UNL     1       3.619   4.493  19.098  0.00  0.00    +0.000 A 
ATOM     11 CL   UNL     1       2.343   4.621  20.259  0.00  0.00    +0.000 Cl
ATOM     12  C   UNL     1       4.778   5.252  19.317  0.00  0.00    +0.000 A 
ENDBRANCH   3   5
BRANCH   2  13
ATOM     13  O   UNL     1       8.417   7.728  18.457  0.00  0.00    +0.000 OA
BRANCH  13  14
ATOM     14  N   UNL     1       8.439   9.103  18.151  0.00  0.00    +0.000 NA
ATOM     15  C   UNL     1       9.201   9.707  19.006  0.00  0.00    +0.000 C 
BRANCH  15  16
ATOM     16  C   UNL     1       9.334  11.174  19.045  0.00  0.00    +0.000 A 
ATOM     17  C   UNL     1       9.895  11.821  20.144  0.00  0.00    +0.000 A 
ATOM     18  C   UNL     1      10.006  13.198  20.087  0.00  0.00    +0.000 A 
ATOM     19  N   UNL     1       9.607  13.940  19.031  0.00  0.00    +0.000 NA
ATOM     20  C   UNL     1       9.074  13.281  17.980  0.00  0.00    +0.000 A 
ATOM     21  C   UNL     1       8.921  11.908  17.936  0.00  0.00    +0.000 A 
ENDBRANCH  15  16
ENDBRANCH  13  14
ENDBRANCH   2  13
TORSDOF 4
ENDMDL
MODEL 9
REMARK VINA RESULT:      -6.9      0.943      1.642
REMARK  Name = 
REMARK  4 active torsions:
REMARK  status: ('A' for Active; 'I' for Inactive)
REMARK    1  A    between atoms: C_2  and  O_12
REMARK    2  A    between atoms: N_3  and  C_4
REMARK    3  A    between atoms: O_12  and  N_13
REMARK    4  A    between atoms: C_14  and  C_15
REMARK                            x       y       z     vdW  Elec       q    Type
REMARK                         _______ _______ _______ _____ _____    ______ ____
ROOT
ATOM      1  O   UNL     1       7.001   6.026  18.627  0.00  0.00    +0.000 OA
ATOM      2  C   UNL     1       6.485   6.760  17.795  0.00  0.00    +0.000 C 
ATOM      3  N   UNL     1       5.155   6.817  17.432  0.00  0.00    +0.000 N 
ATOM      4  H   UNL     1       4.989   7.348  16.591  0.00  0.00    +0.000 HD
ENDROOT
BRANCH   3   5
ATOM      5  C   UNL     1       4.119   6.018  17.942  0.00  0.00    +0.000 A 
ATOM      6  C   UNL     1       3.172   6.498  18.848  0.00  0.00    +0.000 A 
ATOM      7  C   UNL     1       2.177   5.660  19.353  0.00  0.00    +0.000 A 
ATOM      8  C   UNL     1       2.123   4.321  18.965  0.00  0.00    +0.000 A 
ATOM      9 CL   UNL     1       0.882   3.336  19.651  0.00  0.00    +0.000 Cl
ATOM     10  C   UNL     1       3.059   3.831  18.050  0.00  0.00    +0.000 A 
ATOM     11 CL   UNL     1       3.073   2.177  17.545  0.00  0.00    +0.000 Cl
ATOM     12  C   UNL     1       4.042   4.682  17.524  0.00  0.00    +0.000 A 
ENDBRANCH   3   5
BRANCH   2  13
ATOM     13  O   UNL     1       7.190   7.646  17.013  0.00  0.00    +0.000 OA
BRANCH  13  14
ATOM     14  N   UNL     1       8.264   8.172  17.758  0.00  0.00    +0.000 NA
ATOM     15  C   UNL     1       8.076   9.444  17.917  0.00  0.00    +0.000 C 
BRANCH  15  16
ATOM     16  C   UNL     1       9.086  10.318  18.541  0.00  0.00    +0.000 A 
ATOM     17  C   UNL     1       9.980  11.054  17.768  0.00  0.00    +0.000 A 
ATOM     18  C   UNL     1      10.878  11.870  18.433  0.00  0.00    +0.000 A 
ATOM     19  N   UNL     1      10.929  11.991  19.777  0.00  0.00    +0.000 NA
ATOM     20  C   UNL     1      10.043  11.267  20.496  0.00  0.00    +0.000 A 
ATOM     21  C   UNL     1       9.104  10.426  19.929  0.00  0.00    +0.000 A 
ENDBRANCH  15  16
ENDBRANCH  13  14
ENDBRANCH   2  13
TORSDOF 4
ENDMDL
