MODEL 1
REMARK VINA RESULT:      -8.4      0.000      0.000
REMARK  Name = 
REMARK  7 active torsions:
REMARK  status: ('A' for Active; 'I' for Inactive)
REMARK    1  A    between atoms: C_1  and  C_2
REMARK    2  A    between atoms: C_5  and  N_6
REMARK    3  A    between atoms: C_8  and  C_9
REMARK    4  A    between atoms: C_13  and  C_14
REMARK    5  A    between atoms: C_14  and  O_15
REMARK    6  A    between atoms: C_18  and  N_19
REMARK    7  A    between atoms: C_20  and  C_22
REMARK                            x       y       z     vdW  Elec       q    Type
REMARK                         _______ _______ _______ _____ _____    ______ ____
ROOT
ATOM      1  N   UNL     1       3.756   5.049  18.457  0.00  0.00    +0.000 N 
ATOM      2  N   UNL     1       4.613   4.464  17.584  0.00  0.00    +0.000 NA
ATOM      3  C   UNL     1       4.887   5.403  16.662  0.00  0.00    +0.000 A 
ATOM      4  C   UNL     1       4.291   6.641  17.024  0.00  0.00    +0.000 A 
ATOM      5  C   UNL     1       3.621   6.406  18.201  0.00  0.00    +0.000 A 
ENDROOT
BRANCH   1  10
ATOM      6  C   UNL     1       0.955   2.004  22.435  0.00  0.00    +0.000 C 
ATOM      7  C   UNL     1       1.681   2.800  21.389  0.00  0.00    +0.000 A 
ATOM      8  C   UNL     1       1.043   3.836  20.697  0.00  0.00    +0.000 A 
ATOM      9  C   UNL     1       1.734   4.587  19.739  0.00  0.00    +0.000 A 
ATOM     10  C   UNL     1       3.067   4.285  19.441  0.00  0.00    +0.000 A 
ATOM     11  C   UNL     1       3.716   3.263  20.151  0.00  0.00    +0.000 A 
ATOM     12  C   UNL     1       3.025   2.529  21.119  0.00  0.00    +0.000 A 
ENDBRANCH   1  10
BRANCH   3  13
ATOM     13  C   UNL     1       5.735   5.126  15.498  0.00  0.00    +0.000 A 
ATOM     14  C   UNL     1       7.012   5.669  15.382  0.00  0.00    +0.000 A 
ATOM     15  N   UNL     1       7.855   5.448  14.345  0.00  0.00    +0.000 NA
ATOM     16  C   UNL     1       7.404   4.644  13.359  0.00  0.00    +0.000 A 
ATOM     17  C   UNL     1       6.152   4.037  13.359  0.00  0.00    +0.000 A 
ATOM     18  C   UNL     1       5.306   4.307  14.446  0.00  0.00    +0.000 A 
BRANCH  17  19
ATOM     19  C   UNL     1       5.730   3.199  12.186  0.00  0.00    +0.000 C 
BRANCH  19  20
ATOM     20  O   UNL     1       6.729   2.255  11.829  0.00  0.00    +0.000 OA
ATOM     21  H   UNL     1       7.397   2.265  12.536  0.00  0.00    +0.000 HD
ENDBRANCH  19  20
ENDBRANCH  17  19
ENDBRANCH   3  13
BRANCH   5  22
ATOM     22  N   UNL     1       3.028   7.365  19.006  0.00  0.00    +0.000 N 
ATOM     23  C   UNL     1       1.981   8.214  18.546  0.00  0.00    +0.000 C 
ATOM     24  O   UNL     1       1.529   8.151  17.414  0.00  0.00    +0.000 OA
ATOM     25  H   UNL     1       3.283   7.400  19.998  0.00  0.00    +0.000 HD
BRANCH  23  26
ATOM     26  C   UNL     1       1.451   8.996  19.631  0.00  0.00    +0.000 A 
ATOM     27  C   UNL     1       1.292   8.613  20.977  0.00  0.00    +0.000 A 
ATOM     28  N   UNL     1       0.865   9.608  21.753  0.00  0.00    +0.000 NA
ATOM     29  N   UNL     1       0.743  10.667  20.923  0.00  0.00    +0.000 N 
ATOM     30  C   UNL     1       0.438  11.982  21.245  0.00  0.00    +0.000 A 
ATOM     31  C   UNL     1       0.369  12.917  20.283  0.00  0.00    +0.000 A 
ATOM     32  C   UNL     1       0.591  12.418  18.897  0.00  0.00    +0.000 A 
ATOM     33  N   UNL     1       0.931  11.205  18.560  0.00  0.00    +0.000 NA
ATOM     34  C   UNL     1       1.029  10.312  19.599  0.00  0.00    +0.000 A 
ENDBRANCH  23  26
ENDBRANCH   5  22
TORSDOF 6
ENDMDL
MODEL 2
REMARK VINA RESULT:      -8.3      1.157      1.845
REMARK  Name = 
REMARK  7 active torsions:
REMARK  status: ('A' for Active; 'I' for Inactive)
REMARK    1  A    between atoms: C_1  and  C_2
REMARK    2  A    between atoms: C_5  and  N_6
REMARK    3  A    between atoms: C_8  and  C_9
REMARK    4  A    between atoms: C_13  and  C_14
REMARK    5  A    between atoms: C_14  and  O_15
REMARK    6  A    between atoms: C_18  and  N_19
REMARK    7  A    between atoms: C_20  and  C_22
REMARK                            x       y       z     vdW  Elec       q    Type
REMARK                         _______ _______ _______ _____ _____    ______ ____
ROOT
ATOM      1  N   UNL     1       3.322   5.156  18.469  0.00  0.00    +0.000 N 
ATOM      2  N   UNL     1       4.317   4.613  17.724  0.00  0.00    +0.000 NA
ATOM      3  C   UNL     1       4.545   5.488  16.730  0.00  0.00    +0.000 A 
ATOM      4  C   UNL     1       3.767   6.662  16.917  0.00  0.00    +0.000 A 
ATOM      5  C   UNL     1       3.036   6.451  18.062  0.00  0.00    +0.000 A 
ENDROOT
BRANCH   1  10
ATOM      6  C   UNL     1       0.681   2.112  22.555  0.00  0.00    +0.000 C 
ATOM      7  C   UNL     1       1.373   2.915  21.492  0.00  0.00    +0.000 A 
ATOM      8  C   UNL     1       2.512   3.673  21.784  0.00  0.00    +0.000 A 
ATOM      9  C   UNL     1       3.163   4.401  20.782  0.00  0.00    +0.000 A 
ATOM     10  C   UNL     1       2.658   4.403  19.477  0.00  0.00    +0.000 A 
ATOM     11  C   UNL     1       1.529   3.624  19.177  0.00  0.00    +0.000 A 
ATOM     12  C   UNL     1       0.895   2.885  20.178  0.00  0.00    +0.000 A 
ENDBRANCH   1  10
BRANCH   3  13
ATOM     13  C   UNL     1       5.514   5.219  15.664  0.00  0.00    +0.000 A 
ATOM     14  C   UNL     1       6.795   5.765  15.690  0.00  0.00    +0.000 A 
ATOM     15  N   UNL     1       7.746   5.552  14.750  0.00  0.00    +0.000 NA
ATOM     16  C   UNL     1       7.409   4.752  13.717  0.00  0.00    +0.000 A 
ATOM     17  C   UNL     1       6.165   4.142  13.578  0.00  0.00    +0.000 A 
ATOM     18  C   UNL     1       5.205   4.404  14.567  0.00  0.00    +0.000 A 
BRANCH  17  19
ATOM     19  C   UNL     1       5.876   3.309  12.362  0.00  0.00    +0.000 C 
BRANCH  19  20
ATOM     20  O   UNL     1       7.050   2.686  11.860  0.00  0.00    +0.000 OA
ATOM     21  H   UNL     1       6.789   1.811  11.526  0.00  0.00    +0.000 HD
ENDBRANCH  19  20
ENDBRANCH  17  19
ENDBRANCH   3  13
BRANCH   5  22
ATOM     22  N   UNL     1       2.261   7.393  18.719  0.00  0.00    +0.000 N 
ATOM     23  C   UNL     1       2.011   8.690  18.184  0.00  0.00    +0.000 C 
ATOM     24  O   UNL     1       2.456   9.057  17.108  0.00  0.00    +0.000 OA
ATOM     25  H   UNL     1       1.768   7.116  19.572  0.00  0.00    +0.000 HD
BRANCH  23  26
ATOM     26  C   UNL     1       1.053   9.394  18.993  0.00  0.00    +0.000 A 
ATOM     27  C   UNL     1      -0.027  10.188  18.561  0.00  0.00    +0.000 A 
ATOM     28  N   UNL     1      -0.788  10.621  19.566  0.00  0.00    +0.000 NA
ATOM     29  N   UNL     1      -0.217  10.107  20.678  0.00  0.00    +0.000 N 
ATOM     30  C   UNL     1      -0.679  10.162  21.985  0.00  0.00    +0.000 A 
ATOM     31  C   UNL     1       0.017   9.581  22.976  0.00  0.00    +0.000 A 
ATOM     32  C   UNL     1       1.300   8.946  22.560  0.00  0.00    +0.000 A 
ATOM     33  N   UNL     1       1.741   8.828  21.338  0.00  0.00    +0.000 NA
ATOM     34  C   UNL     1       0.954   9.405  20.371  0.00  0.00    +0.000 A 
ENDBRANCH  23  26
ENDBRANCH   5  22
TORSDOF 6
ENDMDL
MODEL 3
REMARK VINA RESULT:      -8.2      0.888      1.237
REMARK  Name = 
REMARK  7 active torsions:
REMARK  status: ('A' for Active; 'I' for Inactive)
REMARK    1  A    between atoms: C_1  and  C_2
REMARK    2  A    between atoms: C_5  and  N_6
REMARK    3  A    between atoms: C_8  and  C_9
REMARK    4  A    between atoms: C_13  and  C_14
REMARK    5  A    between atoms: C_14  and  O_15
REMARK    6  A    between atoms: C_18  and  N_19
REMARK    7  A    between atoms: C_20  and  C_22
REMARK                            x       y       z     vdW  Elec       q    Type
REMARK                         _______ _______ _______ _____ _____    ______ ____
ROOT
ATOM      1  N   UNL     1       3.557   5.075  18.524  0.00  0.00    +0.000 N 
ATOM      2  N   UNL     1       4.478   4.520  17.698  0.00  0.00    +0.000 NA
ATOM      3  C   UNL     1       4.705   5.437  16.741  0.00  0.00    +0.000 A 
ATOM      4  C   UNL     1       4.008   6.640  17.033  0.00  0.00    +0.000 A 
ATOM      5  C   UNL     1       3.327   6.406  18.203  0.00  0.00    +0.000 A 
ENDROOT
BRANCH   1  10
ATOM      6  C   UNL     1       0.943   1.933  22.553  0.00  0.00    +0.000 C 
ATOM      7  C   UNL     1       1.633   2.755  21.504  0.00  0.00    +0.000 A 
ATOM      8  C   UNL     1       2.978   2.536  21.182  0.00  0.00    +0.000 A 
ATOM      9  C   UNL     1       3.607   3.293  20.188  0.00  0.00    +0.000 A 
ATOM     10  C   UNL     1       2.902   4.305  19.526  0.00  0.00    +0.000 A 
ATOM     11  C   UNL     1       1.548   4.510  19.831  0.00  0.00    +0.000 A 
ATOM     12  C   UNL     1       0.920   3.738  20.811  0.00  0.00    +0.000 A 
ENDBRANCH   1  10
BRANCH   3  13
ATOM     13  C   UNL     1       5.601   5.175  15.610  0.00  0.00    +0.000 A 
ATOM     14  C   UNL     1       6.919   5.623  15.607  0.00  0.00    +0.000 A 
ATOM     15  N   UNL     1       7.806   5.409  14.606  0.00  0.00    +0.000 NA
ATOM     16  C   UNL     1       7.361   4.711  13.541  0.00  0.00    +0.000 A 
ATOM     17  C   UNL     1       6.070   4.204  13.425  0.00  0.00    +0.000 A 
ATOM     18  C   UNL     1       5.179   4.465  14.479  0.00  0.00    +0.000 A 
BRANCH  17  19
ATOM     19  C   UNL     1       5.662   3.483  12.173  0.00  0.00    +0.000 C 
BRANCH  19  20
ATOM     20  O   UNL     1       6.105   2.134  12.175  0.00  0.00    +0.000 OA
ATOM     21  H   UNL     1       6.246   1.878  11.248  0.00  0.00    +0.000 HD
ENDBRANCH  19  20
ENDBRANCH  17  19
ENDBRANCH   3  13
BRANCH   5  22
ATOM     22  N   UNL     1       2.643   7.351  18.951  0.00  0.00    +0.000 N 
ATOM     23  C   UNL     1       2.044   8.505  18.368  0.00  0.00    +0.000 C 
ATOM     24  O   UNL     1       2.086   8.736  17.170  0.00  0.00    +0.000 OA
ATOM     25  H   UNL     1       2.476   7.165  19.944  0.00  0.00    +0.000 HD
BRANCH  23  26
ATOM     26  C   UNL     1       1.272   9.222  19.346  0.00  0.00    +0.000 A 
ATOM     27  C   UNL     1       1.507   9.322  20.731  0.00  0.00    +0.000 A 
ATOM     28  N   UNL     1       0.660  10.148  21.344  0.00  0.00    +0.000 NA
ATOM     29  N   UNL     1      -0.145  10.610  20.362  0.00  0.00    +0.000 N 
ATOM     30  C   UNL     1      -1.127  11.586  20.443  0.00  0.00    +0.000 A 
ATOM     31  C   UNL     1      -1.830  11.933  19.353  0.00  0.00    +0.000 A 
ATOM     32  C   UNL     1      -1.502  11.167  18.118  0.00  0.00    +0.000 A 
ATOM     33  N   UNL     1      -0.552  10.283  17.988  0.00  0.00    +0.000 NA
ATOM     34  C   UNL     1       0.158  10.012  19.133  0.00  0.00    +0.000 A 
ENDBRANCH  23  26
ENDBRANCH   5  22
TORSDOF 6
ENDMDL
MODEL 4
REMARK VINA RESULT:      -8.0      3.764      7.756
REMARK  Name = 
REMARK  7 active torsions:
REMARK  status: ('A' for Active; 'I' for Inactive)
REMARK    1  A    between atoms: C_1  and  C_2
REMARK    2  A    between atoms: C_5  and  N_6
REMARK    3  A    between atoms: C_8  and  C_9
REMARK    4  A    between atoms: C_13  and  C_14
REMARK    5  A    between atoms: C_14  and  O_15
REMARK    6  A    between atoms: C_18  and  N_19
REMARK    7  A    between atoms: C_20  and  C_22
REMARK                            x       y       z     vdW  Elec       q    Type
REMARK                         _______ _______ _______ _____ _____    ______ ____
ROOT
ATOM      1  N   UNL     1       0.131  11.075  19.210  0.00  0.00    +0.000 N 
ATOM      2  N   UNL     1       0.409   9.773  19.473  0.00  0.00    +0.000 NA
ATOM      3  C   UNL     1       1.550   9.506  18.814  0.00  0.00    +0.000 A 
ATOM      4  C   UNL     1       2.068  10.689  18.224  0.00  0.00    +0.000 A 
ATOM      5  C   UNL     1       1.177  11.688  18.536  0.00  0.00    +0.000 A 
ENDROOT
BRANCH   1  10
ATOM      6  C   UNL     1      -4.948  13.384  20.552  0.00  0.00    +0.000 C 
ATOM      7  C   UNL     1      -3.624  12.773  20.199  0.00  0.00    +0.000 A 
ATOM      8  C   UNL     1      -3.466  12.011  19.035  0.00  0.00    +0.000 A 
ATOM      9  C   UNL     1      -2.222  11.464  18.703  0.00  0.00    +0.000 A 
ATOM     10  C   UNL     1      -1.126  11.646  19.554  0.00  0.00    +0.000 A 
ATOM     11  C   UNL     1      -1.276  12.429  20.709  0.00  0.00    +0.000 A 
ATOM     12  C   UNL     1      -2.517  12.988  21.025  0.00  0.00    +0.000 A 
ENDBRANCH   1  10
BRANCH   3  13
ATOM     13  C   UNL     1       2.141   8.165  18.796  0.00  0.00    +0.000 A 
ATOM     14  C   UNL     1       2.981   7.754  17.763  0.00  0.00    +0.000 A 
ATOM     15  N   UNL     1       3.573   6.538  17.685  0.00  0.00    +0.000 NA
ATOM     16  C   UNL     1       3.315   5.673  18.689  0.00  0.00    +0.000 A 
ATOM     17  C   UNL     1       2.499   5.964  19.778  0.00  0.00    +0.000 A 
ATOM     18  C   UNL     1       1.894   7.230  19.809  0.00  0.00    +0.000 A 
BRANCH  17  19
ATOM     19  C   UNL     1       2.239   4.910  20.816  0.00  0.00    +0.000 C 
BRANCH  19  20
ATOM     20  O   UNL     1       1.071   4.158  20.520  0.00  0.00    +0.000 OA
ATOM     21  H   UNL     1       1.157   3.305  20.979  0.00  0.00    +0.000 HD
ENDBRANCH  19  20
ENDBRANCH  17  19
ENDBRANCH   3  13
BRANCH   5  22
ATOM     22  N   UNL     1       1.358  13.042  18.307  0.00  0.00    +0.000 N 
ATOM     23  C   UNL     1       2.060  13.887  19.215  0.00  0.00    +0.000 C 
ATOM     24  O   UNL     1       2.556  13.475  20.251  0.00  0.00    +0.000 OA
ATOM     25  H   UNL     1       1.064  13.433  17.408  0.00  0.00    +0.000 HD
BRANCH  23  26
ATOM     26  C   UNL     1       2.232  15.200  18.653  0.00  0.00    +0.000 A 
ATOM     27  C   UNL     1       3.428  15.805  18.218  0.00  0.00    +0.000 A 
ATOM     28  N   UNL     1       3.231  16.995  17.652  0.00  0.00    +0.000 NA
ATOM     29  N   UNL     1       1.894  17.186  17.703  0.00  0.00    +0.000 N 
ATOM     30  C   UNL     1       1.152  18.218  17.148  0.00  0.00    +0.000 A 
ATOM     31  C   UNL     1      -0.184  18.244  17.287  0.00  0.00    +0.000 A 
ATOM     32  C   UNL     1      -0.757  17.135  18.100  0.00  0.00    +0.000 A 
ATOM     33  N   UNL     1      -0.101  16.120  18.592  0.00  0.00    +0.000 NA
ATOM     34  C   UNL     1       1.255  16.135  18.371  0.00  0.00    +0.000 A 
ENDBRANCH  23  26
ENDBRANCH   5  22
TORSDOF 6
ENDMDL
MODEL 5
REMARK VINA RESULT:      -8.0      3.604      7.374
REMARK  Name = 
REMARK  7 active torsions:
REMARK  status: ('A' for Active; 'I' for Inactive)
REMARK    1  A    between atoms: C_1  and  C_2
REMARK    2  A    between atoms: C_5  and  N_6
REMARK    3  A    between atoms: C_8  and  C_9
REMARK    4  A    between atoms: C_13  and  C_14
REMARK    5  A    between atoms: C_14  and  O_15
REMARK    6  A    between atoms: C_18  and  N_19
REMARK    7  A    between atoms: C_20  and  C_22
REMARK                            x       y       z     vdW  Elec       q    Type
REMARK                         _______ _______ _______ _____ _____    ______ ____
ROOT
ATOM      1  N   UNL     1       0.197  10.962  19.012  0.00  0.00    +0.000 N 
ATOM      2  N   UNL     1       0.500   9.665  19.274  0.00  0.00    +0.000 NA
ATOM      3  C   UNL     1       1.691   9.447  18.693  0.00  0.00    +0.000 A 
ATOM      4  C   UNL     1       2.210  10.657  18.158  0.00  0.00    +0.000 A 
ATOM      5  C   UNL     1       1.266  11.620  18.422  0.00  0.00    +0.000 A 
ENDROOT
BRANCH   1  10
ATOM      6  C   UNL     1      -5.024  13.072  20.118  0.00  0.00    +0.000 C 
ATOM      7  C   UNL     1      -3.655  12.528  19.831  0.00  0.00    +0.000 A 
ATOM      8  C   UNL     1      -2.590  12.747  20.713  0.00  0.00    +0.000 A 
ATOM      9  C   UNL     1      -1.323  12.217  20.448  0.00  0.00    +0.000 A 
ATOM     10  C   UNL     1      -1.099  11.486  19.275  0.00  0.00    +0.000 A 
ATOM     11  C   UNL     1      -2.171  11.245  18.402  0.00  0.00    +0.000 A 
ATOM     12  C   UNL     1      -3.439  11.761  18.682  0.00  0.00    +0.000 A 
ENDBRANCH   1  10
BRANCH   3  13
ATOM     13  C   UNL     1       2.327   8.126  18.695  0.00  0.00    +0.000 A 
ATOM     14  C   UNL     1       2.106   7.214  19.724  0.00  0.00    +0.000 A 
ATOM     15  N   UNL     1       2.647   5.974  19.787  0.00  0.00    +0.000 NA
ATOM     16  C   UNL     1       3.461   5.616  18.772  0.00  0.00    +0.000 A 
ATOM     17  C   UNL     1       3.758   6.432  17.685  0.00  0.00    +0.000 A 
ATOM     18  C   UNL     1       3.188   7.715  17.669  0.00  0.00    +0.000 A 
BRANCH  17  19
ATOM     19  C   UNL     1       4.717   5.954  16.633  0.00  0.00    +0.000 C 
BRANCH  19  20
ATOM     20  O   UNL     1       4.665   4.543  16.477  0.00  0.00    +0.000 OA
ATOM     21  H   UNL     1       4.414   4.367  15.554  0.00  0.00    +0.000 HD
ENDBRANCH  19  20
ENDBRANCH  17  19
ENDBRANCH   3  13
BRANCH   5  22
ATOM     22  N   UNL     1       1.417  12.984  18.228  0.00  0.00    +0.000 N 
ATOM     23  C   UNL     1       2.097  13.822  19.158  0.00  0.00    +0.000 C 
ATOM     24  O   UNL     1       2.599  13.395  20.186  0.00  0.00    +0.000 OA
ATOM     25  H   UNL     1       1.117  13.390  17.337  0.00  0.00    +0.000 HD
BRANCH  23  26
ATOM     26  C   UNL     1       2.241  15.151  18.630  0.00  0.00    +0.000 A 
ATOM     27  C   UNL     1       3.415  15.774  18.162  0.00  0.00    +0.000 A 
ATOM     28  N   UNL     1       3.191  16.980  17.641  0.00  0.00    +0.000 NA
ATOM     29  N   UNL     1       1.857  17.164  17.756  0.00  0.00    +0.000 N 
ATOM     30  C   UNL     1       1.088  18.210  17.265  0.00  0.00    +0.000 A 
ATOM     31  C   UNL     1      -0.239  18.226  17.463  0.00  0.00    +0.000 A 
ATOM     32  C   UNL     1      -0.774  17.090  18.267  0.00  0.00    +0.000 A 
ATOM     33  N   UNL     1      -0.095  16.064  18.699  0.00  0.00    +0.000 NA
ATOM     34  C   UNL     1       1.250  16.091  18.419  0.00  0.00    +0.000 A 
ENDBRANCH  23  26
ENDBRANCH   5  22
TORSDOF 6
ENDMDL
MODEL 6
REMARK VINA RESULT:      -7.9      3.443      6.743
REMARK  Name = 
REMARK  7 active torsions:
REMARK  status: ('A' for Active; 'I' for Inactive)
REMARK    1  A    between atoms: C_1  and  C_2
REMARK    2  A    between atoms: C_5  and  N_6
REMARK    3  A    between atoms: C_8  and  C_9
REMARK    4  A    between atoms: C_13  and  C_14
REMARK    5  A    between atoms: C_14  and  O_15
REMARK    6  A    between atoms: C_18  and  N_19
REMARK    7  A    between atoms: C_20  and  C_22
REMARK                            x       y       z     vdW  Elec       q    Type
REMARK                         _______ _______ _______ _____ _____    ______ ____
ROOT
ATOM      1  N   UNL     1       0.410   9.949  18.362  0.00  0.00    +0.000 N 
ATOM      2  N   UNL     1       0.668   8.655  18.679  0.00  0.00    +0.000 NA
ATOM      3  C   UNL     1       1.987   8.491  18.482  0.00  0.00    +0.000 A 
ATOM      4  C   UNL     1       2.597   9.731  18.152  0.00  0.00    +0.000 A 
ATOM      5  C   UNL     1       1.581  10.657  18.136  0.00  0.00    +0.000 A 
ENDROOT
BRANCH   1  10
ATOM      6  C   UNL     1      -4.969  11.866  17.784  0.00  0.00    +0.000 C 
ATOM      7  C   UNL     1      -3.565  11.356  17.933  0.00  0.00    +0.000 A 
ATOM      8  C   UNL     1      -3.025  10.445  17.019  0.00  0.00    +0.000 A 
ATOM      9  C   UNL     1      -1.708   9.992  17.154  0.00  0.00    +0.000 A 
ATOM     10  C   UNL     1      -0.925  10.425  18.229  0.00  0.00    +0.000 A 
ATOM     11  C   UNL     1      -1.456  11.357  19.134  0.00  0.00    +0.000 A 
ATOM     12  C   UNL     1      -2.766  11.820  18.983  0.00  0.00    +0.000 A 
ENDBRANCH   1  10
BRANCH   3  13
ATOM     13  C   UNL     1       2.643   7.191  18.652  0.00  0.00    +0.000 A 
ATOM     14  C   UNL     1       2.373   6.378  19.751  0.00  0.00    +0.000 A 
ATOM     15  N   UNL     1       2.929   5.162  19.968  0.00  0.00    +0.000 NA
ATOM     16  C   UNL     1       3.811   4.725  19.044  0.00  0.00    +0.000 A 
ATOM     17  C   UNL     1       4.161   5.439  17.902  0.00  0.00    +0.000 A 
ATOM     18  C   UNL     1       3.573   6.701  17.726  0.00  0.00    +0.000 A 
BRANCH  17  19
ATOM     19  C   UNL     1       5.191   4.882  16.962  0.00  0.00    +0.000 C 
BRANCH  19  20
ATOM     20  O   UNL     1       6.186   4.139  17.652  0.00  0.00    +0.000 OA
ATOM     21  H   UNL     1       5.727   3.596  18.316  0.00  0.00    +0.000 HD
ENDBRANCH  19  20
ENDBRANCH  17  19
ENDBRANCH   3  13
BRANCH   5  22
ATOM     22  N   UNL     1       1.732  12.030  18.022  0.00  0.00    +0.000 N 
ATOM     23  C   UNL     1       1.844  12.887  19.154  0.00  0.00    +0.000 C 
ATOM     24  O   UNL     1       1.822  12.471  20.302  0.00  0.00    +0.000 OA
ATOM     25  H   UNL     1       1.866  12.434  17.091  0.00  0.00    +0.000 HD
BRANCH  23  26
ATOM     26  C   UNL     1       2.148  14.231  18.743  0.00  0.00    +0.000 A 
ATOM     27  C   UNL     1       3.373  14.732  18.261  0.00  0.00    +0.000 A 
ATOM     28  N   UNL     1       3.296  16.003  17.869  0.00  0.00    +0.000 NA
ATOM     29  N   UNL     1       2.009  16.355  18.084  0.00  0.00    +0.000 N 
ATOM     30  C   UNL     1       1.372  17.539  17.742  0.00  0.00    +0.000 A 
ATOM     31  C   UNL     1       0.071  17.715  18.025  0.00  0.00    +0.000 A 
ATOM     32  C   UNL     1      -0.578  16.588  18.752  0.00  0.00    +0.000 A 
ATOM     33  N   UNL     1      -0.029  15.441  19.043  0.00  0.00    +0.000 NA
ATOM     34  C   UNL     1       1.290  15.313  18.683  0.00  0.00    +0.000 A 
ENDBRANCH  23  26
ENDBRANCH   5  22
TORSDOF 6
ENDMDL
MODEL 7
REMARK VINA RESULT:      -7.8      3.437      6.853
REMARK  Name = 
REMARK  7 active torsions:
REMARK  status: ('A' for Active; 'I' for Inactive)
REMARK    1  A    between atoms: C_1  and  C_2
REMARK    2  A    between atoms: C_5  and  N_6
REMARK    3  A    between atoms: C_8  and  C_9
REMARK    4  A    between atoms: C_13  and  C_14
REMARK    5  A    between atoms: C_14  and  O_15
REMARK    6  A    between atoms: C_18  and  N_19
REMARK    7  A    between atoms: C_20  and  C_22
REMARK                            x       y       z     vdW  Elec       q    Type
REMARK                         _______ _______ _______ _____ _____    ______ ____
ROOT
ATOM      1  N   UNL     1       0.835  10.392  19.697  0.00  0.00    +0.000 N 
ATOM      2  N   UNL     1       1.228   9.094  19.726  0.00  0.00    +0.000 NA
ATOM      3  C   UNL     1       1.932   8.904  18.597  0.00  0.00    +0.000 A 
ATOM      4  C   UNL     1       2.092  10.132  17.901  0.00  0.00    +0.000 A 
ATOM      5  C   UNL     1       1.432  11.077  18.648  0.00  0.00    +0.000 A 
ENDROOT
BRANCH   1  10
ATOM      6  C   UNL     1      -3.038  12.380  23.437  0.00  0.00    +0.000 C 
ATOM      7  C   UNL     1      -2.019  11.862  22.464  0.00  0.00    +0.000 A 
ATOM      8  C   UNL     1      -0.971  11.036  22.886  0.00  0.00    +0.000 A 
ATOM      9  C   UNL     1      -0.038  10.540  21.969  0.00  0.00    +0.000 A 
ATOM     10  C   UNL     1      -0.127  10.894  20.618  0.00  0.00    +0.000 A 
ATOM     11  C   UNL     1      -1.190  11.703  20.189  0.00  0.00    +0.000 A 
ATOM     12  C   UNL     1      -2.129  12.180  21.108  0.00  0.00    +0.000 A 
ENDBRANCH   1  10
BRANCH   3  13
ATOM     13  C   UNL     1       2.472   7.591  18.230  0.00  0.00    +0.000 A 
ATOM     14  C   UNL     1       3.680   7.467  17.548  0.00  0.00    +0.000 A 
ATOM     15  N   UNL     1       4.246   6.290  17.187  0.00  0.00    +0.000 NA
ATOM     16  C   UNL     1       3.574   5.168  17.517  0.00  0.00    +0.000 A 
ATOM     17  C   UNL     1       2.362   5.158  18.202  0.00  0.00    +0.000 A 
ATOM     18  C   UNL     1       1.804   6.400  18.541  0.00  0.00    +0.000 A 
BRANCH  17  19
ATOM     19  C   UNL     1       1.672   3.852  18.476  0.00  0.00    +0.000 C 
BRANCH  19  20
ATOM     20  O   UNL     1       0.922   3.897  19.681  0.00  0.00    +0.000 OA
ATOM     21  H   UNL     1       0.466   4.756  19.702  0.00  0.00    +0.000 HD
ENDBRANCH  19  20
ENDBRANCH  17  19
ENDBRANCH   3  13
BRANCH   5  22
ATOM     22  N   UNL     1       1.459  12.447  18.438  0.00  0.00    +0.000 N 
ATOM     23  C   UNL     1       2.044  13.355  19.367  0.00  0.00    +0.000 C 
ATOM     24  O   UNL     1       2.568  12.988  20.408  0.00  0.00    +0.000 OA
ATOM     25  H   UNL     1       1.136  12.813  17.538  0.00  0.00    +0.000 HD
BRANCH  23  26
ATOM     26  C   UNL     1       2.073  14.685  18.824  0.00  0.00    +0.000 A 
ATOM     27  C   UNL     1       3.113  15.303  18.103  0.00  0.00    +0.000 A 
ATOM     28  N   UNL     1       2.784  16.513  17.650  0.00  0.00    +0.000 NA
ATOM     29  N   UNL     1       1.513  16.704  18.066  0.00  0.00    +0.000 N 
ATOM     30  C   UNL     1       0.659  17.756  17.767  0.00  0.00    +0.000 A 
ATOM     31  C   UNL     1      -0.589  17.779  18.262  0.00  0.00    +0.000 A 
ATOM     32  C   UNL     1      -0.934  16.643  19.163  0.00  0.00    +0.000 A 
ATOM     33  N   UNL     1      -0.180  15.611  19.425  0.00  0.00    +0.000 NA
ATOM     34  C   UNL     1       1.066  15.632  18.847  0.00  0.00    +0.000 A 
ENDBRANCH  23  26
ENDBRANCH   5  22
TORSDOF 6
ENDMDL
MODEL 8
REMARK VINA RESULT:      -7.8      3.190      6.758
REMARK  Name = 
REMARK  7 active torsions:
REMARK  status: ('A' for Active; 'I' for Inactive)
REMARK    1  A    between atoms: C_1  and  C_2
REMARK    2  A    between atoms: C_5  and  N_6
REMARK    3  A    between atoms: C_8  and  C_9
REMARK    4  A    between atoms: C_13  and  C_14
REMARK    5  A    between atoms: C_14  and  O_15
REMARK    6  A    between atoms: C_18  and  N_19
REMARK    7  A    between atoms: C_20  and  C_22
REMARK                            x       y       z     vdW  Elec       q    Type
REMARK                         _______ _______ _______ _____ _____    ______ ____
ROOT
ATOM      1  N   UNL     1       0.753  10.457  19.865  0.00  0.00    +0.000 N 
ATOM      2  N   UNL     1       1.179   9.171  19.934  0.00  0.00    +0.000 NA
ATOM      3  C   UNL     1       1.914   8.973  18.826  0.00  0.00    +0.000 A 
ATOM      4  C   UNL     1       2.058  10.188  18.104  0.00  0.00    +0.000 A 
ATOM      5  C   UNL     1       1.357  11.133  18.814  0.00  0.00    +0.000 A 
ENDROOT
BRANCH   1  10
ATOM      6  C   UNL     1      -3.259  12.504  23.421  0.00  0.00    +0.000 C 
ATOM      7  C   UNL     1      -2.215  11.967  22.485  0.00  0.00    +0.000 A 
ATOM      8  C   UNL     1      -2.202  12.329  21.133  0.00  0.00    +0.000 A 
ATOM      9  C   UNL     1      -1.212  11.841  20.273  0.00  0.00    +0.000 A 
ATOM     10  C   UNL     1      -0.241  10.955  20.753  0.00  0.00    +0.000 A 
ATOM     11  C   UNL     1      -0.239  10.610  22.113  0.00  0.00    +0.000 A 
ATOM     12  C   UNL     1      -1.218  11.116  22.971  0.00  0.00    +0.000 A 
ENDBRANCH   1  10
BRANCH   3  13
ATOM     13  C   UNL     1       2.495   7.666  18.501  0.00  0.00    +0.000 A 
ATOM     14  C   UNL     1       2.066   6.502  19.134  0.00  0.00    +0.000 A 
ATOM     15  N   UNL     1       2.546   5.261  18.878  0.00  0.00    +0.000 NA
ATOM     16  C   UNL     1       3.513   5.167  17.941  0.00  0.00    +0.000 A 
ATOM     17  C   UNL     1       4.022   6.253  17.235  0.00  0.00    +0.000 A 
ATOM     18  C   UNL     1       3.507   7.522  17.545  0.00  0.00    +0.000 A 
BRANCH  17  19
ATOM     19  C   UNL     1       5.134   6.044  16.247  0.00  0.00    +0.000 C 
BRANCH  19  20
ATOM     20  O   UNL     1       6.191   6.973  16.441  0.00  0.00    +0.000 OA
ATOM     21  H   UNL     1       6.401   6.972  17.390  0.00  0.00    +0.000 HD
ENDBRANCH  19  20
ENDBRANCH  17  19
ENDBRANCH   3  13
BRANCH   5  22
ATOM     22  N   UNL     1       1.355  12.497  18.573  0.00  0.00    +0.000 N 
ATOM     23  C   UNL     1       2.005  13.430  19.431  0.00  0.00    +0.000 C 
ATOM     24  O   UNL     1       2.614  13.092  20.434  0.00  0.00    +0.000 OA
ATOM     25  H   UNL     1       0.956  12.841  17.694  0.00  0.00    +0.000 HD
BRANCH  23  26
ATOM     26  C   UNL     1       1.977  14.749  18.858  0.00  0.00    +0.000 A 
ATOM     27  C   UNL     1       2.974  15.378  18.088  0.00  0.00    +0.000 A 
ATOM     28  N   UNL     1       2.596  16.568  17.621  0.00  0.00    +0.000 NA
ATOM     29  N   UNL     1       1.334  16.734  18.077  0.00  0.00    +0.000 N 
ATOM     30  C   UNL     1       0.442  17.755  17.785  0.00  0.00    +0.000 A 
ATOM     31  C   UNL     1      -0.789  17.755  18.323  0.00  0.00    +0.000 A 
ATOM     32  C   UNL     1      -1.070  16.630  19.260  0.00  0.00    +0.000 A 
ATOM     33  N   UNL     1      -0.279  15.626  19.518  0.00  0.00    +0.000 NA
ATOM     34  C   UNL     1       0.945  15.667  18.896  0.00  0.00    +0.000 A 
ENDBRANCH  23  26
ENDBRANCH   5  22
TORSDOF 6
ENDMDL
MODEL 9
REMARK VINA RESULT:      -7.8      3.777      7.324
REMARK  Name = 
REMARK  7 active torsions:
REMARK  status: ('A' for Active; 'I' for Inactive)
REMARK    1  A    between atoms: C_1  and  C_2
REMARK    2  A    between atoms: C_5  and  N_6
REMARK    3  A    between atoms: C_8  and  C_9
REMARK    4  A    between atoms: C_13  and  C_14
REMARK    5  A    between atoms: C_14  and  O_15
REMARK    6  A    between atoms: C_18  and  N_19
REMARK    7  A    between atoms: C_20  and  C_22
REMARK                            x       y       z     vdW  Elec       q    Type
REMARK                         _______ _______ _______ _____ _____    ______ ____
ROOT
ATOM      1  N   UNL     1       0.451  10.452  20.293  0.00  0.00    +0.000 N 
ATOM      2  N   UNL     1       0.767   9.148  20.493  0.00  0.00    +0.000 NA
ATOM      3  C   UNL     1       1.588   8.815  19.483  0.00  0.00    +0.000 A 
ATOM      4  C   UNL     1       1.897   9.959  18.699  0.00  0.00    +0.000 A 
ATOM      5  C   UNL     1       1.205  11.002  19.267  0.00  0.00    +0.000 A 
ENDROOT
BRANCH   1  10
ATOM      6  C   UNL     1      -3.722  13.037  23.266  0.00  0.00    +0.000 C 
ATOM      7  C   UNL     1      -2.636  12.359  22.483  0.00  0.00    +0.000 A 
ATOM      8  C   UNL     1      -2.557  12.492  21.092  0.00  0.00    +0.000 A 
ATOM      9  C   UNL     1      -1.528  11.874  20.373  0.00  0.00    +0.000 A 
ATOM     10  C   UNL     1      -0.584  11.085  21.038  0.00  0.00    +0.000 A 
ATOM     11  C   UNL     1      -0.648  10.969  22.435  0.00  0.00    +0.000 A 
ATOM     12  C   UNL     1      -1.666  11.604  23.150  0.00  0.00    +0.000 A 
ENDBRANCH   1  10
BRANCH   3  13
ATOM     13  C   UNL     1       2.095   7.450  19.310  0.00  0.00    +0.000 A 
ATOM     14  C   UNL     1       2.850   7.090  18.197  0.00  0.00    +0.000 A 
ATOM     15  N   UNL     1       3.362   5.855  17.976  0.00  0.00    +0.000 NA
ATOM     16  C   UNL     1       3.107   4.918  18.912  0.00  0.00    +0.000 A 
ATOM     17  C   UNL     1       2.371   5.152  20.070  0.00  0.00    +0.000 A 
ATOM     18  C   UNL     1       1.847   6.442  20.250  0.00  0.00    +0.000 A 
BRANCH  17  19
ATOM     19  C   UNL     1       2.104   4.023  21.024  0.00  0.00    +0.000 C 
BRANCH  19  20
ATOM     20  O   UNL     1       0.828   3.440  20.804  0.00  0.00    +0.000 OA
ATOM     21  H   UNL     1       0.657   2.838  21.549  0.00  0.00    +0.000 HD
ENDBRANCH  19  20
ENDBRANCH  17  19
ENDBRANCH   3  13
BRANCH   5  22
ATOM     22  N   UNL     1       1.332  12.341  18.934  0.00  0.00    +0.000 N 
ATOM     23  C   UNL     1       1.906  13.301  19.817  0.00  0.00    +0.000 C 
ATOM     24  O   UNL     1       2.331  13.009  20.924  0.00  0.00    +0.000 OA
ATOM     25  H   UNL     1       1.097  12.636  17.982  0.00  0.00    +0.000 HD
BRANCH  23  26
ATOM     26  C   UNL     1       2.055  14.569  19.157  0.00  0.00    +0.000 A 
ATOM     27  C   UNL     1       3.168  15.044  18.436  0.00  0.00    +0.000 A 
ATOM     28  N   UNL     1       2.949  16.225  17.859  0.00  0.00    +0.000 NA
ATOM     29  N   UNL     1       1.678  16.541  18.190  0.00  0.00    +0.000 N 
ATOM     30  C   UNL     1       0.917  17.616  17.753  0.00  0.00    +0.000 A 
ATOM     31  C   UNL     1      -0.346  17.771  18.180  0.00  0.00    +0.000 A 
ATOM     32  C   UNL     1      -0.813  16.751  19.162  0.00  0.00    +0.000 A 
ATOM     33  N   UNL     1      -0.149  15.700  19.556  0.00  0.00    +0.000 NA
ATOM     34  C   UNL     1       1.120  15.580  19.042  0.00  0.00    +0.000 A 
ENDBRANCH  23  26
ENDBRANCH   5  22
TORSDOF 6
ENDMDL
