MODEL 1
REMARK VINA RESULT:      -7.8      0.000      0.000
REMARK  Name = 
REMARK  8 active torsions:
REMARK  status: ('A' for Active; 'I' for Inactive)
REMARK    1  A    between atoms: C_1  and  C_2
REMARK    2  A    between atoms: N_5  and  C_6
REMARK    3  A    between atoms: C_10  and  N_11
REMARK    4  A    between atoms: N_11  and  C_12
REMARK    5  A    between atoms: C_12  and  C_13
REMARK    6  A    between atoms: C_12  and  C_14
REMARK    7  A    between atoms: C_12  and  C_15
REMARK    8  A    between atoms: N_23  and  C_24
REMARK                            x       y       z     vdW  Elec       q    Type
REMARK                         _______ _______ _______ _____ _____    ______ ____
ROOT
ATOM      1  C   UNL     1       3.624   2.016  18.036  0.00  0.00    +0.000 C 
ATOM      2  C   UNL     1       3.397   3.496  17.739  0.00  0.00    +0.000 C 
ATOM      3  C   UNL     1       4.576   4.052  16.922  0.00  0.00    +0.000 C 
ATOM      4  O   UNL     1       5.446   3.331  16.428  0.00  0.00    +0.000 OA
ATOM      5  N   UNL     1       4.498   5.419  16.668  0.00  0.00    +0.000 N 
ATOM      6  C   UNL     1       5.255   5.966  15.557  0.00  0.00    +0.000 C 
ATOM      7  C   UNL     1       3.698   6.260  17.495  0.00  0.00    +0.000 A 
ATOM      8  C   UNL     1       3.667   7.637  17.295  0.00  0.00    +0.000 A 
ATOM      9  C   UNL     1       2.922   8.479  18.134  0.00  0.00    +0.000 A 
ATOM     10  C   UNL     1       2.078   7.977  19.121  0.00  0.00    +0.000 A 
ATOM     11  C   UNL     1       2.181   6.593  19.366  0.00  0.00    +0.000 A 
ATOM     12  C   UNL     1       2.989   5.720  18.591  0.00  0.00    +0.000 A 
ATOM     13  N   UNL     1       3.149   4.341  18.927  0.00  0.00    +0.000 N 
ENDROOT
BRANCH  13  14
ATOM     14  C   UNL     1       2.588   3.784  20.164  0.00  0.00    +0.000 C 
ATOM     15  C   UNL     1       1.326   4.313  20.792  0.00  0.00    +0.000 C 
ATOM     16  C   UNL     1       1.296   3.003  20.091  0.00  0.00    +0.000 C 
ENDBRANCH  13  14
BRANCH  10  17
ATOM     17  N   UNL     1       1.246   8.765  19.921  0.00  0.00    +0.000 N 
ATOM     18  H   UNL     1       0.622   8.174  20.465  0.00  0.00    +0.000 HD
BRANCH  17  19
ATOM     19  C   UNL     1       0.562  10.026  19.507  0.00  0.00    +0.000 C 
ATOM     20  C   UNL     1       1.607  11.102  19.153  0.00  0.00    +0.000 C 
ATOM     21  C   UNL     1      -0.410   9.752  18.334  0.00  0.00    +0.000 C 
BRANCH  19  22
ATOM     22  C   UNL     1      -0.259  10.602  20.704  0.00  0.00    +0.000 A 
ATOM     23  C   UNL     1      -1.073  11.740  20.569  0.00  0.00    +0.000 A 
ATOM     24  C   UNL     1      -1.773  12.265  21.664  0.00  0.00    +0.000 A 
ATOM     25  C   UNL     1      -1.702  11.653  22.911  0.00  0.00    +0.000 A 
ATOM     26  C   UNL     1      -0.956  10.493  23.060  0.00  0.00    +0.000 A 
ATOM     27  C   UNL     1      -0.258   9.973  21.969  0.00  0.00    +0.000 A 
ENDBRANCH  19  22
ENDBRANCH  17  19
ENDBRANCH  10  17
TORSDOF 4
ENDMDL
MODEL 2
REMARK VINA RESULT:      -7.8      2.901      7.933
REMARK  Name = 
REMARK  8 active torsions:
REMARK  status: ('A' for Active; 'I' for Inactive)
REMARK    1  A    between atoms: C_1  and  C_2
REMARK    2  A    between atoms: N_5  and  C_6
REMARK    3  A    between atoms: C_10  and  N_11
REMARK    4  A    between atoms: N_11  and  C_12
REMARK    5  A    between atoms: C_12  and  C_13
REMARK    6  A    between atoms: C_12  and  C_14
REMARK    7  A    between atoms: C_12  and  C_15
REMARK    8  A    between atoms: N_23  and  C_24
REMARK                            x       y       z     vdW  Elec       q    Type
REMARK                         _______ _______ _______ _____ _____    ______ ____
ROOT
ATOM      1  C   UNL     1      -0.810  13.037  20.074  0.00  0.00    +0.000 C 
ATOM      2  C   UNL     1      -0.443  11.568  20.272  0.00  0.00    +0.000 C 
ATOM      3  C   UNL     1      -0.291  11.265  21.772  0.00  0.00    +0.000 C 
ATOM      4  O   UNL     1      -0.627  12.060  22.653  0.00  0.00    +0.000 OA
ATOM      5  N   UNL     1       0.121   9.963  22.050  0.00  0.00    +0.000 N 
ATOM      6  C   UNL     1      -0.143   9.416  23.369  0.00  0.00    +0.000 C 
ATOM      7  C   UNL     1       0.798   9.195  21.059  0.00  0.00    +0.000 A 
ATOM      8  C   UNL     1       1.277   7.921  21.348  0.00  0.00    +0.000 A 
ATOM      9  C   UNL     1       1.988   7.177  20.395  0.00  0.00    +0.000 A 
ATOM     10  C   UNL     1       2.140   7.614  19.081  0.00  0.00    +0.000 A 
ATOM     11  C   UNL     1       1.724   8.936  18.825  0.00  0.00    +0.000 A 
ATOM     12  C   UNL     1       1.074   9.750  19.789  0.00  0.00    +0.000 A 
ATOM     13  N   UNL     1       0.756  11.118  19.531  0.00  0.00    +0.000 N 
ENDROOT
BRANCH  13  14
ATOM     14  C   UNL     1       1.196  11.788  18.302  0.00  0.00    +0.000 C 
ATOM     15  C   UNL     1       1.477  13.267  18.239  0.00  0.00    +0.000 C 
ATOM     16  C   UNL     1       2.613  12.308  18.223  0.00  0.00    +0.000 C 
ENDBRANCH  13  14
BRANCH  10  17
ATOM     17  N   UNL     1       2.758   6.871  18.071  0.00  0.00    +0.000 N 
ATOM     18  H   UNL     1       2.130   6.770  17.278  0.00  0.00    +0.000 HD
BRANCH  17  19
ATOM     19  C   UNL     1       3.583   5.641  18.260  0.00  0.00    +0.000 C 
ATOM     20  C   UNL     1       4.089   5.129  16.898  0.00  0.00    +0.000 C 
ATOM     21  C   UNL     1       4.745   5.918  19.246  0.00  0.00    +0.000 C 
BRANCH  19  22
ATOM     22  C   UNL     1       2.700   4.495  18.848  0.00  0.00    +0.000 A 
ATOM     23  C   UNL     1       2.925   3.966  20.131  0.00  0.00    +0.000 A 
ATOM     24  C   UNL     1       2.146   2.911  20.627  0.00  0.00    +0.000 A 
ATOM     25  C   UNL     1       1.107   2.380  19.870  0.00  0.00    +0.000 A 
ATOM     26  C   UNL     1       0.821   2.923  18.627  0.00  0.00    +0.000 A 
ATOM     27  C   UNL     1       1.600   3.972  18.133  0.00  0.00    +0.000 A 
ENDBRANCH  19  22
ENDBRANCH  17  19
ENDBRANCH  10  17
TORSDOF 4
ENDMDL
MODEL 3
REMARK VINA RESULT:      -7.8      3.042      8.464
REMARK  Name = 
REMARK  8 active torsions:
REMARK  status: ('A' for Active; 'I' for Inactive)
REMARK    1  A    between atoms: C_1  and  C_2
REMARK    2  A    between atoms: N_5  and  C_6
REMARK    3  A    between atoms: C_10  and  N_11
REMARK    4  A    between atoms: N_11  and  C_12
REMARK    5  A    between atoms: C_12  and  C_13
REMARK    6  A    between atoms: C_12  and  C_14
REMARK    7  A    between atoms: C_12  and  C_15
REMARK    8  A    between atoms: N_23  and  C_24
REMARK                            x       y       z     vdW  Elec       q    Type
REMARK                         _______ _______ _______ _____ _____    ______ ____
ROOT
ATOM      1  C   UNL     1      -1.303  13.057  19.907  0.00  0.00    +0.000 C 
ATOM      2  C   UNL     1      -0.844  11.621  20.149  0.00  0.00    +0.000 C 
ATOM      3  C   UNL     1      -0.798  11.335  21.659  0.00  0.00    +0.000 C 
ATOM      4  O   UNL     1      -1.265  12.106  22.501  0.00  0.00    +0.000 OA
ATOM      5  N   UNL     1      -0.314  10.070  21.984  0.00  0.00    +0.000 N 
ATOM      6  C   UNL     1      -0.646   9.508  23.281  0.00  0.00    +0.000 C 
ATOM      7  C   UNL     1       0.501   9.352  21.060  0.00  0.00    +0.000 A 
ATOM      8  C   UNL     1       1.048   8.118  21.401  0.00  0.00    +0.000 A 
ATOM      9  C   UNL     1       1.891   7.427  20.518  0.00  0.00    +0.000 A 
ATOM     10  C   UNL     1       2.119   7.870  19.218  0.00  0.00    +0.000 A 
ATOM     11  C   UNL     1       1.628   9.155  18.914  0.00  0.00    +0.000 A 
ATOM     12  C   UNL     1       0.840   9.922  19.813  0.00  0.00    +0.000 A 
ATOM     13  N   UNL     1       0.442  11.261  19.516  0.00  0.00    +0.000 N 
ENDROOT
BRANCH  13  14
ATOM     14  C   UNL     1       0.934  11.958  18.321  0.00  0.00    +0.000 C 
ATOM     15  C   UNL     1       1.276  13.425  18.321  0.00  0.00    +0.000 C 
ATOM     16  C   UNL     1       2.372  12.422  18.287  0.00  0.00    +0.000 C 
ENDBRANCH  13  14
BRANCH  10  17
ATOM     17  N   UNL     1       2.874   7.173  18.270  0.00  0.00    +0.000 N 
ATOM     18  H   UNL     1       2.625   7.477  17.332  0.00  0.00    +0.000 HD
BRANCH  17  19
ATOM     19  C   UNL     1       3.187   5.713  18.293  0.00  0.00    +0.000 C 
ATOM     20  C   UNL     1       3.685   5.301  19.691  0.00  0.00    +0.000 C 
ATOM     21  C   UNL     1       1.951   4.890  17.850  0.00  0.00    +0.000 C 
BRANCH  19  22
ATOM     22  C   UNL     1       4.361   5.406  17.310  0.00  0.00    +0.000 A 
ATOM     23  C   UNL     1       5.427   6.303  17.121  0.00  0.00    +0.000 A 
ATOM     24  C   UNL     1       6.453   6.027  16.207  0.00  0.00    +0.000 A 
ATOM     25  C   UNL     1       6.456   4.840  15.481  0.00  0.00    +0.000 A 
ATOM     26  C   UNL     1       5.451   3.909  15.691  0.00  0.00    +0.000 A 
ATOM     27  C   UNL     1       4.429   4.186  16.601  0.00  0.00    +0.000 A 
ENDBRANCH  19  22
ENDBRANCH  17  19
ENDBRANCH  10  17
TORSDOF 4
ENDMDL
MODEL 4
REMARK VINA RESULT:      -7.7      0.590      1.173
REMARK  Name = 
REMARK  8 active torsions:
REMARK  status: ('A' for Active; 'I' for Inactive)
REMARK    1  A    between atoms: C_1  and  C_2
REMARK    2  A    between atoms: N_5  and  C_6
REMARK    3  A    between atoms: C_10  and  N_11
REMARK    4  A    between atoms: N_11  and  C_12
REMARK    5  A    between atoms: C_12  and  C_13
REMARK    6  A    between atoms: C_12  and  C_14
REMARK    7  A    between atoms: C_12  and  C_15
REMARK    8  A    between atoms: N_23  and  C_24
REMARK                            x       y       z     vdW  Elec       q    Type
REMARK                         _______ _______ _______ _____ _____    ______ ____
ROOT
ATOM      1  C   UNL     1       2.801   2.183  17.863  0.00  0.00    +0.000 C 
ATOM      2  C   UNL     1       2.796   3.695  17.646  0.00  0.00    +0.000 C 
ATOM      3  C   UNL     1       4.128   4.138  17.018  0.00  0.00    +0.000 C 
ATOM      4  O   UNL     1       4.960   3.339  16.581  0.00  0.00    +0.000 OA
ATOM      5  N   UNL     1       4.249   5.516  16.854  0.00  0.00    +0.000 N 
ATOM      6  C   UNL     1       5.203   6.021  15.883  0.00  0.00    +0.000 C 
ATOM      7  C   UNL     1       3.458   6.406  17.637  0.00  0.00    +0.000 A 
ATOM      8  C   UNL     1       3.621   7.784  17.533  0.00  0.00    +0.000 A 
ATOM      9  C   UNL     1       2.882   8.667  18.334  0.00  0.00    +0.000 A 
ATOM     10  C   UNL     1       1.865   8.224  19.176  0.00  0.00    +0.000 A 
ATOM     11  C   UNL     1       1.767   6.827  19.332  0.00  0.00    +0.000 A 
ATOM     12  C   UNL     1       2.555   5.902  18.599  0.00  0.00    +0.000 A 
ATOM     13  N   UNL     1       2.503   4.498  18.853  0.00  0.00    +0.000 N 
ENDROOT
BRANCH  13  14
ATOM     14  C   UNL     1       1.725   3.950  19.971  0.00  0.00    +0.000 C 
ATOM     15  C   UNL     1       2.184   2.759  20.772  0.00  0.00    +0.000 C 
ATOM     16  C   UNL     1       2.255   4.115  21.377  0.00  0.00    +0.000 C 
ENDBRANCH  13  14
BRANCH  10  17
ATOM     17  N   UNL     1       1.039   9.068  19.925  0.00  0.00    +0.000 N 
ATOM     18  H   UNL     1       0.403   8.518  20.496  0.00  0.00    +0.000 HD
BRANCH  17  19
ATOM     19  C   UNL     1       0.377  10.314  19.436  0.00  0.00    +0.000 C 
ATOM     20  C   UNL     1       1.438  11.379  19.097  0.00  0.00    +0.000 C 
ATOM     21  C   UNL     1      -0.538   9.999  18.227  0.00  0.00    +0.000 C 
BRANCH  19  22
ATOM     22  C   UNL     1      -0.501  10.929  20.571  0.00  0.00    +0.000 A 
ATOM     23  C   UNL     1      -0.332  10.569  21.920  0.00  0.00    +0.000 A 
ATOM     24  C   UNL     1      -1.155  11.103  22.921  0.00  0.00    +0.000 A 
ATOM     25  C   UNL     1      -2.146  12.029  22.607  0.00  0.00    +0.000 A 
ATOM     26  C   UNL     1      -2.295  12.449  21.294  0.00  0.00    +0.000 A 
ATOM     27  C   UNL     1      -1.476  11.914  20.297  0.00  0.00    +0.000 A 
ENDBRANCH  19  22
ENDBRANCH  17  19
ENDBRANCH  10  17
TORSDOF 4
ENDMDL
MODEL 5
REMARK VINA RESULT:      -7.7      3.055      8.499
REMARK  Name = 
REMARK  8 active torsions:
REMARK  status: ('A' for Active; 'I' for Inactive)
REMARK    1  A    between atoms: C_1  and  C_2
REMARK    2  A    between atoms: N_5  and  C_6
REMARK    3  A    between atoms: C_10  and  N_11
REMARK    4  A    between atoms: N_11  and  C_12
REMARK    5  A    between atoms: C_12  and  C_13
REMARK    6  A    between atoms: C_12  and  C_14
REMARK    7  A    between atoms: C_12  and  C_15
REMARK    8  A    between atoms: N_23  and  C_24
REMARK                            x       y       z     vdW  Elec       q    Type
REMARK                         _______ _______ _______ _____ _____    ______ ____
ROOT
ATOM      1  C   UNL     1      -0.660  13.525  19.869  0.00  0.00    +0.000 C 
ATOM      2  C   UNL     1      -0.394  12.039  20.097  0.00  0.00    +0.000 C 
ATOM      3  C   UNL     1      -0.354  11.741  21.605  0.00  0.00    +0.000 C 
ATOM      4  O   UNL     1      -0.695  12.562  22.459  0.00  0.00    +0.000 OA
ATOM      5  N   UNL     1      -0.038  10.420  21.916  0.00  0.00    +0.000 N 
ATOM      6  C   UNL     1      -0.414   9.900  23.218  0.00  0.00    +0.000 C 
ATOM      7  C   UNL     1       0.653   9.604  20.972  0.00  0.00    +0.000 A 
ATOM      8  C   UNL     1       1.036   8.306  21.298  0.00  0.00    +0.000 A 
ATOM      9  C   UNL     1       1.759   7.513  20.395  0.00  0.00    +0.000 A 
ATOM     10  C   UNL     1       2.018   7.928  19.091  0.00  0.00    +0.000 A 
ATOM     11  C   UNL     1       1.697   9.270  18.802  0.00  0.00    +0.000 A 
ATOM     12  C   UNL     1       1.039  10.130  19.720  0.00  0.00    +0.000 A 
ATOM     13  N   UNL     1       0.819  11.512  19.435  0.00  0.00    +0.000 N 
ENDROOT
BRANCH  13  14
ATOM     14  C   UNL     1       1.374  12.144  18.232  0.00  0.00    +0.000 C 
ATOM     15  C   UNL     1       1.715  13.610  18.168  0.00  0.00    +0.000 C 
ATOM     16  C   UNL     1       2.812  12.610  18.251  0.00  0.00    +0.000 C 
ENDBRANCH  13  14
BRANCH  10  17
ATOM     17  N   UNL     1       2.652   7.141  18.125  0.00  0.00    +0.000 N 
ATOM     18  H   UNL     1       2.245   7.316  17.210  0.00  0.00    +0.000 HD
BRANCH  17  19
ATOM     19  C   UNL     1       3.039   5.707  18.272  0.00  0.00    +0.000 C 
ATOM     20  C   UNL     1       3.473   5.423  19.724  0.00  0.00    +0.000 C 
ATOM     21  C   UNL     1       1.879   4.786  17.821  0.00  0.00    +0.000 C 
BRANCH  19  22
ATOM     22  C   UNL     1       4.286   5.400  17.384  0.00  0.00    +0.000 A 
ATOM     23  C   UNL     1       4.397   4.211  16.641  0.00  0.00    +0.000 A 
ATOM     24  C   UNL     1       5.541   3.936  15.880  0.00  0.00    +0.000 A 
ATOM     25  C   UNL     1       6.587   4.851  15.816  0.00  0.00    +0.000 A 
ATOM     26  C   UNL     1       6.480   6.059  16.488  0.00  0.00    +0.000 A 
ATOM     27  C   UNL     1       5.341   6.330  17.248  0.00  0.00    +0.000 A 
ENDBRANCH  19  22
ENDBRANCH  17  19
ENDBRANCH  10  17
TORSDOF 4
ENDMDL
MODEL 6
REMARK VINA RESULT:      -7.7      1.630      2.372
REMARK  Name = 
REMARK  8 active torsions:
REMARK  status: ('A' for Active; 'I' for Inactive)
REMARK    1  A    between atoms: C_1  and  C_2
REMARK    2  A    between atoms: N_5  and  C_6
REMARK    3  A    between atoms: C_10  and  N_11
REMARK    4  A    between atoms: N_11  and  C_12
REMARK    5  A    between atoms: C_12  and  C_13
REMARK    6  A    between atoms: C_12  and  C_14
REMARK    7  A    between atoms: C_12  and  C_15
REMARK    8  A    between atoms: N_23  and  C_24
REMARK                            x       y       z     vdW  Elec       q    Type
REMARK                         _______ _______ _______ _____ _____    ______ ____
ROOT
ATOM      1  C   UNL     1       3.547   2.208  18.446  0.00  0.00    +0.000 C 
ATOM      2  C   UNL     1       3.656   3.659  17.985  0.00  0.00    +0.000 C 
ATOM      3  C   UNL     1       5.095   4.164  18.184  0.00  0.00    +0.000 C 
ATOM      4  O   UNL     1       6.032   3.418  18.477  0.00  0.00    +0.000 OA
ATOM      5  N   UNL     1       5.276   5.508  17.864  0.00  0.00    +0.000 N 
ATOM      6  C   UNL     1       6.615   5.979  17.559  0.00  0.00    +0.000 C 
ATOM      7  C   UNL     1       4.164   6.401  17.851  0.00  0.00    +0.000 A 
ATOM      8  C   UNL     1       4.342   7.758  17.602  0.00  0.00    +0.000 A 
ATOM      9  C   UNL     1       3.262   8.653  17.636  0.00  0.00    +0.000 A 
ATOM     10  C   UNL     1       1.948   8.217  17.790  0.00  0.00    +0.000 A 
ATOM     11  C   UNL     1       1.791   6.856  18.121  0.00  0.00    +0.000 A 
ATOM     12  C   UNL     1       2.871   5.936  18.178  0.00  0.00    +0.000 A 
ATOM     13  N   UNL     1       2.692   4.588  18.614  0.00  0.00    +0.000 N 
ENDROOT
BRANCH  13  14
ATOM     14  C   UNL     1       1.407   4.119  19.146  0.00  0.00    +0.000 C 
ATOM     15  C   UNL     1       1.303   2.994  20.142  0.00  0.00    +0.000 C 
ATOM     16  C   UNL     1       1.075   4.392  20.595  0.00  0.00    +0.000 C 
ENDBRANCH  13  14
BRANCH  10  17
ATOM     17  N   UNL     1       0.830   9.054  17.738  0.00  0.00    +0.000 N 
ATOM     18  H   UNL     1       0.709   9.419  16.797  0.00  0.00    +0.000 HD
BRANCH  17  19
ATOM     19  C   UNL     1       0.443  10.072  18.760  0.00  0.00    +0.000 C 
ATOM     20  C   UNL     1       0.478   9.448  20.168  0.00  0.00    +0.000 C 
ATOM     21  C   UNL     1       1.358  11.317  18.653  0.00  0.00    +0.000 C 
BRANCH  19  22
ATOM     22  C   UNL     1      -1.033  10.524  18.527  0.00  0.00    +0.000 A 
ATOM     23  C   UNL     1      -1.612  11.579  19.254  0.00  0.00    +0.000 A 
ATOM     24  C   UNL     1      -2.951  11.945  19.058  0.00  0.00    +0.000 A 
ATOM     25  C   UNL     1      -3.735  11.290  18.113  0.00  0.00    +0.000 A 
ATOM     26  C   UNL     1      -3.173  10.288  17.337  0.00  0.00    +0.000 A 
ATOM     27  C   UNL     1      -1.839   9.922  17.535  0.00  0.00    +0.000 A 
ENDBRANCH  19  22
ENDBRANCH  17  19
ENDBRANCH  10  17
TORSDOF 4
ENDMDL
MODEL 7
REMARK VINA RESULT:      -7.5      1.282      2.242
REMARK  Name = 
REMARK  8 active torsions:
REMARK  status: ('A' for Active; 'I' for Inactive)
REMARK    1  A    between atoms: C_1  and  C_2
REMARK    2  A    between atoms: N_5  and  C_6
REMARK    3  A    between atoms: C_10  and  N_11
REMARK    4  A    between atoms: N_11  and  C_12
REMARK    5  A    between atoms: C_12  and  C_13
REMARK    6  A    between atoms: C_12  and  C_14
REMARK    7  A    between atoms: C_12  and  C_15
REMARK    8  A    between atoms: N_23  and  C_24
REMARK                            x       y       z     vdW  Elec       q    Type
REMARK                         _______ _______ _______ _____ _____    ______ ____
ROOT
ATOM      1  C   UNL     1       2.722   2.170  17.938  0.00  0.00    +0.000 C 
ATOM      2  C   UNL     1       2.744   3.675  17.684  0.00  0.00    +0.000 C 
ATOM      3  C   UNL     1       4.102   4.085  17.089  0.00  0.00    +0.000 C 
ATOM      4  O   UNL     1       4.937   3.265  16.701  0.00  0.00    +0.000 OA
ATOM      5  N   UNL     1       4.248   5.457  16.895  0.00  0.00    +0.000 N 
ATOM      6  C   UNL     1       5.239   5.925  15.944  0.00  0.00    +0.000 C 
ATOM      7  C   UNL     1       3.443   6.377  17.629  0.00  0.00    +0.000 A 
ATOM      8  C   UNL     1       3.628   7.750  17.495  0.00  0.00    +0.000 A 
ATOM      9  C   UNL     1       2.876   8.662  18.250  0.00  0.00    +0.000 A 
ATOM     10  C   UNL     1       1.826   8.254  19.068  0.00  0.00    +0.000 A 
ATOM     11  C   UNL     1       1.703   6.863  19.256  0.00  0.00    +0.000 A 
ATOM     12  C   UNL     1       2.502   5.909  18.573  0.00  0.00    +0.000 A 
ATOM     13  N   UNL     1       2.423   4.512  18.860  0.00  0.00    +0.000 N 
ENDROOT
BRANCH  13  14
ATOM     14  C   UNL     1       1.601   4.003  19.965  0.00  0.00    +0.000 C 
ATOM     15  C   UNL     1       1.906   2.709  20.673  0.00  0.00    +0.000 C 
ATOM     16  C   UNL     1       2.180   3.998  21.361  0.00  0.00    +0.000 C 
ENDBRANCH  13  14
BRANCH  10  17
ATOM     17  N   UNL     1       0.987   9.127  19.767  0.00  0.00    +0.000 N 
ATOM     18  H   UNL     1       0.142   8.642  20.058  0.00  0.00    +0.000 HD
BRANCH  17  19
ATOM     19  C   UNL     1       0.692  10.545  19.405  0.00  0.00    +0.000 C 
ATOM     20  C   UNL     1       0.603  11.409  20.678  0.00  0.00    +0.000 C 
ATOM     21  C   UNL     1       1.754  11.080  18.412  0.00  0.00    +0.000 C 
BRANCH  19  22
ATOM     22  C   UNL     1      -0.710  10.638  18.724  0.00  0.00    +0.000 A 
ATOM     23  C   UNL     1      -1.695  11.537  19.167  0.00  0.00    +0.000 A 
ATOM     24  C   UNL     1      -2.962  11.579  18.568  0.00  0.00    +0.000 A 
ATOM     25  C   UNL     1      -3.266  10.748  17.494  0.00  0.00    +0.000 A 
ATOM     26  C   UNL     1      -2.295   9.894  16.995  0.00  0.00    +0.000 A 
ATOM     27  C   UNL     1      -1.034   9.852  17.595  0.00  0.00    +0.000 A 
ENDBRANCH  19  22
ENDBRANCH  17  19
ENDBRANCH  10  17
TORSDOF 4
ENDMDL
MODEL 8
REMARK VINA RESULT:      -7.5      4.512      7.674
REMARK  Name = 
REMARK  8 active torsions:
REMARK  status: ('A' for Active; 'I' for Inactive)
REMARK    1  A    between atoms: C_1  and  C_2
REMARK    2  A    between atoms: N_5  and  C_6
REMARK    3  A    between atoms: C_10  and  N_11
REMARK    4  A    between atoms: N_11  and  C_12
REMARK    5  A    between atoms: C_12  and  C_13
REMARK    6  A    between atoms: C_12  and  C_14
REMARK    7  A    between atoms: C_12  and  C_15
REMARK    8  A    between atoms: N_23  and  C_24
REMARK                            x       y       z     vdW  Elec       q    Type
REMARK                         _______ _______ _______ _____ _____    ______ ____
ROOT
ATOM      1  C   UNL     1       1.320   9.268  18.611  0.00  0.00    +0.000 C 
ATOM      2  C   UNL     1       0.618  10.128  19.660  0.00  0.00    +0.000 C 
ATOM      3  C   UNL     1       0.504   9.350  20.982  0.00  0.00    +0.000 C 
ATOM      4  O   UNL     1       1.086   8.282  21.183  0.00  0.00    +0.000 OA
ATOM      5  N   UNL     1      -0.195  10.025  21.981  0.00  0.00    +0.000 N 
ATOM      6  C   UNL     1       0.019   9.639  23.364  0.00  0.00    +0.000 C 
ATOM      7  C   UNL     1      -1.109  11.065  21.642  0.00  0.00    +0.000 A 
ATOM      8  C   UNL     1      -1.864  11.698  22.625  0.00  0.00    +0.000 A 
ATOM      9  C   UNL     1      -2.803  12.688  22.296  0.00  0.00    +0.000 A 
ATOM     10  C   UNL     1      -2.935  13.177  21.000  0.00  0.00    +0.000 A 
ATOM     11  C   UNL     1      -2.226  12.474  20.005  0.00  0.00    +0.000 A 
ATOM     12  C   UNL     1      -1.329  11.411  20.291  0.00  0.00    +0.000 A 
ATOM     13  N   UNL     1      -0.703  10.653  19.255  0.00  0.00    +0.000 N 
ENDROOT
BRANCH  13  14
ATOM     14  C   UNL     1      -1.052  10.851  17.843  0.00  0.00    +0.000 C 
ATOM     15  C   UNL     1      -1.592   9.743  16.977  0.00  0.00    +0.000 C 
ATOM     16  C   UNL     1      -2.509  10.818  17.440  0.00  0.00    +0.000 C 
ENDBRANCH  13  14
BRANCH  10  17
ATOM     17  N   UNL     1      -3.787  14.225  20.636  0.00  0.00    +0.000 N 
ATOM     18  H   UNL     1      -3.426  15.107  20.989  0.00  0.00    +0.000 HD
BRANCH  17  19
ATOM     19  C   UNL     1      -5.280  14.202  20.681  0.00  0.00    +0.000 C 
ATOM     20  C   UNL     1      -5.764  14.152  22.142  0.00  0.00    +0.000 C 
ATOM     21  C   UNL     1      -5.859  15.418  19.917  0.00  0.00    +0.000 C 
BRANCH  19  22
ATOM     22  C   UNL     1      -5.811  12.898  20.007  0.00  0.00    +0.000 A 
ATOM     23  C   UNL     1      -6.467  11.894  20.742  0.00  0.00    +0.000 A 
ATOM     24  C   UNL     1      -6.903  10.713  20.126  0.00  0.00    +0.000 A 
ATOM     25  C   UNL     1      -6.723  10.516  18.761  0.00  0.00    +0.000 A 
ATOM     26  C   UNL     1      -6.135  11.514  17.999  0.00  0.00    +0.000 A 
ATOM     27  C   UNL     1      -5.699  12.690  18.614  0.00  0.00    +0.000 A 
ENDBRANCH  19  22
ENDBRANCH  17  19
ENDBRANCH  10  17
TORSDOF 4
ENDMDL
MODEL 9
REMARK VINA RESULT:      -7.5      1.178      2.344
REMARK  Name = 
REMARK  8 active torsions:
REMARK  status: ('A' for Active; 'I' for Inactive)
REMARK    1  A    between atoms: C_1  and  C_2
REMARK    2  A    between atoms: N_5  and  C_6
REMARK    3  A    between atoms: C_10  and  N_11
REMARK    4  A    between atoms: N_11  and  C_12
REMARK    5  A    between atoms: C_12  and  C_13
REMARK    6  A    between atoms: C_12  and  C_14
REMARK    7  A    between atoms: C_12  and  C_15
REMARK    8  A    between atoms: N_23  and  C_24
REMARK                            x       y       z     vdW  Elec       q    Type
REMARK                         _______ _______ _______ _____ _____    ______ ____
ROOT
ATOM      1  C   UNL     1       2.744   2.097  17.939  0.00  0.00    +0.000 C 
ATOM      2  C   UNL     1       2.778   3.605  17.706  0.00  0.00    +0.000 C 
ATOM      3  C   UNL     1       4.117   4.005  17.062  0.00  0.00    +0.000 C 
ATOM      4  O   UNL     1       4.923   3.179  16.628  0.00  0.00    +0.000 OA
ATOM      5  N   UNL     1       4.274   5.378  16.882  0.00  0.00    +0.000 N 
ATOM      6  C   UNL     1       5.232   5.846  15.898  0.00  0.00    +0.000 C 
ATOM      7  C   UNL     1       3.513   6.298  17.661  0.00  0.00    +0.000 A 
ATOM      8  C   UNL     1       3.712   7.670  17.540  0.00  0.00    +0.000 A 
ATOM      9  C   UNL     1       3.004   8.581  18.337  0.00  0.00    +0.000 A 
ATOM     10  C   UNL     1       1.982   8.175  19.192  0.00  0.00    +0.000 A 
ATOM     11  C   UNL     1       1.847   6.783  19.364  0.00  0.00    +0.000 A 
ATOM     12  C   UNL     1       2.604   5.829  18.635  0.00  0.00    +0.000 A 
ATOM     13  N   UNL     1       2.516   4.429  18.905  0.00  0.00    +0.000 N 
ENDROOT
BRANCH  13  14
ATOM     14  C   UNL     1       1.733   3.915  20.036  0.00  0.00    +0.000 C 
ATOM     15  C   UNL     1       2.146   2.699  20.823  0.00  0.00    +0.000 C 
ATOM     16  C   UNL     1       2.296   4.047  21.432  0.00  0.00    +0.000 C 
ENDBRANCH  13  14
BRANCH  10  17
ATOM     17  N   UNL     1       1.186   9.049  19.937  0.00  0.00    +0.000 N 
ATOM     18  H   UNL     1       0.657   8.531  20.635  0.00  0.00    +0.000 HD
BRANCH  17  19
ATOM     19  C   UNL     1       0.385  10.189  19.398  0.00  0.00    +0.000 C 
ATOM     20  C   UNL     1       0.030   9.933  17.921  0.00  0.00    +0.000 C 
ATOM     21  C   UNL     1      -0.875  10.421  20.268  0.00  0.00    +0.000 C 
BRANCH  19  22
ATOM     22  C   UNL     1       1.243  11.494  19.415  0.00  0.00    +0.000 A 
ATOM     23  C   UNL     1       1.890  11.974  18.262  0.00  0.00    +0.000 A 
ATOM     24  C   UNL     1       2.687  13.126  18.305  0.00  0.00    +0.000 A 
ATOM     25  C   UNL     1       2.834  13.843  19.488  0.00  0.00    +0.000 A 
ATOM     26  C   UNL     1       2.158  13.429  20.626  0.00  0.00    +0.000 A 
ATOM     27  C   UNL     1       1.366  12.280  20.582  0.00  0.00    +0.000 A 
ENDBRANCH  19  22
ENDBRANCH  17  19
ENDBRANCH  10  17
TORSDOF 4
ENDMDL
