MODEL 1
REMARK VINA RESULT:      -7.6      0.000      0.000
REMARK  Name = 
REMARK  8 active torsions:
REMARK  status: ('A' for Active; 'I' for Inactive)
REMARK    1  A    between atoms: C_1  and  C_2
REMARK    2  A    between atoms: C_2  and  O_4
REMARK    3  A    between atoms: O_4  and  C_5
REMARK    4  A    between atoms: C_6  and  C_7
REMARK    5  A    between atoms: N_9  and  C_10
REMARK    6  A    between atoms: C_15  and  O_16
REMARK    7  A    between atoms: C_18  and  C_19
REMARK    8  A    between atoms: C_19  and  C_20
REMARK                            x       y       z     vdW  Elec       q    Type
REMARK                         _______ _______ _______ _____ _____    ______ ____
ROOT
ATOM      1  C   UNL     1       2.018   7.475  20.214  0.00  0.00    +0.000 A 
ATOM      2  C   UNL     1       2.277   7.636  18.852  0.00  0.00    +0.000 A 
ATOM      3  C   UNL     1       1.805   8.784  18.196  0.00  0.00    +0.000 A 
ATOM      4  C   UNL     1       0.942   9.688  18.846  0.00  0.00    +0.000 A 
ATOM      5  C   UNL     1       0.564   9.452  20.205  0.00  0.00    +0.000 A 
ATOM      6  C   UNL     1      -0.360  10.279  20.887  0.00  0.00    +0.000 A 
ATOM      7  C   UNL     1      -0.734  10.052  22.211  0.00  0.00    +0.000 A 
ATOM      8  C   UNL     1      -0.182   8.982  22.894  0.00  0.00    +0.000 A 
ATOM      9  C   UNL     1       0.744   8.151  22.246  0.00  0.00    +0.000 A 
ATOM     10  C   UNL     1       1.124   8.351  20.897  0.00  0.00    +0.000 A 
ENDROOT
BRANCH   2  11
ATOM     11  C   UNL     1       2.869   6.538  18.013  0.00  0.00    +0.000 C 
ATOM     12  O   UNL     1       2.143   5.635  17.605  0.00  0.00    +0.000 OA
ATOM     13  N   UNL     1       4.224   6.573  17.742  0.00  0.00    +0.000 N 
ATOM     14  H   UNL     1       4.795   7.310  18.130  0.00  0.00    +0.000 HD
BRANCH  13  15
ATOM     15  C   UNL     1       4.867   5.542  16.915  0.00  0.00    +0.000 C 
ATOM     16  C   UNL     1       5.021   6.051  15.473  0.00  0.00    +0.000 C 
ATOM     17  C   UNL     1       5.824   5.098  14.591  0.00  0.00    +0.000 C 
ATOM     18  C   UNL     1       7.181   4.779  15.204  0.00  0.00    +0.000 C 
ATOM     19  C   UNL     1       7.019   4.202  16.600  0.00  0.00    +0.000 C 
ATOM     20  C   UNL     1       6.230   5.127  17.523  0.00  0.00    +0.000 C 
BRANCH  20  21
ATOM     21  O   UNL     1       6.081   4.440  18.768  0.00  0.00    +0.000 OA
ATOM     22  H   UNL     1       6.967   4.209  19.108  0.00  0.00    +0.000 HD
ENDBRANCH  20  21
ENDBRANCH  13  15
ENDBRANCH   2  11
BRANCH   1  23
ATOM     23  O   UNL     1       2.560   6.373  20.916  0.00  0.00    +0.000 OA
BRANCH  23  25
ATOM     24  C   UNL     1       2.643   4.086  21.518  0.00  0.00    +0.000 C 
ATOM     25  C   UNL     1       1.833   5.177  20.883  0.00  0.00    +0.000 C 
ATOM     26  O   UNL     1       0.697   5.030  20.456  0.00  0.00    +0.000 OA
ENDBRANCH  23  25
ENDBRANCH   1  23
BRANCH   4  27
ATOM     27  C   UNL     1       0.385  10.857  18.046  0.00  0.00    +0.000 C 
BRANCH  27  28
ATOM     28  C   UNL     1      -1.113  10.884  17.876  0.00  0.00    +0.000 A 
ATOM     29  C   UNL     1      -1.791   9.917  17.126  0.00  0.00    +0.000 A 
ATOM     30  C   UNL     1      -3.148  10.074  16.857  0.00  0.00    +0.000 A 
ATOM     31  C   UNL     1      -3.789  11.186  17.373  0.00  0.00    +0.000 A 
ATOM     32 CL   UNL     1      -5.440  11.487  17.023  0.00  0.00    +0.000 Cl
ATOM     33  N   UNL     1      -3.190  12.122  18.133  0.00  0.00    +0.000 NA
ATOM     34  C   UNL     1      -1.868  11.951  18.363  0.00  0.00    +0.000 A 
ENDBRANCH  27  28
ENDBRANCH   4  27
TORSDOF 7
ENDMDL
MODEL 2
REMARK VINA RESULT:      -7.6      2.582      3.089
REMARK  Name = 
REMARK  8 active torsions:
REMARK  status: ('A' for Active; 'I' for Inactive)
REMARK    1  A    between atoms: C_1  and  C_2
REMARK    2  A    between atoms: C_2  and  O_4
REMARK    3  A    between atoms: O_4  and  C_5
REMARK    4  A    between atoms: C_6  and  C_7
REMARK    5  A    between atoms: N_9  and  C_10
REMARK    6  A    between atoms: C_15  and  O_16
REMARK    7  A    between atoms: C_18  and  C_19
REMARK    8  A    between atoms: C_19  and  C_20
REMARK                            x       y       z     vdW  Elec       q    Type
REMARK                         _______ _______ _______ _____ _____    ______ ____
ROOT
ATOM      1  C   UNL     1       1.902   7.797  20.283  0.00  0.00    +0.000 A 
ATOM      2  C   UNL     1       2.225   7.972  18.935  0.00  0.00    +0.000 A 
ATOM      3  C   UNL     1       1.824   9.149  18.283  0.00  0.00    +0.000 A 
ATOM      4  C   UNL     1       0.969  10.074  18.914  0.00  0.00    +0.000 A 
ATOM      5  C   UNL     1       0.526   9.828  20.251  0.00  0.00    +0.000 A 
ATOM      6  C   UNL     1      -0.395  10.678  20.911  0.00  0.00    +0.000 A 
ATOM      7  C   UNL     1      -0.833  10.442  22.212  0.00  0.00    +0.000 A 
ATOM      8  C   UNL     1      -0.352   9.339  22.897  0.00  0.00    +0.000 A 
ATOM      9  C   UNL     1       0.569   8.485  22.272  0.00  0.00    +0.000 A 
ATOM     10  C   UNL     1       1.013   8.695  20.945  0.00  0.00    +0.000 A 
ENDROOT
BRANCH   2  11
ATOM     11  C   UNL     1       2.810   6.868  18.101  0.00  0.00    +0.000 C 
ATOM     12  O   UNL     1       2.058   6.094  17.514  0.00  0.00    +0.000 OA
ATOM     13  N   UNL     1       4.185   6.749  18.036  0.00  0.00    +0.000 N 
ATOM     14  H   UNL     1       4.770   7.379  18.566  0.00  0.00    +0.000 HD
BRANCH  13  15
ATOM     15  C   UNL     1       4.827   5.703  17.227  0.00  0.00    +0.000 C 
ATOM     16  C   UNL     1       5.023   6.205  15.787  0.00  0.00    +0.000 C 
ATOM     17  C   UNL     1       5.827   5.233  14.926  0.00  0.00    +0.000 C 
ATOM     18  C   UNL     1       7.163   4.889  15.571  0.00  0.00    +0.000 C 
ATOM     19  C   UNL     1       6.959   4.320  16.964  0.00  0.00    +0.000 C 
ATOM     20  C   UNL     1       6.167   5.264  17.866  0.00  0.00    +0.000 C 
BRANCH  20  21
ATOM     21  O   UNL     1       5.977   4.583  19.109  0.00  0.00    +0.000 OA
ATOM     22  H   UNL     1       5.420   3.796  18.956  0.00  0.00    +0.000 HD
ENDBRANCH  20  21
ENDBRANCH  13  15
ENDBRANCH   2  11
BRANCH   1  23
ATOM     23  O   UNL     1       2.372   6.663  20.985  0.00  0.00    +0.000 OA
BRANCH  23  25
ATOM     24  C   UNL     1       2.797   4.350  20.711  0.00  0.00    +0.000 C 
ATOM     25  C   UNL     1       1.762   5.436  20.694  0.00  0.00    +0.000 C 
ATOM     26  O   UNL     1       0.570   5.246  20.503  0.00  0.00    +0.000 OA
ENDBRANCH  23  25
ENDBRANCH   1  23
BRANCH   4  27
ATOM     27  C   UNL     1       0.492  11.278  18.115  0.00  0.00    +0.000 C 
BRANCH  27  28
ATOM     28  C   UNL     1       1.179  12.585  18.420  0.00  0.00    +0.000 A 
ATOM     29  C   UNL     1       0.471  13.711  18.852  0.00  0.00    +0.000 A 
ATOM     30  C   UNL     1       1.120  14.939  18.960  0.00  0.00    +0.000 A 
ATOM     31  C   UNL     1       2.469  14.990  18.656  0.00  0.00    +0.000 A 
ATOM     32 CL   UNL     1       3.319  16.479  18.694  0.00  0.00    +0.000 Cl
ATOM     33  N   UNL     1       3.202  13.928  18.276  0.00  0.00    +0.000 NA
ATOM     34  C   UNL     1       2.540  12.753  18.163  0.00  0.00    +0.000 A 
ENDBRANCH  27  28
ENDBRANCH   4  27
TORSDOF 7
ENDMDL
MODEL 3
REMARK VINA RESULT:      -7.5      4.331      5.711
REMARK  Name = 
REMARK  8 active torsions:
REMARK  status: ('A' for Active; 'I' for Inactive)
REMARK    1  A    between atoms: C_1  and  C_2
REMARK    2  A    between atoms: C_2  and  O_4
REMARK    3  A    between atoms: O_4  and  C_5
REMARK    4  A    between atoms: C_6  and  C_7
REMARK    5  A    between atoms: N_9  and  C_10
REMARK    6  A    between atoms: C_15  and  O_16
REMARK    7  A    between atoms: C_18  and  C_19
REMARK    8  A    between atoms: C_19  and  C_20
REMARK                            x       y       z     vdW  Elec       q    Type
REMARK                         _______ _______ _______ _____ _____    ______ ____
ROOT
ATOM      1  C   UNL     1       0.319  10.723  19.872  0.00  0.00    +0.000 A 
ATOM      2  C   UNL     1       1.335  10.512  18.938  0.00  0.00    +0.000 A 
ATOM      3  C   UNL     1       2.019  11.619  18.409  0.00  0.00    +0.000 A 
ATOM      4  C   UNL     1       1.591  12.934  18.680  0.00  0.00    +0.000 A 
ATOM      5  C   UNL     1       0.462  13.148  19.531  0.00  0.00    +0.000 A 
ATOM      6  C   UNL     1      -0.064  14.439  19.778  0.00  0.00    +0.000 A 
ATOM      7  C   UNL     1      -1.166  14.654  20.604  0.00  0.00    +0.000 A 
ATOM      8  C   UNL     1      -1.773  13.570  21.214  0.00  0.00    +0.000 A 
ATOM      9  C   UNL     1      -1.268  12.280  20.995  0.00  0.00    +0.000 A 
ATOM     10  C   UNL     1      -0.162  12.036  20.147  0.00  0.00    +0.000 A 
ENDROOT
BRANCH   2  11
ATOM     11  C   UNL     1       1.595   9.165  18.325  0.00  0.00    +0.000 C 
ATOM     12  O   UNL     1       1.157   8.919  17.203  0.00  0.00    +0.000 OA
ATOM     13  N   UNL     1       2.309   8.234  19.056  0.00  0.00    +0.000 N 
ATOM     14  H   UNL     1       2.616   8.459  19.991  0.00  0.00    +0.000 HD
BRANCH  13  15
ATOM     15  C   UNL     1       2.614   6.903  18.513  0.00  0.00    +0.000 C 
ATOM     16  C   UNL     1       3.838   6.985  17.587  0.00  0.00    +0.000 C 
ATOM     17  C   UNL     1       4.312   5.615  17.110  0.00  0.00    +0.000 C 
ATOM     18  C   UNL     1       4.576   4.676  18.280  0.00  0.00    +0.000 C 
ATOM     19  C   UNL     1       3.337   4.537  19.148  0.00  0.00    +0.000 C 
ATOM     20  C   UNL     1       2.831   5.884  19.658  0.00  0.00    +0.000 C 
BRANCH  20  21
ATOM     21  O   UNL     1       1.630   5.623  20.388  0.00  0.00    +0.000 OA
ATOM     22  H   UNL     1       1.538   6.292  21.094  0.00  0.00    +0.000 HD
ENDBRANCH  20  21
ENDBRANCH  13  15
ENDBRANCH   2  11
BRANCH   1  23
ATOM     23  O   UNL     1      -0.322   9.620  20.485  0.00  0.00    +0.000 OA
BRANCH  23  25
ATOM     24  C   UNL     1      -0.526   9.485  22.839  0.00  0.00    +0.000 C 
ATOM     25  C   UNL     1       0.279   9.095  21.636  0.00  0.00    +0.000 C 
ATOM     26  O   UNL     1       1.274   8.385  21.675  0.00  0.00    +0.000 OA
ENDBRANCH  23  25
ENDBRANCH   1  23
BRANCH   4  27
ATOM     27  C   UNL     1       2.314  14.084  17.995  0.00  0.00    +0.000 C 
BRANCH  27  28
ATOM     28  C   UNL     1       3.591  14.544  18.652  0.00  0.00    +0.000 A 
ATOM     29  C   UNL     1       4.746  14.822  17.913  0.00  0.00    +0.000 A 
ATOM     30  C   UNL     1       5.945  15.081  18.572  0.00  0.00    +0.000 A 
ATOM     31  C   UNL     1       5.940  15.080  19.956  0.00  0.00    +0.000 A 
ATOM     32 CL   UNL     1       7.391  15.317  20.838  0.00  0.00    +0.000 Cl
ATOM     33  N   UNL     1       4.847  14.860  20.710  0.00  0.00    +0.000 NA
ATOM     34  C   UNL     1       3.702  14.594  20.042  0.00  0.00    +0.000 A 
ENDBRANCH  27  28
ENDBRANCH   4  27
TORSDOF 7
ENDMDL
MODEL 4
REMARK VINA RESULT:      -7.4      5.164      9.913
REMARK  Name = 
REMARK  8 active torsions:
REMARK  status: ('A' for Active; 'I' for Inactive)
REMARK    1  A    between atoms: C_1  and  C_2
REMARK    2  A    between atoms: C_2  and  O_4
REMARK    3  A    between atoms: O_4  and  C_5
REMARK    4  A    between atoms: C_6  and  C_7
REMARK    5  A    between atoms: N_9  and  C_10
REMARK    6  A    between atoms: C_15  and  O_16
REMARK    7  A    between atoms: C_18  and  C_19
REMARK    8  A    between atoms: C_19  and  C_20
REMARK                            x       y       z     vdW  Elec       q    Type
REMARK                         _______ _______ _______ _____ _____    ______ ____
ROOT
ATOM      1  C   UNL     1      -2.335  12.650  20.039  0.00  0.00    +0.000 A 
ATOM      2  C   UNL     1      -1.119  12.801  20.708  0.00  0.00    +0.000 A 
ATOM      3  C   UNL     1       0.035  12.206  20.173  0.00  0.00    +0.000 A 
ATOM      4  C   UNL     1      -0.043  11.331  19.072  0.00  0.00    +0.000 A 
ATOM      5  C   UNL     1      -1.313  11.068  18.468  0.00  0.00    +0.000 A 
ATOM      6  C   UNL     1      -1.468  10.139  17.410  0.00  0.00    +0.000 A 
ATOM      7  C   UNL     1      -2.703   9.876  16.820  0.00  0.00    +0.000 A 
ATOM      8  C   UNL     1      -3.825  10.546  17.275  0.00  0.00    +0.000 A 
ATOM      9  C   UNL     1      -3.699  11.479  18.315  0.00  0.00    +0.000 A 
ATOM     10  C   UNL     1      -2.460  11.749  18.942  0.00  0.00    +0.000 A 
ENDROOT
BRANCH   2  11
ATOM     11  C   UNL     1      -1.029  13.406  22.081  0.00  0.00    +0.000 C 
ATOM     12  O   UNL     1      -0.437  12.798  22.969  0.00  0.00    +0.000 OA
ATOM     13  N   UNL     1      -1.633  14.629  22.303  0.00  0.00    +0.000 N 
ATOM     14  H   UNL     1      -2.146  15.078  21.559  0.00  0.00    +0.000 HD
BRANCH  13  15
ATOM     15  C   UNL     1      -1.572  15.288  23.616  0.00  0.00    +0.000 C 
ATOM     16  C   UNL     1      -0.598  16.476  23.557  0.00  0.00    +0.000 C 
ATOM     17  C   UNL     1      -0.600  17.306  24.838  0.00  0.00    +0.000 C 
ATOM     18  C   UNL     1      -2.005  17.769  25.202  0.00  0.00    +0.000 C 
ATOM     19  C   UNL     1      -2.945  16.583  25.336  0.00  0.00    +0.000 C 
ATOM     20  C   UNL     1      -2.984  15.728  24.073  0.00  0.00    +0.000 C 
BRANCH  20  21
ATOM     21  O   UNL     1      -3.834  14.614  24.355  0.00  0.00    +0.000 OA
ATOM     22  H   UNL     1      -3.393  13.796  24.056  0.00  0.00    +0.000 HD
ENDBRANCH  20  21
ENDBRANCH  13  15
ENDBRANCH   2  11
BRANCH   1  23
ATOM     23  O   UNL     1      -3.492  13.315  20.509  0.00  0.00    +0.000 OA
BRANCH  23  25
ATOM     24  C   UNL     1      -5.653  12.431  20.900  0.00  0.00    +0.000 C 
ATOM     25  C   UNL     1      -4.275  12.640  21.454  0.00  0.00    +0.000 C 
ATOM     26  O   UNL     1      -3.903  12.229  22.544  0.00  0.00    +0.000 OA
ENDBRANCH  23  25
ENDBRANCH   1  23
BRANCH   4  27
ATOM     27  C   UNL     1       1.230  10.641  18.606  0.00  0.00    +0.000 C 
BRANCH  27  28
ATOM     28  C   UNL     1       1.427   9.226  19.089  0.00  0.00    +0.000 A 
ATOM     29  C   UNL     1       1.075   8.830  20.384  0.00  0.00    +0.000 A 
ATOM     30  C   UNL     1       1.427   7.562  20.840  0.00  0.00    +0.000 A 
ATOM     31  C   UNL     1       2.098   6.720  19.970  0.00  0.00    +0.000 A 
ATOM     32 CL   UNL     1       2.629   5.173  20.483  0.00  0.00    +0.000 Cl
ATOM     33  N   UNL     1       2.421   7.040  18.703  0.00  0.00    +0.000 NA
ATOM     34  C   UNL     1       2.082   8.284  18.294  0.00  0.00    +0.000 A 
ENDBRANCH  27  28
ENDBRANCH   4  27
TORSDOF 7
ENDMDL
MODEL 5
REMARK VINA RESULT:      -7.3      4.323      5.714
REMARK  Name = 
REMARK  8 active torsions:
REMARK  status: ('A' for Active; 'I' for Inactive)
REMARK    1  A    between atoms: C_1  and  C_2
REMARK    2  A    between atoms: C_2  and  O_4
REMARK    3  A    between atoms: O_4  and  C_5
REMARK    4  A    between atoms: C_6  and  C_7
REMARK    5  A    between atoms: N_9  and  C_10
REMARK    6  A    between atoms: C_15  and  O_16
REMARK    7  A    between atoms: C_18  and  C_19
REMARK    8  A    between atoms: C_19  and  C_20
REMARK                            x       y       z     vdW  Elec       q    Type
REMARK                         _______ _______ _______ _____ _____    ______ ____
ROOT
ATOM      1  C   UNL     1       0.251  10.866  19.996  0.00  0.00    +0.000 A 
ATOM      2  C   UNL     1       1.226  10.604  19.032  0.00  0.00    +0.000 A 
ATOM      3  C   UNL     1       1.900  11.679  18.430  0.00  0.00    +0.000 A 
ATOM      4  C   UNL     1       1.498  13.009  18.662  0.00  0.00    +0.000 A 
ATOM      5  C   UNL     1       0.407  13.273  19.548  0.00  0.00    +0.000 A 
ATOM      6  C   UNL     1      -0.094  14.581  19.761  0.00  0.00    +0.000 A 
ATOM      7  C   UNL     1      -1.159  14.844  20.620  0.00  0.00    +0.000 A 
ATOM      8  C   UNL     1      -1.753  13.794  21.300  0.00  0.00    +0.000 A 
ATOM      9  C   UNL     1      -1.271  12.490  21.116  0.00  0.00    +0.000 A 
ATOM     10  C   UNL     1      -0.203  12.197  20.234  0.00  0.00    +0.000 A 
ENDROOT
BRANCH   2  11
ATOM     11  C   UNL     1       1.445   9.229  18.467  0.00  0.00    +0.000 C 
ATOM     12  O   UNL     1       0.936   8.933  17.389  0.00  0.00    +0.000 OA
ATOM     13  N   UNL     1       2.205   8.331  19.193  0.00  0.00    +0.000 N 
ATOM     14  H   UNL     1       2.572   8.598  20.095  0.00  0.00    +0.000 HD
BRANCH  13  15
ATOM     15  C   UNL     1       2.474   6.975  18.695  0.00  0.00    +0.000 C 
ATOM     16  C   UNL     1       3.663   7.004  17.721  0.00  0.00    +0.000 C 
ATOM     17  C   UNL     1       4.104   5.609  17.283  0.00  0.00    +0.000 C 
ATOM     18  C   UNL     1       4.401   4.715  18.480  0.00  0.00    +0.000 C 
ATOM     19  C   UNL     1       3.194   4.627  19.398  0.00  0.00    +0.000 C 
ATOM     20  C   UNL     1       2.723   6.000  19.871  0.00  0.00    +0.000 C 
BRANCH  20  21
ATOM     21  O   UNL     1       1.547   5.785  20.655  0.00  0.00    +0.000 OA
ATOM     22  H   UNL     1       1.041   5.045  20.268  0.00  0.00    +0.000 HD
ENDBRANCH  20  21
ENDBRANCH  13  15
ENDBRANCH   2  11
BRANCH   1  23
ATOM     23  O   UNL     1      -0.376   9.799  20.682  0.00  0.00    +0.000 OA
BRANCH  23  25
ATOM     24  C   UNL     1      -0.498   9.767  23.045  0.00  0.00    +0.000 C 
ATOM     25  C   UNL     1       0.262   9.319  21.832  0.00  0.00    +0.000 C 
ATOM     26  O   UNL     1       1.253   8.604  21.867  0.00  0.00    +0.000 OA
ENDBRANCH  23  25
ENDBRANCH   1  23
BRANCH   4  27
ATOM     27  C   UNL     1       2.205  14.120  17.900  0.00  0.00    +0.000 C 
BRANCH  27  28
ATOM     28  C   UNL     1       3.167  14.960  18.703  0.00  0.00    +0.000 A 
ATOM     29  C   UNL     1       3.720  14.508  19.905  0.00  0.00    +0.000 A 
ATOM     30  C   UNL     1       4.468  15.377  20.695  0.00  0.00    +0.000 A 
ATOM     31  C   UNL     1       4.661  16.669  20.237  0.00  0.00    +0.000 A 
ATOM     32 CL   UNL     1       5.507  17.818  21.187  0.00  0.00    +0.000 Cl
ATOM     33  N   UNL     1       4.185  17.138  19.069  0.00  0.00    +0.000 NA
ATOM     34  C   UNL     1       3.447  16.276  18.333  0.00  0.00    +0.000 A 
ENDBRANCH  27  28
ENDBRANCH   4  27
TORSDOF 7
ENDMDL
MODEL 6
REMARK VINA RESULT:      -7.3      3.138      4.744
REMARK  Name = 
REMARK  8 active torsions:
REMARK  status: ('A' for Active; 'I' for Inactive)
REMARK    1  A    between atoms: C_1  and  C_2
REMARK    2  A    between atoms: C_2  and  O_4
REMARK    3  A    between atoms: O_4  and  C_5
REMARK    4  A    between atoms: C_6  and  C_7
REMARK    5  A    between atoms: N_9  and  C_10
REMARK    6  A    between atoms: C_15  and  O_16
REMARK    7  A    between atoms: C_18  and  C_19
REMARK    8  A    between atoms: C_19  and  C_20
REMARK                            x       y       z     vdW  Elec       q    Type
REMARK                         _______ _______ _______ _____ _____    ______ ____
ROOT
ATOM      1  C   UNL     1       4.698   4.947  18.255  0.00  0.00    +0.000 A 
ATOM      2  C   UNL     1       4.544   5.778  17.143  0.00  0.00    +0.000 A 
ATOM      3  C   UNL     1       3.483   6.698  17.119  0.00  0.00    +0.000 A 
ATOM      4  C   UNL     1       2.486   6.683  18.113  0.00  0.00    +0.000 A 
ATOM      5  C   UNL     1       2.570   5.738  19.184  0.00  0.00    +0.000 A 
ATOM      6  C   UNL     1       1.560   5.621  20.170  0.00  0.00    +0.000 A 
ATOM      7  C   UNL     1       1.635   4.701  21.213  0.00  0.00    +0.000 A 
ATOM      8  C   UNL     1       2.737   3.867  21.301  0.00  0.00    +0.000 A 
ATOM      9  C   UNL     1       3.757   3.968  20.343  0.00  0.00    +0.000 A 
ATOM     10  C   UNL     1       3.694   4.882  19.265  0.00  0.00    +0.000 A 
ENDROOT
BRANCH   2  11
ATOM     11  C   UNL     1       5.346   5.593  15.886  0.00  0.00    +0.000 C 
ATOM     12  O   UNL     1       5.615   6.572  15.195  0.00  0.00    +0.000 OA
ATOM     13  N   UNL     1       5.743   4.315  15.540  0.00  0.00    +0.000 N 
ATOM     14  H   UNL     1       5.466   3.531  16.113  0.00  0.00    +0.000 HD
BRANCH  13  15
ATOM     15  C   UNL     1       6.543   4.061  14.334  0.00  0.00    +0.000 C 
ATOM     16  C   UNL     1       5.646   3.492  13.223  0.00  0.00    +0.000 C 
ATOM     17  C   UNL     1       6.374   3.351  11.888  0.00  0.00    +0.000 C 
ATOM     18  C   UNL     1       7.009   4.666  11.456  0.00  0.00    +0.000 C 
ATOM     19  C   UNL     1       7.956   5.183  12.526  0.00  0.00    +0.000 C 
ATOM     20  C   UNL     1       7.268   5.351  13.878  0.00  0.00    +0.000 C 
BRANCH  20  21
ATOM     21  O   UNL     1       8.276   5.762  14.805  0.00  0.00    +0.000 OA
ATOM     22  H   UNL     1       8.981   6.231  14.318  0.00  0.00    +0.000 HD
ENDBRANCH  20  21
ENDBRANCH  13  15
ENDBRANCH   2  11
BRANCH   1  23
ATOM     23  O   UNL     1       5.811   4.078  18.343  0.00  0.00    +0.000 OA
BRANCH  23  25
ATOM     24  C   UNL     1       7.194   5.621  19.485  0.00  0.00    +0.000 C 
ATOM     25  C   UNL     1       7.081   4.667  18.334  0.00  0.00    +0.000 C 
ATOM     26  O   UNL     1       7.989   4.421  17.553  0.00  0.00    +0.000 OA
ENDBRANCH  23  25
ENDBRANCH   1  23
BRANCH   4  27
ATOM     27  C   UNL     1       1.310   7.639  17.972  0.00  0.00    +0.000 C 
BRANCH  27  28
ATOM     28  C   UNL     1       1.472   8.984  18.634  0.00  0.00    +0.000 A 
ATOM     29  C   UNL     1       0.983   9.240  19.920  0.00  0.00    +0.000 A 
ATOM     30  C   UNL     1       1.006  10.538  20.424  0.00  0.00    +0.000 A 
ATOM     31  C   UNL     1       1.545  11.535  19.630  0.00  0.00    +0.000 A 
ATOM     32 CL   UNL     1       1.540  13.169  20.151  0.00  0.00    +0.000 Cl
ATOM     33  N   UNL     1       2.064  11.331  18.405  0.00  0.00    +0.000 NA
ATOM     34  C   UNL     1       2.012  10.064  17.935  0.00  0.00    +0.000 A 
ENDBRANCH  27  28
ENDBRANCH   4  27
TORSDOF 7
ENDMDL
MODEL 7
REMARK VINA RESULT:      -7.3      5.524     10.618
REMARK  Name = 
REMARK  8 active torsions:
REMARK  status: ('A' for Active; 'I' for Inactive)
REMARK    1  A    between atoms: C_1  and  C_2
REMARK    2  A    between atoms: C_2  and  O_4
REMARK    3  A    between atoms: O_4  and  C_5
REMARK    4  A    between atoms: C_6  and  C_7
REMARK    5  A    between atoms: N_9  and  C_10
REMARK    6  A    between atoms: C_15  and  O_16
REMARK    7  A    between atoms: C_18  and  C_19
REMARK    8  A    between atoms: C_19  and  C_20
REMARK                            x       y       z     vdW  Elec       q    Type
REMARK                         _______ _______ _______ _____ _____    ______ ____
ROOT
ATOM      1  C   UNL     1      -3.962  12.256  19.392  0.00  0.00    +0.000 A 
ATOM      2  C   UNL     1      -3.040  12.699  20.342  0.00  0.00    +0.000 A 
ATOM      3  C   UNL     1      -1.668  12.541  20.090  0.00  0.00    +0.000 A 
ATOM      4  C   UNL     1      -1.214  11.803  18.980  0.00  0.00    +0.000 A 
ATOM      5  C   UNL     1      -2.163  11.231  18.076  0.00  0.00    +0.000 A 
ATOM      6  C   UNL     1      -1.772  10.414  16.987  0.00  0.00    +0.000 A 
ATOM      7  C   UNL     1      -2.693   9.851  16.105  0.00  0.00    +0.000 A 
ATOM      8  C   UNL     1      -4.042  10.098  16.289  0.00  0.00    +0.000 A 
ATOM      9  C   UNL     1      -4.457  10.911  17.354  0.00  0.00    +0.000 A 
ATOM     10  C   UNL     1      -3.542  11.478  18.273  0.00  0.00    +0.000 A 
ENDROOT
BRANCH   2  11
ATOM     11  C   UNL     1      -3.458  13.157  21.711  0.00  0.00    +0.000 C 
ATOM     12  O   UNL     1      -3.985  12.357  22.479  0.00  0.00    +0.000 OA
ATOM     13  N   UNL     1      -3.247  14.479  22.057  0.00  0.00    +0.000 N 
ATOM     14  H   UNL     1      -2.849  15.117  21.383  0.00  0.00    +0.000 HD
BRANCH  13  15
ATOM     15  C   UNL     1      -3.615  14.993  23.383  0.00  0.00    +0.000 C 
ATOM     16  C   UNL     1      -2.497  15.901  23.919  0.00  0.00    +0.000 C 
ATOM     17  C   UNL     1      -2.875  16.599  25.223  0.00  0.00    +0.000 C 
ATOM     18  C   UNL     1      -4.184  17.367  25.088  0.00  0.00    +0.000 C 
ATOM     19  C   UNL     1      -5.304  16.446  24.634  0.00  0.00    +0.000 C 
ATOM     20  C   UNL     1      -4.974  15.733  23.325  0.00  0.00    +0.000 C 
BRANCH  20  21
ATOM     21  O   UNL     1      -6.063  14.847  23.053  0.00  0.00    +0.000 OA
ATOM     22  H   UNL     1      -6.484  15.113  22.213  0.00  0.00    +0.000 HD
ENDBRANCH  20  21
ENDBRANCH  13  15
ENDBRANCH   2  11
BRANCH   1  23
ATOM     23  O   UNL     1      -5.345  12.486  19.582  0.00  0.00    +0.000 OA
BRANCH  23  25
ATOM     24  C   UNL     1      -6.596  13.723  17.999  0.00  0.00    +0.000 C 
ATOM     25  C   UNL     1      -5.824  13.768  19.283  0.00  0.00    +0.000 C 
ATOM     26  O   UNL     1      -5.690  14.770  19.970  0.00  0.00    +0.000 OA
ENDBRANCH  23  25
ENDBRANCH   1  23
BRANCH   4  27
ATOM     27  C   UNL     1       0.284  11.585  18.821  0.00  0.00    +0.000 C 
BRANCH  27  28
ATOM     28  C   UNL     1       0.778  10.187  19.099  0.00  0.00    +0.000 A 
ATOM     29  C   UNL     1       0.641   9.589  20.356  0.00  0.00    +0.000 A 
ATOM     30  C   UNL     1       1.259   8.368  20.614  0.00  0.00    +0.000 A 
ATOM     31  C   UNL     1       1.973   7.771  19.589  0.00  0.00    +0.000 A 
ATOM     32 CL   UNL     1       2.821   6.305  19.852  0.00  0.00    +0.000 Cl
ATOM     33  N   UNL     1       2.099   8.286  18.353  0.00  0.00    +0.000 NA
ATOM     34  C   UNL     1       1.503   9.481  18.138  0.00  0.00    +0.000 A 
ENDBRANCH  27  28
ENDBRANCH   4  27
TORSDOF 7
ENDMDL
MODEL 8
REMARK VINA RESULT:      -7.2      0.737      1.019
REMARK  Name = 
REMARK  8 active torsions:
REMARK  status: ('A' for Active; 'I' for Inactive)
REMARK    1  A    between atoms: C_1  and  C_2
REMARK    2  A    between atoms: C_2  and  O_4
REMARK    3  A    between atoms: O_4  and  C_5
REMARK    4  A    between atoms: C_6  and  C_7
REMARK    5  A    between atoms: N_9  and  C_10
REMARK    6  A    between atoms: C_15  and  O_16
REMARK    7  A    between atoms: C_18  and  C_19
REMARK    8  A    between atoms: C_19  and  C_20
REMARK                            x       y       z     vdW  Elec       q    Type
REMARK                         _______ _______ _______ _____ _____    ______ ____
ROOT
ATOM      1  C   UNL     1       1.931   7.647  20.216  0.00  0.00    +0.000 A 
ATOM      2  C   UNL     1       2.105   7.797  18.838  0.00  0.00    +0.000 A 
ATOM      3  C   UNL     1       1.621   8.956  18.210  0.00  0.00    +0.000 A 
ATOM      4  C   UNL     1       0.827   9.884  18.911  0.00  0.00    +0.000 A 
ATOM      5  C   UNL     1       0.534   9.662  20.293  0.00  0.00    +0.000 A 
ATOM      6  C   UNL     1      -0.322  10.516  21.031  0.00  0.00    +0.000 A 
ATOM      7  C   UNL     1      -0.614  10.302  22.377  0.00  0.00    +0.000 A 
ATOM      8  C   UNL     1      -0.047   9.219  23.027  0.00  0.00    +0.000 A 
ATOM      9  C   UNL     1       0.812   8.362  22.323  0.00  0.00    +0.000 A 
ATOM     10  C   UNL     1       1.108   8.549  20.952  0.00  0.00    +0.000 A 
ENDROOT
BRANCH   2  11
ATOM     11  C   UNL     1       2.612   6.682  17.968  0.00  0.00    +0.000 C 
ATOM     12  O   UNL     1       1.865   5.746  17.693  0.00  0.00    +0.000 OA
ATOM     13  N   UNL     1       3.916   6.738  17.516  0.00  0.00    +0.000 N 
ATOM     14  H   UNL     1       4.512   7.503  17.798  0.00  0.00    +0.000 HD
BRANCH  13  15
ATOM     15  C   UNL     1       4.474   5.692  16.648  0.00  0.00    +0.000 C 
ATOM     16  C   UNL     1       5.304   6.333  15.524  0.00  0.00    +0.000 C 
ATOM     17  C   UNL     1       6.045   5.304  14.674  0.00  0.00    +0.000 C 
ATOM     18  C   UNL     1       6.906   4.386  15.532  0.00  0.00    +0.000 C 
ATOM     19  C   UNL     1       6.065   3.694  16.591  0.00  0.00    +0.000 C 
ATOM     20  C   UNL     1       5.312   4.686  17.474  0.00  0.00    +0.000 C 
BRANCH  20  21
ATOM     21  O   UNL     1       4.506   3.914  18.367  0.00  0.00    +0.000 OA
ATOM     22  H   UNL     1       5.081   3.523  19.054  0.00  0.00    +0.000 HD
ENDBRANCH  20  21
ENDBRANCH  13  15
ENDBRANCH   2  11
BRANCH   1  23
ATOM     23  O   UNL     1       2.490   6.533  20.886  0.00  0.00    +0.000 OA
BRANCH  23  25
ATOM     24  C   UNL     1       2.648   4.204  21.276  0.00  0.00    +0.000 C 
ATOM     25  C   UNL     1       1.765   5.335  20.842  0.00  0.00    +0.000 C 
ATOM     26  O   UNL     1       0.584   5.212  20.550  0.00  0.00    +0.000 OA
ENDBRANCH  23  25
ENDBRANCH   1  23
BRANCH   4  27
ATOM     27  C   UNL     1       0.251  11.065  18.144  0.00  0.00    +0.000 C 
BRANCH  27  28
ATOM     28  C   UNL     1      -1.251  11.093  18.010  0.00  0.00    +0.000 A 
ATOM     29  C   UNL     1      -2.030  12.090  18.608  0.00  0.00    +0.000 A 
ATOM     30  C   UNL     1      -3.419  11.984  18.599  0.00  0.00    +0.000 A 
ATOM     31  C   UNL     1      -3.983  10.891  17.964  0.00  0.00    +0.000 A 
ATOM     32 CL   UNL     1      -5.681  10.653  17.974  0.00  0.00    +0.000 Cl
ATOM     33  N   UNL     1      -3.279   9.930  17.340  0.00  0.00    +0.000 NA
ATOM     34  C   UNL     1      -1.932  10.051  17.380  0.00  0.00    +0.000 A 
ENDBRANCH  27  28
ENDBRANCH   4  27
TORSDOF 7
ENDMDL
MODEL 9
REMARK VINA RESULT:      -7.1      4.713      7.569
REMARK  Name = 
REMARK  8 active torsions:
REMARK  status: ('A' for Active; 'I' for Inactive)
REMARK    1  A    between atoms: C_1  and  C_2
REMARK    2  A    between atoms: C_2  and  O_4
REMARK    3  A    between atoms: O_4  and  C_5
REMARK    4  A    between atoms: C_6  and  C_7
REMARK    5  A    between atoms: N_9  and  C_10
REMARK    6  A    between atoms: C_15  and  O_16
REMARK    7  A    between atoms: C_18  and  C_19
REMARK    8  A    between atoms: C_19  and  C_20
REMARK                            x       y       z     vdW  Elec       q    Type
REMARK                         _______ _______ _______ _____ _____    ______ ____
ROOT
ATOM      1  C   UNL     1      -0.311  11.209  18.782  0.00  0.00    +0.000 A 
ATOM      2  C   UNL     1      -0.204  12.166  19.794  0.00  0.00    +0.000 A 
ATOM      3  C   UNL     1      -1.374  12.694  20.362  0.00  0.00    +0.000 A 
ATOM      4  C   UNL     1      -2.641  12.399  19.822  0.00  0.00    +0.000 A 
ATOM      5  C   UNL     1      -2.742  11.523  18.696  0.00  0.00    +0.000 A 
ATOM      6  C   UNL     1      -3.978  11.250  18.060  0.00  0.00    +0.000 A 
ATOM      7  C   UNL     1      -4.082  10.400  16.960  0.00  0.00    +0.000 A 
ATOM      8  C   UNL     1      -2.941   9.790  16.467  0.00  0.00    +0.000 A 
ATOM      9  C   UNL     1      -1.705  10.035  17.084  0.00  0.00    +0.000 A 
ATOM     10  C   UNL     1      -1.572  10.909  18.189  0.00  0.00    +0.000 A 
ENDROOT
BRANCH   2  11
ATOM     11  C   UNL     1       1.108  12.800  20.162  0.00  0.00    +0.000 C 
ATOM     12  O   UNL     1       1.592  12.582  21.270  0.00  0.00    +0.000 OA
ATOM     13  N   UNL     1       1.722  13.627  19.240  0.00  0.00    +0.000 N 
ATOM     14  H   UNL     1       1.272  13.815  18.356  0.00  0.00    +0.000 HD
BRANCH  13  15
ATOM     15  C   UNL     1       3.014  14.267  19.525  0.00  0.00    +0.000 C 
ATOM     16  C   UNL     1       3.866  14.313  18.247  0.00  0.00    +0.000 C 
ATOM     17  C   UNL     1       5.159  15.106  18.426  0.00  0.00    +0.000 C 
ATOM     18  C   UNL     1       4.886  16.510  18.950  0.00  0.00    +0.000 C 
ATOM     19  C   UNL     1       4.110  16.456  20.256  0.00  0.00    +0.000 C 
ATOM     20  C   UNL     1       2.802  15.680  20.122  0.00  0.00    +0.000 C 
BRANCH  20  21
ATOM     21  O   UNL     1       2.215  15.636  21.425  0.00  0.00    +0.000 OA
ATOM     22  H   UNL     1       2.523  14.831  21.884  0.00  0.00    +0.000 HD
ENDBRANCH  20  21
ENDBRANCH  13  15
ENDBRANCH   2  11
BRANCH   1  23
ATOM     23  O   UNL     1       0.852  10.596  18.258  0.00  0.00    +0.000 OA
BRANCH  23  25
ATOM     24  C   UNL     1       2.011   8.570  17.866  0.00  0.00    +0.000 C 
ATOM     25  C   UNL     1       1.275   9.409  18.868  0.00  0.00    +0.000 C 
ATOM     26  O   UNL     1       1.127   9.104  20.043  0.00  0.00    +0.000 OA
ENDBRANCH  23  25
ENDBRANCH   1  23
BRANCH   4  27
ATOM     27  C   UNL     1      -3.859  13.085  20.422  0.00  0.00    +0.000 C 
BRANCH  27  28
ATOM     28  C   UNL     1      -3.617  13.870  21.686  0.00  0.00    +0.000 A 
ATOM     29  C   UNL     1      -3.665  13.272  22.950  0.00  0.00    +0.000 A 
ATOM     30  C   UNL     1      -3.602  14.063  24.094  0.00  0.00    +0.000 A 
ATOM     31  C   UNL     1      -3.464  15.431  23.933  0.00  0.00    +0.000 A 
ATOM     32 CL   UNL     1      -3.453  16.477  25.291  0.00  0.00    +0.000 Cl
ATOM     33  N   UNL     1      -3.372  16.048  22.741  0.00  0.00    +0.000 NA
ATOM     34  C   UNL     1      -3.455  15.255  21.648  0.00  0.00    +0.000 A 
ENDBRANCH  27  28
ENDBRANCH   4  27
TORSDOF 7
ENDMDL
