MODEL 1
REMARK VINA RESULT:      -7.3      0.000      0.000
REMARK  Name = 
REMARK  6 active torsions:
REMARK  status: ('A' for Active; 'I' for Inactive)
REMARK    1  A    between atoms: C_2  and  C_3
REMARK    2  A    between atoms: C_9  and  C_10
REMARK    3  A    between atoms: C_19  and  C_20
REMARK    4  A    between atoms: C_22  and  C_23
REMARK    5  A    between atoms: C_23  and  C_24
REMARK    6  A    between atoms: C_23  and  C_25
REMARK                            x       y       z     vdW  Elec       q    Type
REMARK                         _______ _______ _______ _____ _____    ______ ____
ROOT
ATOM      1  C   UNL     1      -2.858  13.200  22.387  0.00  0.00    +0.000 A 
ATOM      2  C   UNL     1      -2.616  12.191  23.318  0.00  0.00    +0.000 A 
ATOM      3  C   UNL     1      -1.611  11.231  23.091  0.00  0.00    +0.000 A 
ATOM      4  C   UNL     1      -0.828  11.269  21.926  0.00  0.00    +0.000 A 
ATOM      5  C   UNL     1      -1.024  12.329  21.022  0.00  0.00    +0.000 A 
ATOM      6  C   UNL     1      -2.057  13.267  21.249  0.00  0.00    +0.000 A 
ATOM      7  C   UNL     1      -0.095  12.605  19.878  0.00  0.00    +0.000 C 
ATOM      8  N   UNL     1       0.368  11.725  19.055  0.00  0.00    +0.000 NA
ATOM      9  C   UNL     1      -0.031  10.337  19.174  0.00  0.00    +0.000 C 
ATOM     10  C   UNL     1       0.495   9.758  20.422  0.00  0.00    +0.000 A 
ATOM     11  C   UNL     1       1.316   8.667  20.654  0.00  0.00    +0.000 A 
ATOM     12  N   UNL     1       1.407   8.431  22.011  0.00  0.00    +0.000 NA
ATOM     13  C   UNL     1       0.697   9.381  22.582  0.00  0.00    +0.000 A 
ATOM     14  N   UNL     1       0.092  10.214  21.666  0.00  0.00    +0.000 N 
ENDROOT
BRANCH   7  15
ATOM     15  C   UNL     1       0.376  14.017  19.690  0.00  0.00    +0.000 A 
ATOM     16  C   UNL     1      -0.273  14.847  18.783  0.00  0.00    +0.000 A 
ATOM     17  C   UNL     1       0.269  16.105  18.543  0.00  0.00    +0.000 A 
ATOM     18  C   UNL     1       1.422  16.489  19.220  0.00  0.00    +0.000 A 
ATOM     19  C   UNL     1       1.975  15.608  20.136  0.00  0.00    +0.000 A 
ATOM     20  N   UNL     1       1.480  14.380  20.390  0.00  0.00    +0.000 NA
ENDBRANCH   7  15
BRANCH  11  21
ATOM     21  C   UNL     1       2.019   7.817  19.617  0.00  0.00    +0.000 A 
ATOM     22  N   UNL     1       2.286   6.522  19.715  0.00  0.00    +0.000 NA
ATOM     23  C   UNL     1       2.848   6.223  18.493  0.00  0.00    +0.000 A 
ATOM     24  N   UNL     1       2.984   7.277  17.678  0.00  0.00    +0.000 NA
ATOM     25  O   UNL     1       2.436   8.330  18.412  0.00  0.00    +0.000 OA
BRANCH  23  26
ATOM     26  C   UNL     1       3.248   4.842  18.049  0.00  0.00    +0.000 C 
ATOM     27  C   UNL     1       2.061   3.971  17.639  0.00  0.00    +0.000 C 
ATOM     28  C   UNL     1       4.273   4.860  16.913  0.00  0.00    +0.000 C 
ENDBRANCH  23  26
ENDBRANCH  11  21
BRANCH   1  30
ATOM     29  C   UNL     1      -4.748  14.988  22.804  0.00  0.00    +0.000 C 
ATOM     30  C   UNL     1      -3.886  14.174  22.618  0.00  0.00    +0.000 C 
ENDBRANCH   1  30
TORSDOF 4
ENDMDL
MODEL 2
REMARK VINA RESULT:      -7.2      1.767      2.423
REMARK  Name = 
REMARK  6 active torsions:
REMARK  status: ('A' for Active; 'I' for Inactive)
REMARK    1  A    between atoms: C_2  and  C_3
REMARK    2  A    between atoms: C_9  and  C_10
REMARK    3  A    between atoms: C_19  and  C_20
REMARK    4  A    between atoms: C_22  and  C_23
REMARK    5  A    between atoms: C_23  and  C_24
REMARK    6  A    between atoms: C_23  and  C_25
REMARK                            x       y       z     vdW  Elec       q    Type
REMARK                         _______ _______ _______ _____ _____    ______ ____
ROOT
ATOM      1  C   UNL     1      -1.463  12.613  20.978  0.00  0.00    +0.000 A 
ATOM      2  C   UNL     1      -1.579  11.487  21.791  0.00  0.00    +0.000 A 
ATOM      3  C   UNL     1      -0.716  10.387  21.620  0.00  0.00    +0.000 A 
ATOM      4  C   UNL     1       0.281  10.401  20.631  0.00  0.00    +0.000 A 
ATOM      5  C   UNL     1       0.444  11.566  19.860  0.00  0.00    +0.000 A 
ATOM      6  C   UNL     1      -0.450  12.649  20.023  0.00  0.00    +0.000 A 
ATOM      7  C   UNL     1       1.616  11.783  18.951  0.00  0.00    +0.000 C 
ATOM      8  N   UNL     1       2.088  10.923  18.113  0.00  0.00    +0.000 NA
ATOM      9  C   UNL     1       1.457   9.627  17.968  0.00  0.00    +0.000 C 
ATOM     10  C   UNL     1       1.621   8.836  19.198  0.00  0.00    +0.000 A 
ATOM     11  C   UNL     1       2.193   7.595  19.424  0.00  0.00    +0.000 A 
ATOM     12  N   UNL     1       1.969   7.207  20.730  0.00  0.00    +0.000 NA
ATOM     13  C   UNL     1       1.320   8.207  21.288  0.00  0.00    +0.000 A 
ATOM     14  N   UNL     1       1.053   9.227  20.400  0.00  0.00    +0.000 N 
ENDROOT
BRANCH   7  15
ATOM     15  C   UNL     1       2.336  13.096  19.046  0.00  0.00    +0.000 A 
ATOM     16  C   UNL     1       2.605  13.822  17.890  0.00  0.00    +0.000 A 
ATOM     17  C   UNL     1       3.383  14.969  18.004  0.00  0.00    +0.000 A 
ATOM     18  C   UNL     1       3.849  15.352  19.257  0.00  0.00    +0.000 A 
ATOM     19  C   UNL     1       3.495  14.587  20.358  0.00  0.00    +0.000 A 
ATOM     20  N   UNL     1       2.747  13.468  20.284  0.00  0.00    +0.000 NA
ENDBRANCH   7  15
BRANCH  11  21
ATOM     21  C   UNL     1       2.945   6.742  18.424  0.00  0.00    +0.000 A 
ATOM     22  N   UNL     1       3.943   7.140  17.648  0.00  0.00    +0.000 NA
ATOM     23  C   UNL     1       4.321   5.983  17.002  0.00  0.00    +0.000 A 
ATOM     24  N   UNL     1       3.574   4.914  17.307  0.00  0.00    +0.000 NA
ATOM     25  O   UNL     1       2.667   5.407  18.245  0.00  0.00    +0.000 OA
BRANCH  23  26
ATOM     26  C   UNL     1       5.494   5.869  16.066  0.00  0.00    +0.000 C 
ATOM     27  C   UNL     1       6.845   5.993  16.769  0.00  0.00    +0.000 C 
ATOM     28  C   UNL     1       5.471   4.577  15.247  0.00  0.00    +0.000 C 
ENDBRANCH  23  26
ENDBRANCH  11  21
BRANCH   1  30
ATOM     29  C   UNL     1      -3.082  14.668  21.300  0.00  0.00    +0.000 C 
ATOM     30  C   UNL     1      -2.347  13.731  21.151  0.00  0.00    +0.000 C 
ENDBRANCH   1  30
TORSDOF 4
ENDMDL
MODEL 3
REMARK VINA RESULT:      -7.1      1.553      1.918
REMARK  Name = 
REMARK  6 active torsions:
REMARK  status: ('A' for Active; 'I' for Inactive)
REMARK    1  A    between atoms: C_2  and  C_3
REMARK    2  A    between atoms: C_9  and  C_10
REMARK    3  A    between atoms: C_19  and  C_20
REMARK    4  A    between atoms: C_22  and  C_23
REMARK    5  A    between atoms: C_23  and  C_24
REMARK    6  A    between atoms: C_23  and  C_25
REMARK                            x       y       z     vdW  Elec       q    Type
REMARK                         _______ _______ _______ _____ _____    ______ ____
ROOT
ATOM      1  C   UNL     1      -1.470  13.471  20.982  0.00  0.00    +0.000 A 
ATOM      2  C   UNL     1      -1.711  12.430  21.876  0.00  0.00    +0.000 A 
ATOM      3  C   UNL     1      -0.953  11.244  21.818  0.00  0.00    +0.000 A 
ATOM      4  C   UNL     1       0.064  11.085  20.862  0.00  0.00    +0.000 A 
ATOM      5  C   UNL     1       0.354  12.164  20.008  0.00  0.00    +0.000 A 
ATOM      6  C   UNL     1      -0.435  13.335  20.059  0.00  0.00    +0.000 A 
ATOM      7  C   UNL     1       1.563  12.198  19.121  0.00  0.00    +0.000 C 
ATOM      8  N   UNL     1       1.970  11.232  18.368  0.00  0.00    +0.000 NA
ATOM      9  C   UNL     1       1.222   9.993  18.305  0.00  0.00    +0.000 C 
ATOM     10  C   UNL     1       1.281   9.292  19.597  0.00  0.00    +0.000 A 
ATOM     11  C   UNL     1       1.727   8.025  19.937  0.00  0.00    +0.000 A 
ATOM     12  N   UNL     1       1.437   7.767  21.261  0.00  0.00    +0.000 NA
ATOM     13  C   UNL     1       0.874   8.864  21.720  0.00  0.00    +0.000 A 
ATOM     14  N   UNL     1       0.726   9.830  20.747  0.00  0.00    +0.000 N 
ENDROOT
BRANCH   7  15
ATOM     15  C   UNL     1       2.402  13.441  19.136  0.00  0.00    +0.000 A 
ATOM     16  C   UNL     1       2.578  14.170  17.964  0.00  0.00    +0.000 A 
ATOM     17  C   UNL     1       3.462  15.242  17.986  0.00  0.00    +0.000 A 
ATOM     18  C   UNL     1       4.124  15.553  19.171  0.00  0.00    +0.000 A 
ATOM     19  C   UNL     1       3.853  14.794  20.299  0.00  0.00    +0.000 A 
ATOM     20  N   UNL     1       3.006  13.745  20.311  0.00  0.00    +0.000 NA
ENDBRANCH   7  15
BRANCH  11  21
ATOM     21  C   UNL     1       2.417   7.028  19.030  0.00  0.00    +0.000 A 
ATOM     22  N   UNL     1       2.143   5.734  18.935  0.00  0.00    +0.000 NA
ATOM     23  C   UNL     1       2.982   5.308  17.929  0.00  0.00    +0.000 A 
ATOM     24  N   UNL     1       3.786   6.262  17.442  0.00  0.00    +0.000 NA
ATOM     25  O   UNL     1       3.417   7.398  18.162  0.00  0.00    +0.000 OA
BRANCH  23  26
ATOM     26  C   UNL     1       2.996   3.915  17.359  0.00  0.00    +0.000 C 
ATOM     27  C   UNL     1       4.377   3.261  17.393  0.00  0.00    +0.000 C 
ATOM     28  C   UNL     1       1.986   2.989  18.039  0.00  0.00    +0.000 C 
ENDBRANCH  23  26
ENDBRANCH  11  21
BRANCH   1  30
ATOM     29  C   UNL     1      -2.891  15.688  21.090  0.00  0.00    +0.000 C 
ATOM     30  C   UNL     1      -2.247  14.676  21.039  0.00  0.00    +0.000 C 
ENDBRANCH   1  30
TORSDOF 4
ENDMDL
MODEL 4
REMARK VINA RESULT:      -7.1      3.502      7.672
REMARK  Name = 
REMARK  6 active torsions:
REMARK  status: ('A' for Active; 'I' for Inactive)
REMARK    1  A    between atoms: C_2  and  C_3
REMARK    2  A    between atoms: C_9  and  C_10
REMARK    3  A    between atoms: C_19  and  C_20
REMARK    4  A    between atoms: C_22  and  C_23
REMARK    5  A    between atoms: C_23  and  C_24
REMARK    6  A    between atoms: C_23  and  C_25
REMARK                            x       y       z     vdW  Elec       q    Type
REMARK                         _______ _______ _______ _____ _____    ______ ____
ROOT
ATOM      1  C   UNL     1       2.856  14.073  19.282  0.00  0.00    +0.000 A 
ATOM      2  C   UNL     1       2.534  14.885  20.367  0.00  0.00    +0.000 A 
ATOM      3  C   UNL     1       1.355  14.662  21.105  0.00  0.00    +0.000 A 
ATOM      4  C   UNL     1       0.481  13.616  20.767  0.00  0.00    +0.000 A 
ATOM      5  C   UNL     1       0.843  12.753  19.716  0.00  0.00    +0.000 A 
ATOM      6  C   UNL     1       2.013  13.009  18.967  0.00  0.00    +0.000 A 
ATOM      7  C   UNL     1       0.116  11.474  19.427  0.00  0.00    +0.000 C 
ATOM      8  N   UNL     1      -1.165  11.334  19.366  0.00  0.00    +0.000 NA
ATOM      9  C   UNL     1      -2.032  12.479  19.554  0.00  0.00    +0.000 C 
ATOM     10  C   UNL     1      -1.939  12.971  20.939  0.00  0.00    +0.000 A 
ATOM     11  C   UNL     1      -2.900  13.142  21.920  0.00  0.00    +0.000 A 
ATOM     12  N   UNL     1      -2.346  13.778  23.013  0.00  0.00    +0.000 NA
ATOM     13  C   UNL     1      -1.074  13.945  22.716  0.00  0.00    +0.000 A 
ATOM     14  N   UNL     1      -0.763  13.495  21.451  0.00  0.00    +0.000 N 
ENDROOT
BRANCH   7  15
ATOM     15  C   UNL     1       0.940  10.236  19.230  0.00  0.00    +0.000 A 
ATOM     16  C   UNL     1       1.460   9.944  17.974  0.00  0.00    +0.000 A 
ATOM     17  C   UNL     1       2.109   8.726  17.801  0.00  0.00    +0.000 A 
ATOM     18  C   UNL     1       2.225   7.858  18.882  0.00  0.00    +0.000 A 
ATOM     19  C   UNL     1       1.709   8.254  20.106  0.00  0.00    +0.000 A 
ATOM     20  N   UNL     1       1.070   9.423  20.309  0.00  0.00    +0.000 NA
ENDBRANCH   7  15
BRANCH  11  21
ATOM     21  C   UNL     1      -4.355  12.729  21.853  0.00  0.00    +0.000 A 
ATOM     22  N   UNL     1      -5.060  12.516  20.750  0.00  0.00    +0.000 NA
ATOM     23  C   UNL     1      -6.278  12.090  21.232  0.00  0.00    +0.000 A 
ATOM     24  N   UNL     1      -6.368  12.080  22.568  0.00  0.00    +0.000 NA
ATOM     25  O   UNL     1      -5.103  12.498  22.983  0.00  0.00    +0.000 OA
BRANCH  23  26
ATOM     26  C   UNL     1      -7.421  11.619  20.374  0.00  0.00    +0.000 C 
ATOM     27  C   UNL     1      -7.203  11.871  18.883  0.00  0.00    +0.000 C 
ATOM     28  C   UNL     1      -7.752  10.141  20.589  0.00  0.00    +0.000 C 
ENDBRANCH  23  26
ENDBRANCH  11  21
BRANCH   1  30
ATOM     29  C   UNL     1       5.060  14.505  17.903  0.00  0.00    +0.000 C 
ATOM     30  C   UNL     1       4.056  14.305  18.528  0.00  0.00    +0.000 C 
ENDBRANCH   1  30
TORSDOF 4
ENDMDL
MODEL 5
REMARK VINA RESULT:      -6.9      2.416      4.524
REMARK  Name = 
REMARK  6 active torsions:
REMARK  status: ('A' for Active; 'I' for Inactive)
REMARK    1  A    between atoms: C_2  and  C_3
REMARK    2  A    between atoms: C_9  and  C_10
REMARK    3  A    between atoms: C_19  and  C_20
REMARK    4  A    between atoms: C_22  and  C_23
REMARK    5  A    between atoms: C_23  and  C_24
REMARK    6  A    between atoms: C_23  and  C_25
REMARK                            x       y       z     vdW  Elec       q    Type
REMARK                         _______ _______ _______ _____ _____    ______ ____
ROOT
ATOM      1  C   UNL     1       1.192  14.083  18.847  0.00  0.00    +0.000 A 
ATOM      2  C   UNL     1       2.340  13.634  18.197  0.00  0.00    +0.000 A 
ATOM      3  C   UNL     1       2.568  12.256  18.014  0.00  0.00    +0.000 A 
ATOM      4  C   UNL     1       1.645  11.305  18.478  0.00  0.00    +0.000 A 
ATOM      5  C   UNL     1       0.453  11.762  19.070  0.00  0.00    +0.000 A 
ATOM      6  C   UNL     1       0.253  13.146  19.273  0.00  0.00    +0.000 A 
ATOM      7  C   UNL     1      -0.700  10.856  19.381  0.00  0.00    +0.000 C 
ATOM      8  N   UNL     1      -0.619   9.706  19.961  0.00  0.00    +0.000 NA
ATOM      9  C   UNL     1       0.667   9.203  20.402  0.00  0.00    +0.000 C 
ATOM     10  C   UNL     1       1.530   8.918  19.245  0.00  0.00    +0.000 A 
ATOM     11  C   UNL     1       2.163   7.757  18.833  0.00  0.00    +0.000 A 
ATOM     12  N   UNL     1       2.989   8.029  17.762  0.00  0.00    +0.000 NA
ATOM     13  C   UNL     1       2.826   9.309  17.506  0.00  0.00    +0.000 A 
ATOM     14  N   UNL     1       1.964   9.920  18.391  0.00  0.00    +0.000 N 
ENDROOT
BRANCH   7  15
ATOM     15  C   UNL     1      -2.067  11.296  18.947  0.00  0.00    +0.000 A 
ATOM     16  C   UNL     1      -2.866  12.030  19.818  0.00  0.00    +0.000 A 
ATOM     17  C   UNL     1      -4.171  12.310  19.430  0.00  0.00    +0.000 A 
ATOM     18  C   UNL     1      -4.623  11.863  18.192  0.00  0.00    +0.000 A 
ATOM     19  C   UNL     1      -3.741  11.174  17.375  0.00  0.00    +0.000 A 
ATOM     20  N   UNL     1      -2.471  10.880  17.721  0.00  0.00    +0.000 NA
ENDBRANCH   7  15
BRANCH  11  21
ATOM     21  C   UNL     1       2.019   6.377  19.439  0.00  0.00    +0.000 A 
ATOM     22  N   UNL     1       2.122   5.223  18.793  0.00  0.00    +0.000 NA
ATOM     23  C   UNL     1       1.995   4.288  19.797  0.00  0.00    +0.000 A 
ATOM     24  N   UNL     1       1.770   4.810  21.010  0.00  0.00    +0.000 NA
ATOM     25  O   UNL     1       1.787   6.187  20.780  0.00  0.00    +0.000 OA
BRANCH  23  26
ATOM     26  C   UNL     1       2.136   2.802  19.607  0.00  0.00    +0.000 C 
ATOM     27  C   UNL     1       0.920   2.158  18.944  0.00  0.00    +0.000 C 
ATOM     28  C   UNL     1       3.394   2.425  18.820  0.00  0.00    +0.000 C 
ENDBRANCH  23  26
ENDBRANCH  11  21
BRANCH   1  30
ATOM     29  C   UNL     1       0.769  16.662  19.190  0.00  0.00    +0.000 C 
ATOM     30  C   UNL     1       0.964  15.488  19.037  0.00  0.00    +0.000 C 
ENDBRANCH   1  30
TORSDOF 4
ENDMDL
MODEL 6
REMARK VINA RESULT:      -6.9      1.775      2.277
REMARK  Name = 
REMARK  6 active torsions:
REMARK  status: ('A' for Active; 'I' for Inactive)
REMARK    1  A    between atoms: C_2  and  C_3
REMARK    2  A    between atoms: C_9  and  C_10
REMARK    3  A    between atoms: C_19  and  C_20
REMARK    4  A    between atoms: C_22  and  C_23
REMARK    5  A    between atoms: C_23  and  C_24
REMARK    6  A    between atoms: C_23  and  C_25
REMARK                            x       y       z     vdW  Elec       q    Type
REMARK                         _______ _______ _______ _____ _____    ______ ____
ROOT
ATOM      1  C   UNL     1      -1.259  14.716  20.557  0.00  0.00    +0.000 A 
ATOM      2  C   UNL     1      -1.718  13.920  21.605  0.00  0.00    +0.000 A 
ATOM      3  C   UNL     1      -1.148  12.655  21.848  0.00  0.00    +0.000 A 
ATOM      4  C   UNL     1      -0.104  12.169  21.044  0.00  0.00    +0.000 A 
ATOM      5  C   UNL     1       0.407  13.002  20.032  0.00  0.00    +0.000 A 
ATOM      6  C   UNL     1      -0.196  14.256  19.782  0.00  0.00    +0.000 A 
ATOM      7  C   UNL     1       1.664  12.690  19.279  0.00  0.00    +0.000 C 
ATOM      8  N   UNL     1       1.970  11.546  18.766  0.00  0.00    +0.000 NA
ATOM      9  C   UNL     1       1.048  10.434  18.867  0.00  0.00    +0.000 C 
ATOM     10  C   UNL     1       0.910  10.008  20.269  0.00  0.00    +0.000 A 
ATOM     11  C   UNL     1       1.131   8.787  20.886  0.00  0.00    +0.000 A 
ATOM     12  N   UNL     1       0.715   8.845  22.200  0.00  0.00    +0.000 NA
ATOM     13  C   UNL     1       0.296  10.079  22.384  0.00  0.00    +0.000 A 
ATOM     14  N   UNL     1       0.365  10.838  21.236  0.00  0.00    +0.000 N 
ENDROOT
BRANCH   7  15
ATOM     15  C   UNL     1       2.681  13.785  19.138  0.00  0.00    +0.000 A 
ATOM     16  C   UNL     1       2.935  14.336  17.886  0.00  0.00    +0.000 A 
ATOM     17  C   UNL     1       3.970  15.256  17.774  0.00  0.00    +0.000 A 
ATOM     18  C   UNL     1       4.700  15.600  18.908  0.00  0.00    +0.000 A 
ATOM     19  C   UNL     1       4.347  15.029  20.120  0.00  0.00    +0.000 A 
ATOM     20  N   UNL     1       3.353  14.129  20.265  0.00  0.00    +0.000 NA
ENDBRANCH   7  15
BRANCH  11  21
ATOM     21  C   UNL     1       1.722   7.543  20.258  0.00  0.00    +0.000 A 
ATOM     22  N   UNL     1       1.510   6.292  20.646  0.00  0.00    +0.000 NA
ATOM     23  C   UNL     1       2.198   5.551  19.710  0.00  0.00    +0.000 A 
ATOM     24  N   UNL     1       2.859   6.285  18.805  0.00  0.00    +0.000 NA
ATOM     25  O   UNL     1       2.547   7.598  19.159  0.00  0.00    +0.000 OA
BRANCH  23  26
ATOM     26  C   UNL     1       2.200   4.048  19.641  0.00  0.00    +0.000 C 
ATOM     27  C   UNL     1       1.247   3.395  20.641  0.00  0.00    +0.000 C 
ATOM     28  C   UNL     1       1.890   3.522  18.238  0.00  0.00    +0.000 C 
ENDBRANCH  23  26
ENDBRANCH  11  21
BRANCH   1  30
ATOM     29  C   UNL     1      -2.341  17.074  20.097  0.00  0.00    +0.000 C 
ATOM     30  C   UNL     1      -1.845  16.002  20.307  0.00  0.00    +0.000 C 
ENDBRANCH   1  30
TORSDOF 4
ENDMDL
MODEL 7
REMARK VINA RESULT:      -6.9      0.952      1.239
REMARK  Name = 
REMARK  6 active torsions:
REMARK  status: ('A' for Active; 'I' for Inactive)
REMARK    1  A    between atoms: C_2  and  C_3
REMARK    2  A    between atoms: C_9  and  C_10
REMARK    3  A    between atoms: C_19  and  C_20
REMARK    4  A    between atoms: C_22  and  C_23
REMARK    5  A    between atoms: C_23  and  C_24
REMARK    6  A    between atoms: C_23  and  C_25
REMARK                            x       y       z     vdW  Elec       q    Type
REMARK                         _______ _______ _______ _____ _____    ______ ____
ROOT
ATOM      1  C   UNL     1      -2.038  13.661  21.910  0.00  0.00    +0.000 A 
ATOM      2  C   UNL     1      -2.109  12.602  22.813  0.00  0.00    +0.000 A 
ATOM      3  C   UNL     1      -1.264  11.484  22.674  0.00  0.00    +0.000 A 
ATOM      4  C   UNL     1      -0.330  11.412  21.628  0.00  0.00    +0.000 A 
ATOM      5  C   UNL     1      -0.210  12.512  20.760  0.00  0.00    +0.000 A 
ATOM      6  C   UNL     1      -1.086  13.613  20.894  0.00  0.00    +0.000 A 
ATOM      7  C   UNL     1       0.904  12.647  19.766  0.00  0.00    +0.000 C 
ATOM      8  N   UNL     1       1.318  11.721  18.970  0.00  0.00    +0.000 NA
ATOM      9  C   UNL     1       0.673  10.424  18.964  0.00  0.00    +0.000 C 
ATOM     10  C   UNL     1       0.909   9.728  20.240  0.00  0.00    +0.000 A 
ATOM     11  C   UNL     1       1.487   8.502  20.525  0.00  0.00    +0.000 A 
ATOM     12  N   UNL     1       1.344   8.218  21.868  0.00  0.00    +0.000 NA
ATOM     13  C   UNL     1       0.737   9.265  22.386  0.00  0.00    +0.000 A 
ATOM     14  N   UNL     1       0.420  10.216  21.440  0.00  0.00    +0.000 N 
ENDROOT
BRANCH   7  15
ATOM     15  C   UNL     1       1.635  13.956  19.715  0.00  0.00    +0.000 A 
ATOM     16  C   UNL     1       2.442  14.340  20.780  0.00  0.00    +0.000 A 
ATOM     17  C   UNL     1       3.002  15.613  20.753  0.00  0.00    +0.000 A 
ATOM     18  C   UNL     1       2.746  16.444  19.666  0.00  0.00    +0.000 A 
ATOM     19  C   UNL     1       1.962  15.959  18.632  0.00  0.00    +0.000 A 
ATOM     20  N   UNL     1       1.400  14.733  18.628  0.00  0.00    +0.000 NA
ENDBRANCH   7  15
BRANCH  11  21
ATOM     21  C   UNL     1       2.171   7.567  19.550  0.00  0.00    +0.000 A 
ATOM     22  N   UNL     1       2.259   6.248  19.658  0.00  0.00    +0.000 NA
ATOM     23  C   UNL     1       2.892   5.878  18.492  0.00  0.00    +0.000 A 
ATOM     24  N   UNL     1       3.239   6.905  17.705  0.00  0.00    +0.000 NA
ATOM     25  O   UNL     1       2.764   8.020  18.395  0.00  0.00    +0.000 OA
BRANCH  23  26
ATOM     26  C   UNL     1       3.151   4.457  18.072  0.00  0.00    +0.000 C 
ATOM     27  C   UNL     1       1.884   3.703  17.672  0.00  0.00    +0.000 C 
ATOM     28  C   UNL     1       4.175   4.352  16.940  0.00  0.00    +0.000 C 
ENDBRANCH  23  26
ENDBRANCH  11  21
BRANCH   1  30
ATOM     29  C   UNL     1      -3.625  15.750  22.161  0.00  0.00    +0.000 C 
ATOM     30  C   UNL     1      -2.904  14.797  22.050  0.00  0.00    +0.000 C 
ENDBRANCH   1  30
TORSDOF 4
ENDMDL
MODEL 8
REMARK VINA RESULT:      -6.7      1.047      1.281
REMARK  Name = 
REMARK  6 active torsions:
REMARK  status: ('A' for Active; 'I' for Inactive)
REMARK    1  A    between atoms: C_2  and  C_3
REMARK    2  A    between atoms: C_9  and  C_10
REMARK    3  A    between atoms: C_19  and  C_20
REMARK    4  A    between atoms: C_22  and  C_23
REMARK    5  A    between atoms: C_23  and  C_24
REMARK    6  A    between atoms: C_23  and  C_25
REMARK                            x       y       z     vdW  Elec       q    Type
REMARK                         _______ _______ _______ _____ _____    ______ ____
ROOT
ATOM      1  C   UNL     1      -3.589  13.577  22.462  0.00  0.00    +0.000 A 
ATOM      2  C   UNL     1      -3.410  12.594  23.435  0.00  0.00    +0.000 A 
ATOM      3  C   UNL     1      -2.378  11.644  23.313  0.00  0.00    +0.000 A 
ATOM      4  C   UNL     1      -1.505  11.665  22.214  0.00  0.00    +0.000 A 
ATOM      5  C   UNL     1      -1.641  12.700  21.270  0.00  0.00    +0.000 A 
ATOM      6  C   UNL     1      -2.700  13.628  21.391  0.00  0.00    +0.000 A 
ATOM      7  C   UNL     1      -0.626  12.962  20.198  0.00  0.00    +0.000 C 
ATOM      8  N   UNL     1      -0.088  12.070  19.437  0.00  0.00    +0.000 NA
ATOM      9  C   UNL     1      -0.477  10.679  19.559  0.00  0.00    +0.000 C 
ATOM     10  C   UNL     1      -0.046  10.138  20.858  0.00  0.00    +0.000 A 
ATOM     11  C   UNL     1       0.767   9.065  21.183  0.00  0.00    +0.000 A 
ATOM     12  N   UNL     1       0.752   8.863  22.548  0.00  0.00    +0.000 NA
ATOM     13  C   UNL     1      -0.014   9.816  23.037  0.00  0.00    +0.000 A 
ATOM     14  N   UNL     1      -0.554  10.618  22.055  0.00  0.00    +0.000 N 
ENDROOT
BRANCH   7  15
ATOM     15  C   UNL     1      -0.159  14.376  20.013  0.00  0.00    +0.000 A 
ATOM     16  C   UNL     1       0.264  15.114  21.114  0.00  0.00    +0.000 A 
ATOM     17  C   UNL     1       0.569  16.457  20.924  0.00  0.00    +0.000 A 
ATOM     18  C   UNL     1       0.453  17.007  19.650  0.00  0.00    +0.000 A 
ATOM     19  C   UNL     1       0.062  16.182  18.607  0.00  0.00    +0.000 A 
ATOM     20  N   UNL     1      -0.246  14.878  18.756  0.00  0.00    +0.000 NA
ENDBRANCH   7  15
BRANCH  11  21
ATOM     21  C   UNL     1       1.562   8.201  20.227  0.00  0.00    +0.000 A 
ATOM     22  N   UNL     1       2.025   6.983  20.472  0.00  0.00    +0.000 NA
ATOM     23  C   UNL     1       2.592   6.614  19.271  0.00  0.00    +0.000 A 
ATOM     24  N   UNL     1       2.544   7.562  18.326  0.00  0.00    +0.000 NA
ATOM     25  O   UNL     1       1.864   8.609  18.950  0.00  0.00    +0.000 OA
BRANCH  23  26
ATOM     26  C   UNL     1       3.184   5.261  18.983  0.00  0.00    +0.000 C 
ATOM     27  C   UNL     1       2.980   4.806  17.539  0.00  0.00    +0.000 C 
ATOM     28  C   UNL     1       4.672   5.182  19.328  0.00  0.00    +0.000 C 
ENDBRANCH  23  26
ENDBRANCH  11  21
BRANCH   1  30
ATOM     29  C   UNL     1      -5.523  15.353  22.685  0.00  0.00    +0.000 C 
ATOM     30  C   UNL     1      -4.644  14.542  22.586  0.00  0.00    +0.000 C 
ENDBRANCH   1  30
TORSDOF 4
ENDMDL
MODEL 9
REMARK VINA RESULT:      -6.7      3.536      8.322
REMARK  Name = 
REMARK  6 active torsions:
REMARK  status: ('A' for Active; 'I' for Inactive)
REMARK    1  A    between atoms: C_2  and  C_3
REMARK    2  A    between atoms: C_9  and  C_10
REMARK    3  A    between atoms: C_19  and  C_20
REMARK    4  A    between atoms: C_22  and  C_23
REMARK    5  A    between atoms: C_23  and  C_24
REMARK    6  A    between atoms: C_23  and  C_25
REMARK                            x       y       z     vdW  Elec       q    Type
REMARK                         _______ _______ _______ _____ _____    ______ ____
ROOT
ATOM      1  C   UNL     1       0.727   9.758  18.408  0.00  0.00    +0.000 A 
ATOM      2  C   UNL     1      -0.537   9.567  17.852  0.00  0.00    +0.000 A 
ATOM      3  C   UNL     1      -1.627  10.363  18.255  0.00  0.00    +0.000 A 
ATOM      4  C   UNL     1      -1.465  11.368  19.223  0.00  0.00    +0.000 A 
ATOM      5  C   UNL     1      -0.176  11.607  19.732  0.00  0.00    +0.000 A 
ATOM      6  C   UNL     1       0.901  10.781  19.339  0.00  0.00    +0.000 A 
ATOM      7  C   UNL     1       0.156  12.799  20.579  0.00  0.00    +0.000 C 
ATOM      8  N   UNL     1      -0.535  13.225  21.582  0.00  0.00    +0.000 NA
ATOM      9  C   UNL     1      -1.730  12.517  21.995  0.00  0.00    +0.000 C 
ATOM     10  C   UNL     1      -2.772  12.622  20.961  0.00  0.00    +0.000 A 
ATOM     11  C   UNL     1      -4.065  13.114  21.005  0.00  0.00    +0.000 A 
ATOM     12  N   UNL     1      -4.705  12.857  19.810  0.00  0.00    +0.000 NA
ATOM     13  C   UNL     1      -3.808  12.265  19.050  0.00  0.00    +0.000 A 
ATOM     14  N   UNL     1      -2.609  12.069  19.701  0.00  0.00    +0.000 N 
ENDROOT
BRANCH   7  15
ATOM     15  C   UNL     1       1.372  13.596  20.212  0.00  0.00    +0.000 A 
ATOM     16  C   UNL     1       1.439  14.226  18.974  0.00  0.00    +0.000 A 
ATOM     17  C   UNL     1       2.630  14.849  18.618  0.00  0.00    +0.000 A 
ATOM     18  C   UNL     1       3.698  14.831  19.510  0.00  0.00    +0.000 A 
ATOM     19  C   UNL     1       3.524  14.213  20.738  0.00  0.00    +0.000 A 
ATOM     20  N   UNL     1       2.386  13.595  21.113  0.00  0.00    +0.000 NA
ENDBRANCH   7  15
BRANCH  11  21
ATOM     21  C   UNL     1      -4.732  13.822  22.166  0.00  0.00    +0.000 A 
ATOM     22  N   UNL     1      -4.298  14.920  22.770  0.00  0.00    +0.000 NA
ATOM     23  C   UNL     1      -5.292  15.190  23.685  0.00  0.00    +0.000 A 
ATOM     24  N   UNL     1      -6.281  14.289  23.704  0.00  0.00    +0.000 NA
ATOM     25  O   UNL     1      -5.920  13.385  22.704  0.00  0.00    +0.000 OA
BRANCH  23  26
ATOM     26  C   UNL     1      -5.331  16.405  24.572  0.00  0.00    +0.000 C 
ATOM     27  C   UNL     1      -3.945  16.889  24.998  0.00  0.00    +0.000 C 
ATOM     28  C   UNL     1      -6.097  17.571  23.943  0.00  0.00    +0.000 C 
ENDBRANCH  23  26
ENDBRANCH  11  21
BRANCH   1  30
ATOM     29  C   UNL     1       2.764   8.267  17.655  0.00  0.00    +0.000 C 
ATOM     30  C   UNL     1       1.835   8.943  17.999  0.00  0.00    +0.000 C 
ENDBRANCH   1  30
TORSDOF 4
ENDMDL
