MODEL 1
REMARK VINA RESULT:      -7.0      0.000      0.000
REMARK  Name = 
REMARK  6 active torsions:
REMARK  status: ('A' for Active; 'I' for Inactive)
REMARK    1  A    between atoms: C_2  and  O_3
REMARK    2  A    between atoms: C_2  and  C_4
REMARK    3  A    between atoms: C_12  and  S_13
REMARK    4  A    between atoms: S_13  and  C_14
REMARK    5  A    between atoms: C_14  and  C_15
REMARK    6  A    between atoms: C_15  and  O_16
REMARK                            x       y       z     vdW  Elec       q    Type
REMARK                         _______ _______ _______ _____ _____    ______ ____
ROOT
ATOM      1  C   UNL     1      -0.199  11.641  19.384  0.00  0.00    +0.000 A 
ATOM      2  C   UNL     1      -0.579  11.201  20.660  0.00  0.00    +0.000 A 
ATOM      3  C   UNL     1      -0.111   9.974  21.144  0.00  0.00    +0.000 A 
ATOM      4  C   UNL     1       0.719   9.178  20.352  0.00  0.00    +0.000 A 
ATOM      5  O   UNL     1       1.116   7.983  20.897  0.00  0.00    +0.000 OA
ATOM      6  C   UNL     1       1.889   7.147  20.132  0.00  0.00    +0.000 A 
ATOM      7  C   UNL     1       2.221   5.918  20.699  0.00  0.00    +0.000 A 
ATOM      8  C   UNL     1       3.002   5.007  19.981  0.00  0.00    +0.000 A 
ATOM      9  C   UNL     1       3.472   5.313  18.695  0.00  0.00    +0.000 A 
ATOM     10  C   UNL     1       3.131   6.544  18.129  0.00  0.00    +0.000 A 
ATOM     11  C   UNL     1       2.342   7.452  18.852  0.00  0.00    +0.000 A 
ATOM     12  C   UNL     1       1.958   8.748  18.267  0.00  0.00    +0.000 A 
ATOM     13  O   UNL     1       2.349   9.091  17.161  0.00  0.00    +0.000 OA
ATOM     14  C   UNL     1       1.086   9.612  19.080  0.00  0.00    +0.000 A 
ATOM     15  C   UNL     1       0.627  10.839  18.587  0.00  0.00    +0.000 A 
ENDROOT
BRANCH   1  17
ATOM     16  O   UNL     1      -0.806  13.935  19.476  0.00  0.00    +0.000 OA
ATOM     17  C   UNL     1      -0.701  12.917  18.816  0.00  0.00    +0.000 C 
BRANCH  17  18
ATOM     18  O   UNL     1      -1.054  12.838  17.516  0.00  0.00    +0.000 OA
ATOM     19  H   UNL     1      -1.141  11.937  17.157  0.00  0.00    +0.000 HD
ENDBRANCH  17  18
ENDBRANCH   1  17
BRANCH   9  20
ATOM     20  S   UNL     1       4.407   4.042  17.857  0.00  0.00    +0.000 S 
BRANCH  20  21
ATOM     21  C   UNL     1       3.247   2.622  17.829  0.00  0.00    +0.000 C 
BRANCH  21  22
ATOM     22  C   UNL     1       3.773   1.515  18.741  0.00  0.00    +0.000 C 
BRANCH  22  23
ATOM     23  O   UNL     1       4.853   1.978  19.551  0.00  0.00    +0.000 OA
ATOM     24  H   UNL     1       4.460   2.561  20.227  0.00  0.00    +0.000 HD
ENDBRANCH  22  23
ENDBRANCH  21  22
ENDBRANCH  20  21
ENDBRANCH   9  20
TORSDOF 6
ENDMDL
MODEL 2
REMARK VINA RESULT:      -6.9      2.316      8.108
REMARK  Name = 
REMARK  6 active torsions:
REMARK  status: ('A' for Active; 'I' for Inactive)
REMARK    1  A    between atoms: C_2  and  O_3
REMARK    2  A    between atoms: C_2  and  C_4
REMARK    3  A    between atoms: C_12  and  S_13
REMARK    4  A    between atoms: S_13  and  C_14
REMARK    5  A    between atoms: C_14  and  C_15
REMARK    6  A    between atoms: C_15  and  O_16
REMARK                            x       y       z     vdW  Elec       q    Type
REMARK                         _______ _______ _______ _____ _____    ______ ____
ROOT
ATOM      1  C   UNL     1       4.107   3.525  18.846  0.00  0.00    +0.000 A 
ATOM      2  C   UNL     1       4.581   4.012  17.620  0.00  0.00    +0.000 A 
ATOM      3  C   UNL     1       4.279   5.319  17.224  0.00  0.00    +0.000 A 
ATOM      4  C   UNL     1       3.491   6.136  18.039  0.00  0.00    +0.000 A 
ATOM      5  O   UNL     1       3.229   7.397  17.566  0.00  0.00    +0.000 OA
ATOM      6  C   UNL     1       2.416   8.213  18.311  0.00  0.00    +0.000 A 
ATOM      7  C   UNL     1       2.126   9.462  17.767  0.00  0.00    +0.000 A 
ATOM      8  C   UNL     1       1.300  10.350  18.463  0.00  0.00    +0.000 A 
ATOM      9  C   UNL     1       0.763  10.011  19.713  0.00  0.00    +0.000 A 
ATOM     10  C   UNL     1       1.052   8.754  20.251  0.00  0.00    +0.000 A 
ATOM     11  C   UNL     1       1.877   7.864  19.546  0.00  0.00    +0.000 A 
ATOM     12  C   UNL     1       2.181   6.529  20.088  0.00  0.00    +0.000 A 
ATOM     13  O   UNL     1       1.767   6.174  21.181  0.00  0.00    +0.000 OA
ATOM     14  C   UNL     1       3.013   5.646  19.252  0.00  0.00    +0.000 A 
ATOM     15  C   UNL     1       3.312   4.342  19.660  0.00  0.00    +0.000 A 
ENDROOT
BRANCH   1  17
ATOM     16  O   UNL     1       4.909   1.871  20.351  0.00  0.00    +0.000 OA
ATOM     17  C   UNL     1       4.371   2.133  19.290  0.00  0.00    +0.000 C 
BRANCH  17  18
ATOM     18  O   UNL     1       3.990   1.192  18.401  0.00  0.00    +0.000 OA
ATOM     19  H   UNL     1       3.190   1.399  17.885  0.00  0.00    +0.000 HD
ENDBRANCH  17  18
ENDBRANCH   1  17
BRANCH   9  20
ATOM     20  S   UNL     1      -0.327  11.206  20.472  0.00  0.00    +0.000 S 
BRANCH  20  21
ATOM     21  C   UNL     1      -0.680  12.374  19.104  0.00  0.00    +0.000 C 
BRANCH  21  22
ATOM     22  C   UNL     1      -1.935  11.923  18.359  0.00  0.00    +0.000 C 
BRANCH  22  23
ATOM     23  O   UNL     1      -1.815  12.149  16.955  0.00  0.00    +0.000 OA
ATOM     24  H   UNL     1      -2.587  12.686  16.696  0.00  0.00    +0.000 HD
ENDBRANCH  22  23
ENDBRANCH  21  22
ENDBRANCH  20  21
ENDBRANCH   9  20
TORSDOF 6
ENDMDL
MODEL 3
REMARK VINA RESULT:      -6.9      2.810      7.413
REMARK  Name = 
REMARK  6 active torsions:
REMARK  status: ('A' for Active; 'I' for Inactive)
REMARK    1  A    between atoms: C_2  and  O_3
REMARK    2  A    between atoms: C_2  and  C_4
REMARK    3  A    between atoms: C_12  and  S_13
REMARK    4  A    between atoms: S_13  and  C_14
REMARK    5  A    between atoms: C_14  and  C_15
REMARK    6  A    between atoms: C_15  and  O_16
REMARK                            x       y       z     vdW  Elec       q    Type
REMARK                         _______ _______ _______ _____ _____    ______ ____
ROOT
ATOM      1  C   UNL     1       4.754   5.559  17.500  0.00  0.00    +0.000 A 
ATOM      2  C   UNL     1       4.586   4.820  18.681  0.00  0.00    +0.000 A 
ATOM      3  C   UNL     1       3.676   5.253  19.652  0.00  0.00    +0.000 A 
ATOM      4  C   UNL     1       2.947   6.428  19.457  0.00  0.00    +0.000 A 
ATOM      5  O   UNL     1       2.092   6.788  20.468  0.00  0.00    +0.000 OA
ATOM      6  C   UNL     1       1.396   7.963  20.339  0.00  0.00    +0.000 A 
ATOM      7  C   UNL     1       0.584   8.323  21.413  0.00  0.00    +0.000 A 
ATOM      8  C   UNL     1      -0.154   9.509  21.362  0.00  0.00    +0.000 A 
ATOM      9  C   UNL     1      -0.102  10.346  20.238  0.00  0.00    +0.000 A 
ATOM     10  C   UNL     1       0.718   9.984  19.166  0.00  0.00    +0.000 A 
ATOM     11  C   UNL     1       1.462   8.795  19.225  0.00  0.00    +0.000 A 
ATOM     12  C   UNL     1       2.344   8.403  18.114  0.00  0.00    +0.000 A 
ATOM     13  O   UNL     1       2.423   9.072  17.094  0.00  0.00    +0.000 OA
ATOM     14  C   UNL     1       3.124   7.166  18.288  0.00  0.00    +0.000 A 
ATOM     15  C   UNL     1       4.028   6.741  17.308  0.00  0.00    +0.000 A 
ENDROOT
BRANCH   1  17
ATOM     16  O   UNL     1       6.113   5.915  15.586  0.00  0.00    +0.000 OA
ATOM     17  C   UNL     1       5.733   5.157  16.460  0.00  0.00    +0.000 C 
BRANCH  17  18
ATOM     18  O   UNL     1       6.139   3.874  16.555  0.00  0.00    +0.000 OA
ATOM     19  H   UNL     1       6.409   3.453  15.719  0.00  0.00    +0.000 HD
ENDBRANCH  17  18
ENDBRANCH   1  17
BRANCH   9  20
ATOM     20  S   UNL     1      -1.042  11.863  20.320  0.00  0.00    +0.000 S 
BRANCH  20  21
ATOM     21  C   UNL     1      -1.100  12.413  18.572  0.00  0.00    +0.000 C 
BRANCH  21  22
ATOM     22  C   UNL     1      -2.246  11.704  17.852  0.00  0.00    +0.000 C 
BRANCH  22  23
ATOM     23  O   UNL     1      -2.056  11.713  16.437  0.00  0.00    +0.000 OA
ATOM     24  H   UNL     1      -2.220  10.801  16.132  0.00  0.00    +0.000 HD
ENDBRANCH  22  23
ENDBRANCH  21  22
ENDBRANCH  20  21
ENDBRANCH   9  20
TORSDOF 6
ENDMDL
MODEL 4
REMARK VINA RESULT:      -6.9      2.513      7.526
REMARK  Name = 
REMARK  6 active torsions:
REMARK  status: ('A' for Active; 'I' for Inactive)
REMARK    1  A    between atoms: C_2  and  O_3
REMARK    2  A    between atoms: C_2  and  C_4
REMARK    3  A    between atoms: C_12  and  S_13
REMARK    4  A    between atoms: S_13  and  C_14
REMARK    5  A    between atoms: C_14  and  C_15
REMARK    6  A    between atoms: C_15  and  O_16
REMARK                            x       y       z     vdW  Elec       q    Type
REMARK                         _______ _______ _______ _____ _____    ______ ____
ROOT
ATOM      1  C   UNL     1       3.598   4.660  18.213  0.00  0.00    +0.000 A 
ATOM      2  C   UNL     1       3.245   4.184  19.483  0.00  0.00    +0.000 A 
ATOM      3  C   UNL     1       2.535   5.006  20.365  0.00  0.00    +0.000 A 
ATOM      4  C   UNL     1       2.191   6.307  19.989  0.00  0.00    +0.000 A 
ATOM      5  O   UNL     1       1.511   7.050  20.921  0.00  0.00    +0.000 OA
ATOM      6  C   UNL     1       1.199   8.350  20.612  0.00  0.00    +0.000 A 
ATOM      7  C   UNL     1       0.563   9.087  21.607  0.00  0.00    +0.000 A 
ATOM      8  C   UNL     1       0.217  10.422  21.371  0.00  0.00    +0.000 A 
ATOM      9  C   UNL     1       0.490  11.034  20.140  0.00  0.00    +0.000 A 
ATOM     10  C   UNL     1       1.135  10.291  19.147  0.00  0.00    +0.000 A 
ATOM     11  C   UNL     1       1.485   8.954  19.391  0.00  0.00    +0.000 A 
ATOM     12  C   UNL     1       2.179   8.159  18.364  0.00  0.00    +0.000 A 
ATOM     13  O   UNL     1       2.429   8.619  17.260  0.00  0.00    +0.000 OA
ATOM     14  C   UNL     1       2.552   6.781  18.730  0.00  0.00    +0.000 A 
ATOM     15  C   UNL     1       3.259   5.967  17.839  0.00  0.00    +0.000 A 
ENDROOT
BRANCH   1  17
ATOM     16  O   UNL     1       4.982   4.316  16.314  0.00  0.00    +0.000 OA
ATOM     17  C   UNL     1       4.383   3.837  17.259  0.00  0.00    +0.000 C 
BRANCH  17  18
ATOM     18  O   UNL     1       4.348   2.513  17.520  0.00  0.00    +0.000 OA
ATOM     19  H   UNL     1       4.641   1.932  16.795  0.00  0.00    +0.000 HD
ENDBRANCH  17  18
ENDBRANCH   1  17
BRANCH   9  20
ATOM     20  S   UNL     1       0.056  12.760  19.985  0.00  0.00    +0.000 S 
BRANCH  20  21
ATOM     21  C   UNL     1      -1.754  12.710  19.701  0.00  0.00    +0.000 C 
BRANCH  21  22
ATOM     22  C   UNL     1      -2.048  11.940  18.415  0.00  0.00    +0.000 C 
BRANCH  22  23
ATOM     23  O   UNL     1      -1.362  12.508  17.300  0.00  0.00    +0.000 OA
ATOM     24  H   UNL     1      -2.041  12.686  16.621  0.00  0.00    +0.000 HD
ENDBRANCH  22  23
ENDBRANCH  21  22
ENDBRANCH  20  21
ENDBRANCH   9  20
TORSDOF 6
ENDMDL
MODEL 5
REMARK VINA RESULT:      -6.9      3.036      7.826
REMARK  Name = 
REMARK  6 active torsions:
REMARK  status: ('A' for Active; 'I' for Inactive)
REMARK    1  A    between atoms: C_2  and  O_3
REMARK    2  A    between atoms: C_2  and  C_4
REMARK    3  A    between atoms: C_12  and  S_13
REMARK    4  A    between atoms: S_13  and  C_14
REMARK    5  A    between atoms: C_14  and  C_15
REMARK    6  A    between atoms: C_15  and  O_16
REMARK                            x       y       z     vdW  Elec       q    Type
REMARK                         _______ _______ _______ _____ _____    ______ ____
ROOT
ATOM      1  C   UNL     1       4.151   3.697  18.889  0.00  0.00    +0.000 A 
ATOM      2  C   UNL     1       4.679   4.213  17.697  0.00  0.00    +0.000 A 
ATOM      3  C   UNL     1       4.365   5.518  17.301  0.00  0.00    +0.000 A 
ATOM      4  C   UNL     1       3.514   6.302  18.082  0.00  0.00    +0.000 A 
ATOM      5  O   UNL     1       3.245   7.563  17.611  0.00  0.00    +0.000 OA
ATOM      6  C   UNL     1       2.372   8.348  18.320  0.00  0.00    +0.000 A 
ATOM      7  C   UNL     1       2.079   9.596  17.777  0.00  0.00    +0.000 A 
ATOM      8  C   UNL     1       1.194  10.454  18.437  0.00  0.00    +0.000 A 
ATOM      9  C   UNL     1       0.598  10.083  19.651  0.00  0.00    +0.000 A 
ATOM     10  C   UNL     1       0.889   8.827  20.189  0.00  0.00    +0.000 A 
ATOM     11  C   UNL     1       1.775   7.968  19.518  0.00  0.00    +0.000 A 
ATOM     12  C   UNL     1       2.083   6.634  20.060  0.00  0.00    +0.000 A 
ATOM     13  O   UNL     1       1.618   6.253  21.124  0.00  0.00    +0.000 OA
ATOM     14  C   UNL     1       2.982   5.784  19.260  0.00  0.00    +0.000 A 
ATOM     15  C   UNL     1       3.291   4.482  19.668  0.00  0.00    +0.000 A 
ENDROOT
BRANCH   1  17
ATOM     16  O   UNL     1       4.954   2.045  20.395  0.00  0.00    +0.000 OA
ATOM     17  C   UNL     1       4.427   2.306  19.328  0.00  0.00    +0.000 C 
BRANCH  17  18
ATOM     18  O   UNL     1       4.069   1.366  18.430  0.00  0.00    +0.000 OA
ATOM     19  H   UNL     1       4.597   0.547  18.442  0.00  0.00    +0.000 HD
ENDBRANCH  17  18
ENDBRANCH   1  17
BRANCH   9  20
ATOM     20  S   UNL     1      -0.563  11.240  20.364  0.00  0.00    +0.000 S 
BRANCH  20  21
ATOM     21  C   UNL     1      -0.008  11.366  22.106  0.00  0.00    +0.000 C 
BRANCH  21  22
ATOM     22  C   UNL     1      -0.802  10.385  22.967  0.00  0.00    +0.000 C 
BRANCH  22  23
ATOM     23  O   UNL     1       0.049   9.671  23.862  0.00  0.00    +0.000 OA
ATOM     24  H   UNL     1       0.684  10.322  24.217  0.00  0.00    +0.000 HD
ENDBRANCH  22  23
ENDBRANCH  21  22
ENDBRANCH  20  21
ENDBRANCH   9  20
TORSDOF 6
ENDMDL
MODEL 6
REMARK VINA RESULT:      -6.8      1.739      1.974
REMARK  Name = 
REMARK  6 active torsions:
REMARK  status: ('A' for Active; 'I' for Inactive)
REMARK    1  A    between atoms: C_2  and  O_3
REMARK    2  A    between atoms: C_2  and  C_4
REMARK    3  A    between atoms: C_12  and  S_13
REMARK    4  A    between atoms: S_13  and  C_14
REMARK    5  A    between atoms: C_14  and  C_15
REMARK    6  A    between atoms: C_15  and  O_16
REMARK                            x       y       z     vdW  Elec       q    Type
REMARK                         _______ _______ _______ _____ _____    ______ ____
ROOT
ATOM      1  C   UNL     1       0.077  10.733  20.254  0.00  0.00    +0.000 A 
ATOM      2  C   UNL     1      -0.122  10.017  21.443  0.00  0.00    +0.000 A 
ATOM      3  C   UNL     1       0.458   8.753  21.603  0.00  0.00    +0.000 A 
ATOM      4  C   UNL     1       1.220   8.195  20.574  0.00  0.00    +0.000 A 
ATOM      5  O   UNL     1       1.736   6.945  20.808  0.00  0.00    +0.000 OA
ATOM      6  C   UNL     1       2.447   6.339  19.804  0.00  0.00    +0.000 A 
ATOM      7  C   UNL     1       2.902   5.048  20.059  0.00  0.00    +0.000 A 
ATOM      8  C   UNL     1       3.631   4.360  19.083  0.00  0.00    +0.000 A 
ATOM      9  C   UNL     1       3.924   4.953  17.847  0.00  0.00    +0.000 A 
ATOM     10  C   UNL     1       3.460   6.246  17.593  0.00  0.00    +0.000 A 
ATOM     11  C   UNL     1       2.724   6.930  18.574  0.00  0.00    +0.000 A 
ATOM     12  C   UNL     1       2.212   8.288  18.321  0.00  0.00    +0.000 A 
ATOM     13  O   UNL     1       2.448   8.875  17.276  0.00  0.00    +0.000 OA
ATOM     14  C   UNL     1       1.407   8.904  19.389  0.00  0.00    +0.000 A 
ATOM     15  C   UNL     1       0.836  10.170  19.220  0.00  0.00    +0.000 A 
ENDROOT
BRANCH   1  17
ATOM     16  O   UNL     1      -0.584  12.926  20.881  0.00  0.00    +0.000 OA
ATOM     17  C   UNL     1      -0.549  12.059  20.026  0.00  0.00    +0.000 C 
BRANCH  17  18
ATOM     18  O   UNL     1      -1.097  12.204  18.802  0.00  0.00    +0.000 OA
ATOM     19  H   UNL     1      -1.139  11.396  18.259  0.00  0.00    +0.000 HD
ENDBRANCH  17  18
ENDBRANCH   1  17
BRANCH   9  20
ATOM     20  S   UNL     1       4.807   3.949  16.662  0.00  0.00    +0.000 S 
BRANCH  20  21
ATOM     21  C   UNL     1       6.390   4.849  16.451  0.00  0.00    +0.000 C 
BRANCH  21  22
ATOM     22  C   UNL     1       7.157   4.849  17.772  0.00  0.00    +0.000 C 
BRANCH  22  23
ATOM     23  O   UNL     1       8.320   4.025  17.699  0.00  0.00    +0.000 OA
ATOM     24  H   UNL     1       8.043   3.197  17.263  0.00  0.00    +0.000 HD
ENDBRANCH  22  23
ENDBRANCH  21  22
ENDBRANCH  20  21
ENDBRANCH   9  20
TORSDOF 6
ENDMDL
MODEL 7
REMARK VINA RESULT:      -6.8      2.988      7.609
REMARK  Name = 
REMARK  6 active torsions:
REMARK  status: ('A' for Active; 'I' for Inactive)
REMARK    1  A    between atoms: C_2  and  O_3
REMARK    2  A    between atoms: C_2  and  C_4
REMARK    3  A    between atoms: C_12  and  S_13
REMARK    4  A    between atoms: S_13  and  C_14
REMARK    5  A    between atoms: C_14  and  C_15
REMARK    6  A    between atoms: C_15  and  O_16
REMARK                            x       y       z     vdW  Elec       q    Type
REMARK                         _______ _______ _______ _____ _____    ______ ____
ROOT
ATOM      1  C   UNL     1       5.513   5.031  16.721  0.00  0.00    +0.000 A 
ATOM      2  C   UNL     1       5.427   4.158  17.815  0.00  0.00    +0.000 A 
ATOM      3  C   UNL     1       4.556   4.446  18.871  0.00  0.00    +0.000 A 
ATOM      4  C   UNL     1       3.783   5.610  18.847  0.00  0.00    +0.000 A 
ATOM      5  O   UNL     1       2.970   5.823  19.931  0.00  0.00    +0.000 OA
ATOM      6  C   UNL     1       2.234   6.980  19.972  0.00  0.00    +0.000 A 
ATOM      7  C   UNL     1       1.467   7.187  21.116  0.00  0.00    +0.000 A 
ATOM      8  C   UNL     1       0.693   8.345  21.236  0.00  0.00    +0.000 A 
ATOM      9  C   UNL     1       0.663   9.304  20.215  0.00  0.00    +0.000 A 
ATOM     10  C   UNL     1       1.439   9.095  19.071  0.00  0.00    +0.000 A 
ATOM     11  C   UNL     1       2.219   7.934  18.958  0.00  0.00    +0.000 A 
ATOM     12  C   UNL     1       3.055   7.702  17.769  0.00  0.00    +0.000 A 
ATOM     13  O   UNL     1       3.062   8.483  16.830  0.00  0.00    +0.000 OA
ATOM     14  C   UNL     1       3.879   6.480  17.764  0.00  0.00    +0.000 A 
ATOM     15  C   UNL     1       4.744   6.201  16.700  0.00  0.00    +0.000 A 
ENDROOT
BRANCH   1  17
ATOM     16  O   UNL     1       7.387   5.521  15.346  0.00  0.00    +0.000 OA
ATOM     17  C   UNL     1       6.450   4.784  15.597  0.00  0.00    +0.000 C 
BRANCH  17  18
ATOM     18  O   UNL     1       6.153   3.690  14.865  0.00  0.00    +0.000 OA
ATOM     19  H   UNL     1       5.280   3.293  15.034  0.00  0.00    +0.000 HD
ENDBRANCH  17  18
ENDBRANCH   1  17
BRANCH   9  20
ATOM     20  S   UNL     1      -0.316  10.769  20.515  0.00  0.00    +0.000 S 
BRANCH  20  21
ATOM     21  C   UNL     1      -0.118  11.726  18.964  0.00  0.00    +0.000 C 
BRANCH  21  22
ATOM     22  C   UNL     1      -1.416  11.670  18.160  0.00  0.00    +0.000 C 
BRANCH  22  23
ATOM     23  O   UNL     1      -1.389  12.584  17.064  0.00  0.00    +0.000 OA
ATOM     24  H   UNL     1      -1.078  12.076  16.291  0.00  0.00    +0.000 HD
ENDBRANCH  22  23
ENDBRANCH  21  22
ENDBRANCH  20  21
ENDBRANCH   9  20
TORSDOF 6
ENDMDL
MODEL 8
REMARK VINA RESULT:      -6.7      2.212      2.504
REMARK  Name = 
REMARK  6 active torsions:
REMARK  status: ('A' for Active; 'I' for Inactive)
REMARK    1  A    between atoms: C_2  and  O_3
REMARK    2  A    between atoms: C_2  and  C_4
REMARK    3  A    between atoms: C_12  and  S_13
REMARK    4  A    between atoms: S_13  and  C_14
REMARK    5  A    between atoms: C_14  and  C_15
REMARK    6  A    between atoms: C_15  and  O_16
REMARK                            x       y       z     vdW  Elec       q    Type
REMARK                         _______ _______ _______ _____ _____    ______ ____
ROOT
ATOM      1  C   UNL     1      -0.014  10.672  20.246  0.00  0.00    +0.000 A 
ATOM      2  C   UNL     1      -0.201   9.948  21.432  0.00  0.00    +0.000 A 
ATOM      3  C   UNL     1       0.412   8.701  21.592  0.00  0.00    +0.000 A 
ATOM      4  C   UNL     1       1.196   8.167  20.567  0.00  0.00    +0.000 A 
ATOM      5  O   UNL     1       1.744   6.931  20.802  0.00  0.00    +0.000 OA
ATOM      6  C   UNL     1       2.478   6.347  19.800  0.00  0.00    +0.000 A 
ATOM      7  C   UNL     1       2.967   5.068  20.056  0.00  0.00    +0.000 A 
ATOM      8  C   UNL     1       3.720   4.403  19.083  0.00  0.00    +0.000 A 
ATOM      9  C   UNL     1       4.005   5.007  17.850  0.00  0.00    +0.000 A 
ATOM     10  C   UNL     1       3.507   6.287  17.597  0.00  0.00    +0.000 A 
ATOM     11  C   UNL     1       2.747   6.948  18.575  0.00  0.00    +0.000 A 
ATOM     12  C   UNL     1       2.200   8.292  18.321  0.00  0.00    +0.000 A 
ATOM     13  O   UNL     1       2.426   8.888  17.279  0.00  0.00    +0.000 OA
ATOM     14  C   UNL     1       1.371   8.883  19.386  0.00  0.00    +0.000 A 
ATOM     15  C   UNL     1       0.766  10.133  19.215  0.00  0.00    +0.000 A 
ENDROOT
BRANCH   1  17
ATOM     16  O   UNL     1      -1.167  12.294  18.948  0.00  0.00    +0.000 OA
ATOM     17  C   UNL     1      -0.674  11.982  20.017  0.00  0.00    +0.000 C 
BRANCH  17  18
ATOM     18  O   UNL     1      -0.653  12.801  21.090  0.00  0.00    +0.000 OA
ATOM     19  H   UNL     1      -0.403  13.725  20.910  0.00  0.00    +0.000 HD
ENDBRANCH  17  18
ENDBRANCH   1  17
BRANCH   9  20
ATOM     20  S   UNL     1       4.923   4.030  16.669  0.00  0.00    +0.000 S 
BRANCH  20  21
ATOM     21  C   UNL     1       5.618   5.292  15.536  0.00  0.00    +0.000 C 
BRANCH  21  22
ATOM     22  C   UNL     1       6.590   4.626  14.564  0.00  0.00    +0.000 C 
BRANCH  22  23
ATOM     23  O   UNL     1       7.742   5.439  14.341  0.00  0.00    +0.000 OA
ATOM     24  H   UNL     1       7.506   6.061  13.628  0.00  0.00    +0.000 HD
ENDBRANCH  22  23
ENDBRANCH  21  22
ENDBRANCH  20  21
ENDBRANCH   9  20
TORSDOF 6
ENDMDL
MODEL 9
REMARK VINA RESULT:      -6.7      2.924      7.639
REMARK  Name = 
REMARK  6 active torsions:
REMARK  status: ('A' for Active; 'I' for Inactive)
REMARK    1  A    between atoms: C_2  and  O_3
REMARK    2  A    between atoms: C_2  and  C_4
REMARK    3  A    between atoms: C_12  and  S_13
REMARK    4  A    between atoms: S_13  and  C_14
REMARK    5  A    between atoms: C_14  and  C_15
REMARK    6  A    between atoms: C_15  and  O_16
REMARK                            x       y       z     vdW  Elec       q    Type
REMARK                         _______ _______ _______ _____ _____    ______ ____
ROOT
ATOM      1  C   UNL     1       5.393   4.719  17.214  0.00  0.00    +0.000 A 
ATOM      2  C   UNL     1       5.168   4.018  18.408  0.00  0.00    +0.000 A 
ATOM      3  C   UNL     1       4.257   4.513  19.347  0.00  0.00    +0.000 A 
ATOM      4  C   UNL     1       3.583   5.713  19.108  0.00  0.00    +0.000 A 
ATOM      5  O   UNL     1       2.722   6.134  20.090  0.00  0.00    +0.000 OA
ATOM      6  C   UNL     1       2.080   7.334  19.917  0.00  0.00    +0.000 A 
ATOM      7  C   UNL     1       1.262   7.754  20.963  0.00  0.00    +0.000 A 
ATOM      8  C   UNL     1       0.576   8.969  20.866  0.00  0.00    +0.000 A 
ATOM      9  C   UNL     1       0.688   9.774  19.724  0.00  0.00    +0.000 A 
ATOM     10  C   UNL     1       1.515   9.351  18.680  0.00  0.00    +0.000 A 
ATOM     11  C   UNL     1       2.205   8.133  18.785  0.00  0.00    +0.000 A 
ATOM     12  C   UNL     1       3.094   7.677  17.703  0.00  0.00    +0.000 A 
ATOM     13  O   UNL     1       3.223   8.315  16.669  0.00  0.00    +0.000 OA
ATOM     14  C   UNL     1       3.816   6.413  17.926  0.00  0.00    +0.000 A 
ATOM     15  C   UNL     1       4.722   5.925  16.977  0.00  0.00    +0.000 A 
ENDROOT
BRANCH   1  17
ATOM     16  O   UNL     1       7.381   4.878  15.925  0.00  0.00    +0.000 OA
ATOM     17  C   UNL     1       6.376   4.250  16.206  0.00  0.00    +0.000 C 
BRANCH  17  18
ATOM     18  O   UNL     1       6.041   3.085  15.613  0.00  0.00    +0.000 OA
ATOM     19  H   UNL     1       6.396   2.950  14.716  0.00  0.00    +0.000 HD
ENDBRANCH  17  18
ENDBRANCH   1  17
BRANCH   9  20
ATOM     20  S   UNL     1      -0.188  11.332  19.748  0.00  0.00    +0.000 S 
BRANCH  20  21
ATOM     21  C   UNL     1       1.164  12.569  19.751  0.00  0.00    +0.000 C 
BRANCH  21  22
ATOM     22  C   UNL     1       1.253  13.232  18.377  0.00  0.00    +0.000 C 
BRANCH  22  23
ATOM     23  O   UNL     1       2.306  12.668  17.596  0.00  0.00    +0.000 OA
ATOM     24  H   UNL     1       2.107  11.716  17.512  0.00  0.00    +0.000 HD
ENDBRANCH  22  23
ENDBRANCH  21  22
ENDBRANCH  20  21
ENDBRANCH   9  20
TORSDOF 6
ENDMDL
