MODEL 1
REMARK VINA RESULT:      -7.4      0.000      0.000
REMARK  Name = 
REMARK  10 active torsions:
REMARK  status: ('A' for Active; 'I' for Inactive)
REMARK    1  A    between atoms: C_1  and  S_2
REMARK    2  A    between atoms: S_2  and  N_5
REMARK    3  A    between atoms: C_10  and  C_11
REMARK    4  A    between atoms: C_16  and  C_17
REMARK    5  A    between atoms: C_18  and  C_19
REMARK    6  A    between atoms: C_19  and  O_20
REMARK    7  A    between atoms: N_23  and  C_24
REMARK    8  A    between atoms: C_24  and  C_25
REMARK    9  A    between atoms: C_25  and  C_26
REMARK   10  A    between atoms: C_26  and  N_27
REMARK                            x       y       z     vdW  Elec       q    Type
REMARK                         _______ _______ _______ _____ _____    ______ ____
ROOT
ATOM      1  N   UNL     1       1.837   3.164  17.833  0.00  0.00    +0.000 NA
ATOM      2  C   UNL     1       3.109   2.618  17.269  0.00  0.00    +0.000 C 
ATOM      3  C   UNL     1       4.351   3.092  18.058  0.00  0.00    +0.000 C 
ATOM      4  C   UNL     1       4.148   4.505  18.496  0.00  0.00    +0.000 A 
ATOM      5  C   UNL     1       2.982   5.229  18.308  0.00  0.00    +0.000 A 
ATOM      6  C   UNL     1       3.260   6.527  18.819  0.00  0.00    +0.000 A 
ATOM      7  N   UNL     1       4.472   6.539  19.406  0.00  0.00    +0.000 NA
ATOM      8  N   UNL     1       4.980   5.298  19.220  0.00  0.00    +0.000 N 
ATOM      9  C   UNL     1       1.739   4.644  17.729  0.00  0.00    +0.000 C 
ENDROOT
BRANCH   6  10
ATOM     10  C   UNL     1       2.393   7.719  18.817  0.00  0.00    +0.000 A 
ATOM     11  C   UNL     1       2.343   8.537  17.683  0.00  0.00    +0.000 A 
ATOM     12  C   UNL     1       1.556   9.690  17.666  0.00  0.00    +0.000 A 
ATOM     13  C   UNL     1       0.807  10.052  18.790  0.00  0.00    +0.000 A 
ATOM     14 CL   UNL     1      -0.125  11.505  18.705  0.00  0.00    +0.000 Cl
ATOM     15  C   UNL     1       0.841   9.255  19.942  0.00  0.00    +0.000 A 
ATOM     16  C   UNL     1       1.613   8.082  19.934  0.00  0.00    +0.000 A 
BRANCH  15  17
ATOM     17  C   UNL     1       0.126   9.618  21.137  0.00  0.00    +0.000 C 
ATOM     18  C   UNL     1      -0.410   9.959  22.159  0.00  0.00    +0.000 C 
BRANCH  18  19
ATOM     19  C   UNL     1      -1.009  10.415  23.415  0.00  0.00    +0.000 C 
BRANCH  19  20
ATOM     20  O   UNL     1      -1.966  11.432  23.157  0.00  0.00    +0.000 OA
ATOM     21  H   UNL     1      -2.063  11.938  23.980  0.00  0.00    +0.000 HD
ENDBRANCH  19  20
ENDBRANCH  18  19
ENDBRANCH  15  17
ENDBRANCH   6  10
BRANCH   1  23
ATOM     22  C   UNL     1       0.752   3.752  20.302  0.00  0.00    +0.000 C 
ATOM     23  S   UNL     1       1.135   2.425  19.167  0.00  0.00    +0.000 S 
ATOM     24  O   UNL     1       2.141   1.592  19.793  0.00  0.00    +0.000 OA
ATOM     25  O   UNL     1      -0.127   1.863  18.732  0.00  0.00    +0.000 OA
ENDBRANCH   1  23
BRANCH   8  26
ATOM     26  C   UNL     1       6.347   5.001  19.691  0.00  0.00    +0.000 C 
BRANCH  26  27
ATOM     27  C   UNL     1       7.312   5.415  18.593  0.00  0.00    +0.000 C 
BRANCH  27  28
ATOM     28  C   UNL     1       7.646   4.465  17.427  0.00  0.00    +0.000 C 
BRANCH  28  29
ATOM     29  N   UNL     1       7.569   5.263  16.193  0.00  0.00    +0.000 NA
ATOM     30  C   UNL     1       6.982   6.608  16.312  0.00  0.00    +0.000 C 
ATOM     31  C   UNL     1       5.474   6.647  16.075  0.00  0.00    +0.000 C 
ATOM     32  O   UNL     1       5.182   6.191  14.755  0.00  0.00    +0.000 OA
ATOM     33  C   UNL     1       5.597   4.828  14.606  0.00  0.00    +0.000 C 
ATOM     34  C   UNL     1       7.081   4.600  14.973  0.00  0.00    +0.000 C 
ENDBRANCH  28  29
ENDBRANCH  27  28
ENDBRANCH  26  27
ENDBRANCH   8  26
TORSDOF 9
ENDMDL
MODEL 2
REMARK VINA RESULT:      -7.1      3.397      8.201
REMARK  Name = 
REMARK  10 active torsions:
REMARK  status: ('A' for Active; 'I' for Inactive)
REMARK    1  A    between atoms: C_1  and  S_2
REMARK    2  A    between atoms: S_2  and  N_5
REMARK    3  A    between atoms: C_10  and  C_11
REMARK    4  A    between atoms: C_16  and  C_17
REMARK    5  A    between atoms: C_18  and  C_19
REMARK    6  A    between atoms: C_19  and  O_20
REMARK    7  A    between atoms: N_23  and  C_24
REMARK    8  A    between atoms: C_24  and  C_25
REMARK    9  A    between atoms: C_25  and  C_26
REMARK   10  A    between atoms: C_26  and  N_27
REMARK                            x       y       z     vdW  Elec       q    Type
REMARK                         _______ _______ _______ _____ _____    ______ ____
ROOT
ATOM      1  N   UNL     1       3.308   3.297  19.087  0.00  0.00    +0.000 NA
ATOM      2  C   UNL     1       3.529   4.241  20.224  0.00  0.00    +0.000 C 
ATOM      3  C   UNL     1       3.315   5.716  19.812  0.00  0.00    +0.000 C 
ATOM      4  C   UNL     1       3.824   5.918  18.422  0.00  0.00    +0.000 A 
ATOM      5  C   UNL     1       4.310   4.910  17.605  0.00  0.00    +0.000 A 
ATOM      6  C   UNL     1       4.734   5.563  16.415  0.00  0.00    +0.000 A 
ATOM      7  N   UNL     1       4.392   6.865  16.460  0.00  0.00    +0.000 NA
ATOM      8  N   UNL     1       3.820   7.051  17.672  0.00  0.00    +0.000 N 
ATOM      9  C   UNL     1       4.291   3.469  17.985  0.00  0.00    +0.000 C 
ENDROOT
BRANCH   6  10
ATOM     10  C   UNL     1       5.391   4.980  15.232  0.00  0.00    +0.000 A 
ATOM     11  C   UNL     1       6.788   4.947  15.162  0.00  0.00    +0.000 A 
ATOM     12  C   UNL     1       7.436   4.431  14.038  0.00  0.00    +0.000 A 
ATOM     13  C   UNL     1       6.696   3.940  12.957  0.00  0.00    +0.000 A 
ATOM     14 CL   UNL     1       7.566   3.337  11.591  0.00  0.00    +0.000 Cl
ATOM     15  C   UNL     1       5.296   3.963  12.998  0.00  0.00    +0.000 A 
ATOM     16  C   UNL     1       4.658   4.458  14.147  0.00  0.00    +0.000 A 
BRANCH  15  17
ATOM     17  C   UNL     1       4.497   3.516  11.888  0.00  0.00    +0.000 C 
ATOM     18  C   UNL     1       3.831   3.213  10.933  0.00  0.00    +0.000 C 
BRANCH  18  19
ATOM     19  C   UNL     1       3.031   2.906   9.745  0.00  0.00    +0.000 C 
BRANCH  19  20
ATOM     20  O   UNL     1       2.861   4.073   8.956  0.00  0.00    +0.000 OA
ATOM     21  H   UNL     1       1.988   4.003   8.539  0.00  0.00    +0.000 HD
ENDBRANCH  19  20
ENDBRANCH  18  19
ENDBRANCH  15  17
ENDBRANCH   6  10
BRANCH   1  23
ATOM     22  C   UNL     1       0.705   3.465  19.990  0.00  0.00    +0.000 C 
ATOM     23  S   UNL     1       1.745   2.840  18.677  0.00  0.00    +0.000 S 
ATOM     24  O   UNL     1       1.680   1.394  18.722  0.00  0.00    +0.000 OA
ATOM     25  O   UNL     1       1.388   3.562  17.474  0.00  0.00    +0.000 OA
ENDBRANCH   1  23
BRANCH   8  26
ATOM     26  C   UNL     1       3.392   8.408  18.067  0.00  0.00    +0.000 C 
BRANCH  26  27
ATOM     27  C   UNL     1       1.885   8.486  17.882  0.00  0.00    +0.000 C 
BRANCH  27  28
ATOM     28  C   UNL     1       1.140   9.831  17.976  0.00  0.00    +0.000 C 
BRANCH  28  29
ATOM     29  N   UNL     1       0.228   9.732  19.126  0.00  0.00    +0.000 NA
ATOM     30  C   UNL     1      -1.084  10.386  18.987  0.00  0.00    +0.000 C 
ATOM     31  C   UNL     1      -1.108  11.832  19.475  0.00  0.00    +0.000 C 
ATOM     32  O   UNL     1      -0.776  11.878  20.862  0.00  0.00    +0.000 OA
ATOM     33  C   UNL     1       0.554  11.387  21.062  0.00  0.00    +0.000 C 
ATOM     34  C   UNL     1       0.780   9.978  20.468  0.00  0.00    +0.000 C 
ENDBRANCH  28  29
ENDBRANCH  27  28
ENDBRANCH  26  27
ENDBRANCH   8  26
TORSDOF 9
ENDMDL
MODEL 3
REMARK VINA RESULT:      -7.1      1.763      2.218
REMARK  Name = 
REMARK  10 active torsions:
REMARK  status: ('A' for Active; 'I' for Inactive)
REMARK    1  A    between atoms: C_1  and  S_2
REMARK    2  A    between atoms: S_2  and  N_5
REMARK    3  A    between atoms: C_10  and  C_11
REMARK    4  A    between atoms: C_16  and  C_17
REMARK    5  A    between atoms: C_18  and  C_19
REMARK    6  A    between atoms: C_19  and  O_20
REMARK    7  A    between atoms: N_23  and  C_24
REMARK    8  A    between atoms: C_24  and  C_25
REMARK    9  A    between atoms: C_25  and  C_26
REMARK   10  A    between atoms: C_26  and  N_27
REMARK                            x       y       z     vdW  Elec       q    Type
REMARK                         _______ _______ _______ _____ _____    ______ ____
ROOT
ATOM      1  N   UNL     1       1.841   2.995  19.842  0.00  0.00    +0.000 NA
ATOM      2  C   UNL     1       2.576   2.104  18.893  0.00  0.00    +0.000 C 
ATOM      3  C   UNL     1       4.014   2.600  18.617  0.00  0.00    +0.000 C 
ATOM      4  C   UNL     1       4.019   4.093  18.565  0.00  0.00    +0.000 A 
ATOM      5  C   UNL     1       2.921   4.895  18.830  0.00  0.00    +0.000 A 
ATOM      6  C   UNL     1       3.366   6.227  18.601  0.00  0.00    +0.000 A 
ATOM      7  N   UNL     1       4.689   6.232  18.352  0.00  0.00    +0.000 NA
ATOM      8  N   UNL     1       5.067   4.933  18.360  0.00  0.00    +0.000 N 
ATOM      9  C   UNL     1       1.612   4.361  19.302  0.00  0.00    +0.000 C 
ENDROOT
BRANCH   6  10
ATOM     10  C   UNL     1       2.590   7.478  18.672  0.00  0.00    +0.000 A 
ATOM     11  C   UNL     1       2.564   8.339  17.569  0.00  0.00    +0.000 A 
ATOM     12  C   UNL     1       1.865   9.547  17.621  0.00  0.00    +0.000 A 
ATOM     13  C   UNL     1       1.182   9.920  18.783  0.00  0.00    +0.000 A 
ATOM     14 CL   UNL     1       0.358  11.439  18.782  0.00  0.00    +0.000 Cl
ATOM     15  C   UNL     1       1.194   9.079  19.904  0.00  0.00    +0.000 A 
ATOM     16  C   UNL     1       1.876   7.855  19.828  0.00  0.00    +0.000 A 
BRANCH  15  17
ATOM     17  C   UNL     1       0.547   9.449  21.135  0.00  0.00    +0.000 C 
ATOM     18  C   UNL     1      -0.059   9.757  22.127  0.00  0.00    +0.000 C 
BRANCH  18  19
ATOM     19  C   UNL     1      -0.855  10.121  23.302  0.00  0.00    +0.000 C 
BRANCH  19  20
ATOM     20  O   UNL     1      -1.665  11.249  23.011  0.00  0.00    +0.000 OA
ATOM     21  H   UNL     1      -2.579  10.927  22.944  0.00  0.00    +0.000 HD
ENDBRANCH  19  20
ENDBRANCH  18  19
ENDBRANCH  15  17
ENDBRANCH   6  10
BRANCH   1  23
ATOM     22  C   UNL     1       3.519   1.771  21.661  0.00  0.00    +0.000 C 
ATOM     23  S   UNL     1       2.094   2.838  21.494  0.00  0.00    +0.000 S 
ATOM     24  O   UNL     1       0.957   2.136  22.052  0.00  0.00    +0.000 OA
ATOM     25  O   UNL     1       2.481   4.141  21.995  0.00  0.00    +0.000 OA
ENDBRANCH   1  23
BRANCH   8  26
ATOM     26  C   UNL     1       6.468   4.587  18.045  0.00  0.00    +0.000 C 
BRANCH  26  27
ATOM     27  C   UNL     1       6.659   4.762  16.548  0.00  0.00    +0.000 C 
BRANCH  27  28
ATOM     28  C   UNL     1       6.033   3.773  15.546  0.00  0.00    +0.000 C 
BRANCH  28  29
ATOM     29  N   UNL     1       5.814   4.518  14.296  0.00  0.00    +0.000 NA
ATOM     30  C   UNL     1       5.295   3.751  13.151  0.00  0.00    +0.000 C 
ATOM     31  C   UNL     1       6.384   3.163  12.257  0.00  0.00    +0.000 C 
ATOM     32  O   UNL     1       7.180   4.215  11.714  0.00  0.00    +0.000 OA
ATOM     33  C   UNL     1       7.838   4.924  12.769  0.00  0.00    +0.000 C 
ATOM     34  C   UNL     1       6.866   5.446  13.851  0.00  0.00    +0.000 C 
ENDBRANCH  28  29
ENDBRANCH  27  28
ENDBRANCH  26  27
ENDBRANCH   8  26
TORSDOF 9
ENDMDL
MODEL 4
REMARK VINA RESULT:      -7.0      4.738      9.502
REMARK  Name = 
REMARK  10 active torsions:
REMARK  status: ('A' for Active; 'I' for Inactive)
REMARK    1  A    between atoms: C_1  and  S_2
REMARK    2  A    between atoms: S_2  and  N_5
REMARK    3  A    between atoms: C_10  and  C_11
REMARK    4  A    between atoms: C_16  and  C_17
REMARK    5  A    between atoms: C_18  and  C_19
REMARK    6  A    between atoms: C_19  and  O_20
REMARK    7  A    between atoms: N_23  and  C_24
REMARK    8  A    between atoms: C_24  and  C_25
REMARK    9  A    between atoms: C_25  and  C_26
REMARK   10  A    between atoms: C_26  and  N_27
REMARK                            x       y       z     vdW  Elec       q    Type
REMARK                         _______ _______ _______ _____ _____    ______ ____
ROOT
ATOM      1  N   UNL     1       0.641  10.945  21.990  0.00  0.00    +0.000 NA
ATOM      2  C   UNL     1       0.219  12.283  21.474  0.00  0.00    +0.000 C 
ATOM      3  C   UNL     1      -0.677  12.173  20.220  0.00  0.00    +0.000 C 
ATOM      4  C   UNL     1      -0.198  11.042  19.370  0.00  0.00    +0.000 A 
ATOM      5  C   UNL     1       0.823  10.172  19.716  0.00  0.00    +0.000 A 
ATOM      6  C   UNL     1       0.976   9.308  18.596  0.00  0.00    +0.000 A 
ATOM      7  N   UNL     1       0.010   9.555  17.691  0.00  0.00    +0.000 NA
ATOM      8  N   UNL     1      -0.703  10.591  18.192  0.00  0.00    +0.000 N 
ATOM      9  C   UNL     1       1.508  10.199  21.039  0.00  0.00    +0.000 C 
ENDROOT
BRANCH   6  10
ATOM     10  C   UNL     1       1.963   8.232  18.395  0.00  0.00    +0.000 A 
ATOM     11  C   UNL     1       2.982   8.396  17.449  0.00  0.00    +0.000 A 
ATOM     12  C   UNL     1       3.910   7.380  17.214  0.00  0.00    +0.000 A 
ATOM     13  C   UNL     1       3.833   6.174  17.919  0.00  0.00    +0.000 A 
ATOM     14 CL   UNL     1       5.002   4.953  17.560  0.00  0.00    +0.000 Cl
ATOM     15  C   UNL     1       2.821   5.981  18.870  0.00  0.00    +0.000 A 
ATOM     16  C   UNL     1       1.913   7.022  19.117  0.00  0.00    +0.000 A 
BRANCH  15  17
ATOM     17  C   UNL     1       2.675   4.738  19.579  0.00  0.00    +0.000 C 
ATOM     18  C   UNL     1       2.486   3.722  20.196  0.00  0.00    +0.000 C 
BRANCH  18  19
ATOM     19  C   UNL     1       2.192   2.506  20.958  0.00  0.00    +0.000 C 
BRANCH  19  20
ATOM     20  O   UNL     1       2.527   2.694  22.324  0.00  0.00    +0.000 OA
ATOM     21  H   UNL     1       1.739   3.062  22.757  0.00  0.00    +0.000 HD
ENDBRANCH  19  20
ENDBRANCH  18  19
ENDBRANCH  15  17
ENDBRANCH   6  10
BRANCH   1  23
ATOM     22  C   UNL     1      -0.792   8.586  22.013  0.00  0.00    +0.000 C 
ATOM     23  S   UNL     1      -0.409  10.057  22.954  0.00  0.00    +0.000 S 
ATOM     24  O   UNL     1      -1.634  10.817  23.091  0.00  0.00    +0.000 OA
ATOM     25  O   UNL     1       0.335   9.632  24.121  0.00  0.00    +0.000 OA
ENDBRANCH   1  23
BRANCH   8  26
ATOM     26  C   UNL     1      -1.809  11.157  17.394  0.00  0.00    +0.000 C 
BRANCH  26  27
ATOM     27  C   UNL     1      -3.096  10.494  17.856  0.00  0.00    +0.000 C 
BRANCH  27  28
ATOM     28  C   UNL     1      -4.471  11.057  17.449  0.00  0.00    +0.000 C 
BRANCH  28  29
ATOM     29  N   UNL     1      -5.267  11.166  18.682  0.00  0.00    +0.000 NA
ATOM     30  C   UNL     1      -6.726  11.031  18.541  0.00  0.00    +0.000 C 
ATOM     31  C   UNL     1      -7.450  12.356  18.314  0.00  0.00    +0.000 C 
ATOM     32  O   UNL     1      -7.227  13.223  19.424  0.00  0.00    +0.000 OA
ATOM     33  C   UNL     1      -5.831  13.520  19.539  0.00  0.00    +0.000 C 
ATOM     34  C   UNL     1      -4.944  12.257  19.616  0.00  0.00    +0.000 C 
ENDBRANCH  28  29
ENDBRANCH  27  28
ENDBRANCH  26  27
ENDBRANCH   8  26
TORSDOF 9
ENDMDL
MODEL 5
REMARK VINA RESULT:      -6.9      4.624      9.434
REMARK  Name = 
REMARK  10 active torsions:
REMARK  status: ('A' for Active; 'I' for Inactive)
REMARK    1  A    between atoms: C_1  and  S_2
REMARK    2  A    between atoms: S_2  and  N_5
REMARK    3  A    between atoms: C_10  and  C_11
REMARK    4  A    between atoms: C_16  and  C_17
REMARK    5  A    between atoms: C_18  and  C_19
REMARK    6  A    between atoms: C_19  and  O_20
REMARK    7  A    between atoms: N_23  and  C_24
REMARK    8  A    between atoms: C_24  and  C_25
REMARK    9  A    between atoms: C_25  and  C_26
REMARK   10  A    between atoms: C_26  and  N_27
REMARK                            x       y       z     vdW  Elec       q    Type
REMARK                         _______ _______ _______ _____ _____    ______ ____
ROOT
ATOM      1  N   UNL     1       0.616  11.046  22.031  0.00  0.00    +0.000 NA
ATOM      2  C   UNL     1       0.175  12.376  21.511  0.00  0.00    +0.000 C 
ATOM      3  C   UNL     1      -0.712  12.249  20.251  0.00  0.00    +0.000 C 
ATOM      4  C   UNL     1      -0.209  11.126  19.405  0.00  0.00    +0.000 A 
ATOM      5  C   UNL     1       0.825  10.274  19.758  0.00  0.00    +0.000 A 
ATOM      6  C   UNL     1       1.000   9.412  18.640  0.00  0.00    +0.000 A 
ATOM      7  N   UNL     1       0.035   9.642  17.729  0.00  0.00    +0.000 NA
ATOM      8  N   UNL     1      -0.699  10.665  18.225  0.00  0.00    +0.000 N 
ATOM      9  C   UNL     1       1.502  10.314  21.086  0.00  0.00    +0.000 C 
ENDROOT
BRANCH   6  10
ATOM     10  C   UNL     1       2.006   8.353  18.446  0.00  0.00    +0.000 A 
ATOM     11  C   UNL     1       2.975   8.494  17.446  0.00  0.00    +0.000 A 
ATOM     12  C   UNL     1       3.920   7.492  17.219  0.00  0.00    +0.000 A 
ATOM     13  C   UNL     1       3.909   6.322  17.985  0.00  0.00    +0.000 A 
ATOM     14 CL   UNL     1       5.093   5.114  17.632  0.00  0.00    +0.000 Cl
ATOM     15  C   UNL     1       2.948   6.151  18.990  0.00  0.00    +0.000 A 
ATOM     16  C   UNL     1       2.023   7.180  19.228  0.00  0.00    +0.000 A 
BRANCH  15  17
ATOM     17  C   UNL     1       2.869   4.942  19.766  0.00  0.00    +0.000 C 
ATOM     18  C   UNL     1       2.732   3.924  20.394  0.00  0.00    +0.000 C 
BRANCH  18  19
ATOM     19  C   UNL     1       2.505   2.677  21.127  0.00  0.00    +0.000 C 
BRANCH  19  20
ATOM     20  O   UNL     1       1.915   2.953  22.388  0.00  0.00    +0.000 OA
ATOM     21  H   UNL     1       1.021   2.575  22.367  0.00  0.00    +0.000 HD
ENDBRANCH  19  20
ENDBRANCH  18  19
ENDBRANCH  15  17
ENDBRANCH   6  10
BRANCH   1  23
ATOM     22  C   UNL     1      -0.822   8.690  22.024  0.00  0.00    +0.000 C 
ATOM     23  S   UNL     1      -0.424  10.141  22.989  0.00  0.00    +0.000 S 
ATOM     24  O   UNL     1      -1.646  10.901  23.156  0.00  0.00    +0.000 OA
ATOM     25  O   UNL     1       0.333   9.690  24.138  0.00  0.00    +0.000 OA
ENDBRANCH   1  23
BRANCH   8  26
ATOM     26  C   UNL     1      -1.810  11.212  17.420  0.00  0.00    +0.000 C 
BRANCH  26  27
ATOM     27  C   UNL     1      -3.022  11.328  18.328  0.00  0.00    +0.000 C 
BRANCH  27  28
ATOM     28  C   UNL     1      -4.300  10.512  18.057  0.00  0.00    +0.000 C 
BRANCH  28  29
ATOM     29  N   UNL     1      -5.438  11.415  18.292  0.00  0.00    +0.000 NA
ATOM     30  C   UNL     1      -5.225  12.511  19.252  0.00  0.00    +0.000 C 
ATOM     31  C   UNL     1      -5.598  12.154  20.688  0.00  0.00    +0.000 C 
ATOM     32  O   UNL     1      -6.983  11.817  20.757  0.00  0.00    +0.000 OA
ATOM     33  C   UNL     1      -7.244  10.661  19.954  0.00  0.00    +0.000 C 
ATOM     34  C   UNL     1      -6.766  10.813  18.492  0.00  0.00    +0.000 C 
ENDBRANCH  28  29
ENDBRANCH  27  28
ENDBRANCH  26  27
ENDBRANCH   8  26
TORSDOF 9
ENDMDL
MODEL 6
REMARK VINA RESULT:      -6.8      3.104      8.030
REMARK  Name = 
REMARK  10 active torsions:
REMARK  status: ('A' for Active; 'I' for Inactive)
REMARK    1  A    between atoms: C_1  and  S_2
REMARK    2  A    between atoms: S_2  and  N_5
REMARK    3  A    between atoms: C_10  and  C_11
REMARK    4  A    between atoms: C_16  and  C_17
REMARK    5  A    between atoms: C_18  and  C_19
REMARK    6  A    between atoms: C_19  and  O_20
REMARK    7  A    between atoms: N_23  and  C_24
REMARK    8  A    between atoms: C_24  and  C_25
REMARK    9  A    between atoms: C_25  and  C_26
REMARK   10  A    between atoms: C_26  and  N_27
REMARK                            x       y       z     vdW  Elec       q    Type
REMARK                         _______ _______ _______ _____ _____    ______ ____
ROOT
ATOM      1  N   UNL     1       2.852   3.398  20.149  0.00  0.00    +0.000 NA
ATOM      2  C   UNL     1       2.548   4.264  21.328  0.00  0.00    +0.000 C 
ATOM      3  C   UNL     1       2.007   5.652  20.914  0.00  0.00    +0.000 C 
ATOM      4  C   UNL     1       2.714   6.107  19.679  0.00  0.00    +0.000 A 
ATOM      5  C   UNL     1       3.631   5.349  18.969  0.00  0.00    +0.000 A 
ATOM      6  C   UNL     1       4.086   6.196  17.921  0.00  0.00    +0.000 A 
ATOM      7  N   UNL     1       3.380   7.342  17.918  0.00  0.00    +0.000 NA
ATOM      8  N   UNL     1       2.539   7.256  18.975  0.00  0.00    +0.000 N 
ATOM      9  C   UNL     1       3.951   3.931  19.300  0.00  0.00    +0.000 C 
ENDROOT
BRANCH   6  10
ATOM     10  C   UNL     1       5.116   5.922  16.903  0.00  0.00    +0.000 A 
ATOM     11  C   UNL     1       6.372   6.531  17.007  0.00  0.00    +0.000 A 
ATOM     12  C   UNL     1       7.354   6.316  16.039  0.00  0.00    +0.000 A 
ATOM     13  C   UNL     1       7.096   5.490  14.940  0.00  0.00    +0.000 A 
ATOM     14 CL   UNL     1       8.351   5.288  13.769  0.00  0.00    +0.000 Cl
ATOM     15  C   UNL     1       5.846   4.870  14.807  0.00  0.00    +0.000 A 
ATOM     16  C   UNL     1       4.878   5.071  15.804  0.00  0.00    +0.000 A 
BRANCH  15  17
ATOM     17  C   UNL     1       5.522   4.055  13.667  0.00  0.00    +0.000 C 
ATOM     18  C   UNL     1       5.315   3.397  12.681  0.00  0.00    +0.000 C 
BRANCH  18  19
ATOM     19  C   UNL     1       5.124   2.612  11.459  0.00  0.00    +0.000 C 
BRANCH  19  20
ATOM     20  O   UNL     1       5.881   1.413  11.528  0.00  0.00    +0.000 OA
ATOM     21  H   UNL     1       5.378   0.738  11.043  0.00  0.00    +0.000 HD
ENDBRANCH  19  20
ENDBRANCH  18  19
ENDBRANCH  15  17
ENDBRANCH   6  10
BRANCH   1  23
ATOM     22  C   UNL     1       1.267   3.480  17.890  0.00  0.00    +0.000 C 
ATOM     23  S   UNL     1       1.610   2.564  19.387  0.00  0.00    +0.000 S 
ATOM     24  O   UNL     1       0.436   2.652  20.229  0.00  0.00    +0.000 OA
ATOM     25  O   UNL     1       2.140   1.278  18.984  0.00  0.00    +0.000 OA
ENDBRANCH   1  23
BRANCH   8  26
ATOM     26  C   UNL     1       1.663   8.401  19.295  0.00  0.00    +0.000 C 
BRANCH  26  27
ATOM     27  C   UNL     1       1.936   9.489  18.269  0.00  0.00    +0.000 C 
BRANCH  27  28
ATOM     28  C   UNL     1       0.996  10.700  18.124  0.00  0.00    +0.000 C 
BRANCH  28  29
ATOM     29  N   UNL     1      -0.126  10.479  19.051  0.00  0.00    +0.000 NA
ATOM     30  C   UNL     1      -1.446  10.235  18.444  0.00  0.00    +0.000 C 
ATOM     31  C   UNL     1      -2.268  11.502  18.225  0.00  0.00    +0.000 C 
ATOM     32  O   UNL     1      -2.508  12.143  19.476  0.00  0.00    +0.000 OA
ATOM     33  C   UNL     1      -1.267  12.544  20.066  0.00  0.00    +0.000 C 
ATOM     34  C   UNL     1      -0.256  11.383  20.204  0.00  0.00    +0.000 C 
ENDBRANCH  28  29
ENDBRANCH  27  28
ENDBRANCH  26  27
ENDBRANCH   8  26
TORSDOF 9
ENDMDL
MODEL 7
REMARK VINA RESULT:      -6.8      3.296      8.140
REMARK  Name = 
REMARK  10 active torsions:
REMARK  status: ('A' for Active; 'I' for Inactive)
REMARK    1  A    between atoms: C_1  and  S_2
REMARK    2  A    between atoms: S_2  and  N_5
REMARK    3  A    between atoms: C_10  and  C_11
REMARK    4  A    between atoms: C_16  and  C_17
REMARK    5  A    between atoms: C_18  and  C_19
REMARK    6  A    between atoms: C_19  and  O_20
REMARK    7  A    between atoms: N_23  and  C_24
REMARK    8  A    between atoms: C_24  and  C_25
REMARK    9  A    between atoms: C_25  and  C_26
REMARK   10  A    between atoms: C_26  and  N_27
REMARK                            x       y       z     vdW  Elec       q    Type
REMARK                         _______ _______ _______ _____ _____    ______ ____
ROOT
ATOM      1  N   UNL     1       3.297   3.373  19.262  0.00  0.00    +0.000 NA
ATOM      2  C   UNL     1       3.480   4.357  20.372  0.00  0.00    +0.000 C 
ATOM      3  C   UNL     1       3.209   5.810  19.919  0.00  0.00    +0.000 C 
ATOM      4  C   UNL     1       3.710   5.993  18.524  0.00  0.00    +0.000 A 
ATOM      5  C   UNL     1       4.237   4.983  17.736  0.00  0.00    +0.000 A 
ATOM      6  C   UNL     1       4.636   5.618  16.528  0.00  0.00    +0.000 A 
ATOM      7  N   UNL     1       4.243   6.906  16.536  0.00  0.00    +0.000 NA
ATOM      8  N   UNL     1       3.663   7.103  17.743  0.00  0.00    +0.000 N 
ATOM      9  C   UNL     1       4.274   3.553  18.155  0.00  0.00    +0.000 C 
ENDROOT
BRANCH   6  10
ATOM     10  C   UNL     1       5.316   5.028  15.361  0.00  0.00    +0.000 A 
ATOM     11  C   UNL     1       6.714   4.968  15.333  0.00  0.00    +0.000 A 
ATOM     12  C   UNL     1       7.385   4.444  14.226  0.00  0.00    +0.000 A 
ATOM     13  C   UNL     1       6.668   3.976  13.120  0.00  0.00    +0.000 A 
ATOM     14 CL   UNL     1       7.566   3.363  11.777  0.00  0.00    +0.000 Cl
ATOM     15  C   UNL     1       5.268   4.027  13.119  0.00  0.00    +0.000 A 
ATOM     16  C   UNL     1       4.606   4.528  14.251  0.00  0.00    +0.000 A 
BRANCH  15  17
ATOM     17  C   UNL     1       4.494   3.603  11.983  0.00  0.00    +0.000 C 
ATOM     18  C   UNL     1       3.910   3.217  11.004  0.00  0.00    +0.000 C 
BRANCH  18  19
ATOM     19  C   UNL     1       3.254   2.712   9.796  0.00  0.00    +0.000 C 
BRANCH  19  20
ATOM     20  O   UNL     1       2.827   3.795   8.984  0.00  0.00    +0.000 OA
ATOM     21  H   UNL     1       1.898   3.965   9.212  0.00  0.00    +0.000 HD
ENDBRANCH  19  20
ENDBRANCH  18  19
ENDBRANCH  15  17
ENDBRANCH   6  10
BRANCH   1  23
ATOM     22  C   UNL     1       0.728   3.270  20.266  0.00  0.00    +0.000 C 
ATOM     23  S   UNL     1       1.754   2.844  18.866  0.00  0.00    +0.000 S 
ATOM     24  O   UNL     1       1.790   1.399  18.776  0.00  0.00    +0.000 OA
ATOM     25  O   UNL     1       1.299   3.645  17.749  0.00  0.00    +0.000 OA
ENDBRANCH   1  23
BRANCH   8  26
ATOM     26  C   UNL     1       3.181   8.453  18.100  0.00  0.00    +0.000 C 
BRANCH  26  27
ATOM     27  C   UNL     1       1.669   8.456  17.950  0.00  0.00    +0.000 C 
BRANCH  27  28
ATOM     28  C   UNL     1       0.814   9.599  18.529  0.00  0.00    +0.000 C 
BRANCH  28  29
ATOM     29  N   UNL     1       1.251   9.793  19.920  0.00  0.00    +0.000 NA
ATOM     30  C   UNL     1       1.031   8.669  20.845  0.00  0.00    +0.000 C 
ATOM     31  C   UNL     1      -0.309   8.722  21.575  0.00  0.00    +0.000 C 
ATOM     32  O   UNL     1      -0.384   9.913  22.357  0.00  0.00    +0.000 OA
ATOM     33  C   UNL     1      -0.321  11.062  21.505  0.00  0.00    +0.000 C 
ATOM     34  C   UNL     1       0.915  11.066  20.578  0.00  0.00    +0.000 C 
ENDBRANCH  28  29
ENDBRANCH  27  28
ENDBRANCH  26  27
ENDBRANCH   8  26
TORSDOF 9
ENDMDL
MODEL 8
REMARK VINA RESULT:      -6.8      2.071      2.674
REMARK  Name = 
REMARK  10 active torsions:
REMARK  status: ('A' for Active; 'I' for Inactive)
REMARK    1  A    between atoms: C_1  and  S_2
REMARK    2  A    between atoms: S_2  and  N_5
REMARK    3  A    between atoms: C_10  and  C_11
REMARK    4  A    between atoms: C_16  and  C_17
REMARK    5  A    between atoms: C_18  and  C_19
REMARK    6  A    between atoms: C_19  and  O_20
REMARK    7  A    between atoms: N_23  and  C_24
REMARK    8  A    between atoms: C_24  and  C_25
REMARK    9  A    between atoms: C_25  and  C_26
REMARK   10  A    between atoms: C_26  and  N_27
REMARK                            x       y       z     vdW  Elec       q    Type
REMARK                         _______ _______ _______ _____ _____    ______ ____
ROOT
ATOM      1  N   UNL     1       1.967   3.096  19.185  0.00  0.00    +0.000 NA
ATOM      2  C   UNL     1       2.466   2.288  18.032  0.00  0.00    +0.000 C 
ATOM      3  C   UNL     1       3.829   2.793  17.506  0.00  0.00    +0.000 C 
ATOM      4  C   UNL     1       3.864   4.285  17.583  0.00  0.00    +0.000 A 
ATOM      5  C   UNL     1       2.867   5.070  18.138  0.00  0.00    +0.000 A 
ATOM      6  C   UNL     1       3.291   6.413  17.937  0.00  0.00    +0.000 A 
ATOM      7  N   UNL     1       4.534   6.428  17.419  0.00  0.00    +0.000 NA
ATOM      8  N   UNL     1       4.870   5.130  17.237  0.00  0.00    +0.000 N 
ATOM      9  C   UNL     1       1.669   4.508  18.824  0.00  0.00    +0.000 C 
ENDROOT
BRANCH   6  10
ATOM     10  C   UNL     1       2.581   7.660  18.274  0.00  0.00    +0.000 A 
ATOM     11  C   UNL     1       2.573   8.720  17.361  0.00  0.00    +0.000 A 
ATOM     12  C   UNL     1       1.937   9.924  17.668  0.00  0.00    +0.000 A 
ATOM     13  C   UNL     1       1.300  10.094  18.902  0.00  0.00    +0.000 A 
ATOM     14 CL   UNL     1       0.554  11.619  19.223  0.00  0.00    +0.000 Cl
ATOM     15  C   UNL     1       1.295   9.050  19.838  0.00  0.00    +0.000 A 
ATOM     16  C   UNL     1       1.913   7.835  19.503  0.00  0.00    +0.000 A 
BRANCH  15  17
ATOM     17  C   UNL     1       0.697   9.200  21.137  0.00  0.00    +0.000 C 
ATOM     18  C   UNL     1       0.192   9.400  22.211  0.00  0.00    +0.000 C 
BRANCH  18  19
ATOM     19  C   UNL     1      -0.435   9.707  23.499  0.00  0.00    +0.000 C 
BRANCH  19  20
ATOM     20  O   UNL     1      -1.026  10.996  23.458  0.00  0.00    +0.000 OA
ATOM     21  H   UNL     1      -0.515  11.557  24.064  0.00  0.00    +0.000 HD
ENDBRANCH  19  20
ENDBRANCH  18  19
ENDBRANCH  15  17
ENDBRANCH   6  10
BRANCH   1  23
ATOM     22  C   UNL     1       2.626   4.384  21.536  0.00  0.00    +0.000 C 
ATOM     23  S   UNL     1       2.551   2.790  20.729  0.00  0.00    +0.000 S 
ATOM     24  O   UNL     1       3.909   2.304  20.601  0.00  0.00    +0.000 OA
ATOM     25  O   UNL     1       1.546   2.012  21.423  0.00  0.00    +0.000 OA
ENDBRANCH   1  23
BRANCH   8  26
ATOM     26  C   UNL     1       6.166   4.802  16.610  0.00  0.00    +0.000 C 
BRANCH  26  27
ATOM     27  C   UNL     1       5.976   4.866  15.103  0.00  0.00    +0.000 C 
BRANCH  27  28
ATOM     28  C   UNL     1       5.377   3.680  14.325  0.00  0.00    +0.000 C 
BRANCH  28  29
ATOM     29  N   UNL     1       5.609   3.948  12.897  0.00  0.00    +0.000 NA
ATOM     30  C   UNL     1       4.860   3.118  11.939  0.00  0.00    +0.000 C 
ATOM     31  C   UNL     1       5.596   1.851  11.512  0.00  0.00    +0.000 C 
ATOM     32  O   UNL     1       6.824   2.198  10.876  0.00  0.00    +0.000 OA
ATOM     33  C   UNL     1       7.674   2.888  11.798  0.00  0.00    +0.000 C 
ATOM     34  C   UNL     1       6.999   4.119  12.445  0.00  0.00    +0.000 C 
ENDBRANCH  28  29
ENDBRANCH  27  28
ENDBRANCH  26  27
ENDBRANCH   8  26
TORSDOF 9
ENDMDL
MODEL 9
REMARK VINA RESULT:      -6.8      5.122     10.310
REMARK  Name = 
REMARK  10 active torsions:
REMARK  status: ('A' for Active; 'I' for Inactive)
REMARK    1  A    between atoms: C_1  and  S_2
REMARK    2  A    between atoms: S_2  and  N_5
REMARK    3  A    between atoms: C_10  and  C_11
REMARK    4  A    between atoms: C_16  and  C_17
REMARK    5  A    between atoms: C_18  and  C_19
REMARK    6  A    between atoms: C_19  and  O_20
REMARK    7  A    between atoms: N_23  and  C_24
REMARK    8  A    between atoms: C_24  and  C_25
REMARK    9  A    between atoms: C_25  and  C_26
REMARK   10  A    between atoms: C_26  and  N_27
REMARK                            x       y       z     vdW  Elec       q    Type
REMARK                         _______ _______ _______ _____ _____    ______ ____
ROOT
ATOM      1  N   UNL     1       0.430  12.685  21.350  0.00  0.00    +0.000 NA
ATOM      2  C   UNL     1       0.143  13.784  20.378  0.00  0.00    +0.000 C 
ATOM      3  C   UNL     1      -0.809  13.333  19.247  0.00  0.00    +0.000 C 
ATOM      4  C   UNL     1      -0.496  11.921  18.872  0.00  0.00    +0.000 A 
ATOM      5  C   UNL     1       0.433  11.121  19.517  0.00  0.00    +0.000 A 
ATOM      6  C   UNL     1       0.443   9.898  18.792  0.00  0.00    +0.000 A 
ATOM      7  N   UNL     1      -0.524   9.913  17.854  0.00  0.00    +0.000 NA
ATOM      8  N   UNL     1      -1.095  11.137  17.938  0.00  0.00    +0.000 N 
ATOM      9  C   UNL     1       1.168  11.546  20.742  0.00  0.00    +0.000 C 
ENDROOT
BRANCH   6  10
ATOM     10  C   UNL     1       1.293   8.712  19.003  0.00  0.00    +0.000 A 
ATOM     11  C   UNL     1       1.225   8.020  20.217  0.00  0.00    +0.000 A 
ATOM     12  C   UNL     1       2.043   6.914  20.457  0.00  0.00    +0.000 A 
ATOM     13  C   UNL     1       2.951   6.482  19.485  0.00  0.00    +0.000 A 
ATOM     14 CL   UNL     1       3.947   5.120  19.859  0.00  0.00    +0.000 Cl
ATOM     15  C   UNL     1       3.043   7.158  18.261  0.00  0.00    +0.000 A 
ATOM     16  C   UNL     1       2.194   8.250  18.022  0.00  0.00    +0.000 A 
BRANCH  15  17
ATOM     17  C   UNL     1       3.999   6.778  17.255  0.00  0.00    +0.000 C 
ATOM     18  C   UNL     1       4.849   6.453  16.468  0.00  0.00    +0.000 C 
BRANCH  18  19
ATOM     19  C   UNL     1       5.925   6.041  15.563  0.00  0.00    +0.000 C 
BRANCH  19  20
ATOM     20  O   UNL     1       7.180   6.153  16.215  0.00  0.00    +0.000 OA
ATOM     21  H   UNL     1       7.706   6.788  15.702  0.00  0.00    +0.000 HD
ENDBRANCH  19  20
ENDBRANCH  18  19
ENDBRANCH  15  17
ENDBRANCH   6  10
BRANCH   1  23
ATOM     22  C   UNL     1      -2.272  12.301  21.764  0.00  0.00    +0.000 C 
ATOM     23  S   UNL     1      -0.675  12.341  22.566  0.00  0.00    +0.000 S 
ATOM     24  O   UNL     1      -0.680  13.458  23.489  0.00  0.00    +0.000 OA
ATOM     25  O   UNL     1      -0.400  10.998  23.030  0.00  0.00    +0.000 OA
ENDBRANCH   1  23
BRANCH   8  26
ATOM     26  C   UNL     1      -2.160  11.503  16.983  0.00  0.00    +0.000 C 
BRANCH  26  27
ATOM     27  C   UNL     1      -3.463  10.915  17.500  0.00  0.00    +0.000 C 
BRANCH  27  28
ATOM     28  C   UNL     1      -4.819  11.554  17.146  0.00  0.00    +0.000 C 
BRANCH  28  29
ATOM     29  N   UNL     1      -5.637  11.515  18.369  0.00  0.00    +0.000 NA
ATOM     30  C   UNL     1      -7.095  11.621  18.191  0.00  0.00    +0.000 C 
ATOM     31  C   UNL     1      -7.622  13.053  18.243  0.00  0.00    +0.000 C 
ATOM     32  O   UNL     1      -7.325  13.629  19.514  0.00  0.00    +0.000 OA
ATOM     33  C   UNL     1      -5.906  13.695  19.700  0.00  0.00    +0.000 C 
ATOM     34  C   UNL     1      -5.204  12.330  19.515  0.00  0.00    +0.000 C 
ENDBRANCH  28  29
ENDBRANCH  27  28
ENDBRANCH  26  27
ENDBRANCH   8  26
TORSDOF 9
ENDMDL
