MODEL 1
REMARK VINA RESULT:      -7.3      0.000      0.000
REMARK  Name = 
REMARK  4 active torsions:
REMARK  status: ('A' for Active; 'I' for Inactive)
REMARK    1  A    between atoms: C_1  and  O_2
REMARK    2  A    between atoms: O_2  and  C_3
REMARK    3  A    between atoms: C_3  and  C_5
REMARK    4  A    between atoms: C_11  and  C_12
REMARK                            x       y       z     vdW  Elec       q    Type
REMARK                         _______ _______ _______ _____ _____    ______ ____
ROOT
ATOM      1  C   UNL     1       3.598   4.186  18.403  0.00  0.00    +0.000 A 
ATOM      2  C   UNL     1       4.062   4.244  19.711  0.00  0.00    +0.000 A 
ATOM      3  N   UNL     1       5.422   4.384  19.689  0.00  0.00    +0.000 N 
ATOM      4  C   UNL     1       5.857   4.429  18.397  0.00  0.00    +0.000 A 
ATOM      5  N   UNL     1       7.148   4.560  18.048  0.00  0.00    +0.000 NA
ATOM      6  C   UNL     1       7.330   4.567  16.703  0.00  0.00    +0.000 A 
ATOM      7  C   UNL     1       6.336   4.462  15.728  0.00  0.00    +0.000 A 
ATOM      8  C   UNL     1       5.010   4.342  16.171  0.00  0.00    +0.000 A 
ATOM      9  C   UNL     1       4.752   4.315  17.558  0.00  0.00    +0.000 A 
ATOM     10  H   UNL     1       6.037   4.442  20.487  0.00  0.00    +0.000 HD
ENDROOT
BRANCH   7  11
ATOM     11  C   UNL     1       6.661   4.456  14.307  0.00  0.00    +0.000 A 
ATOM     12  C   UNL     1       6.248   3.711  13.218  0.00  0.00    +0.000 A 
ATOM     13  C   UNL     1       6.982   4.180  12.099  0.00  0.00    +0.000 A 
ATOM     14  C   UNL     1       7.790   5.185  12.567  0.00  0.00    +0.000 A 
ATOM     15  O   UNL     1       7.602   5.362  13.899  0.00  0.00    +0.000 OA
ENDBRANCH   7  11
BRANCH   1  16
ATOM     16  C   UNL     1       2.193   4.014  18.056  0.00  0.00    +0.000 C 
ATOM     17  O   UNL     1       1.807   3.814  16.909  0.00  0.00    +0.000 OA
BRANCH  16  19
ATOM     18  C   UNL     1       0.719   2.891  19.490  0.00  0.00    +0.000 C 
ATOM     19  O   UNL     1       1.360   4.114  19.133  0.00  0.00    +0.000 OA
ENDBRANCH  16  19
ENDBRANCH   1  16
TORSDOF 3
ENDMDL
MODEL 2
REMARK VINA RESULT:      -7.2      1.014      1.059
REMARK  Name = 
REMARK  4 active torsions:
REMARK  status: ('A' for Active; 'I' for Inactive)
REMARK    1  A    between atoms: C_1  and  O_2
REMARK    2  A    between atoms: O_2  and  C_3
REMARK    3  A    between atoms: C_3  and  C_5
REMARK    4  A    between atoms: C_11  and  C_12
REMARK                            x       y       z     vdW  Elec       q    Type
REMARK                         _______ _______ _______ _____ _____    ______ ____
ROOT
ATOM      1  C   UNL     1       3.310   4.418  18.312  0.00  0.00    +0.000 A 
ATOM      2  C   UNL     1       3.621   4.963  19.552  0.00  0.00    +0.000 A 
ATOM      3  N   UNL     1       4.860   5.535  19.481  0.00  0.00    +0.000 N 
ATOM      4  C   UNL     1       5.363   5.386  18.222  0.00  0.00    +0.000 A 
ATOM      5  N   UNL     1       6.567   5.842  17.839  0.00  0.00    +0.000 NA
ATOM      6  C   UNL     1       6.848   5.561  16.542  0.00  0.00    +0.000 A 
ATOM      7  C   UNL     1       6.024   4.883  15.640  0.00  0.00    +0.000 A 
ATOM      8  C   UNL     1       4.775   4.450  16.110  0.00  0.00    +0.000 A 
ATOM      9  C   UNL     1       4.427   4.699  17.454  0.00  0.00    +0.000 A 
ATOM     10  H   UNL     1       5.356   5.998  20.228  0.00  0.00    +0.000 HD
ENDROOT
BRANCH   7  11
ATOM     11  C   UNL     1       6.450   4.618  14.271  0.00  0.00    +0.000 A 
ATOM     12  C   UNL     1       6.077   3.712  13.296  0.00  0.00    +0.000 A 
ATOM     13  C   UNL     1       6.914   3.951  12.176  0.00  0.00    +0.000 A 
ATOM     14  C   UNL     1       7.738   4.989  12.529  0.00  0.00    +0.000 A 
ATOM     15  O   UNL     1       7.464   5.402  13.792  0.00  0.00    +0.000 OA
ENDBRANCH   7  11
BRANCH   1  16
ATOM     16  C   UNL     1       2.067   3.706  18.037  0.00  0.00    +0.000 C 
ATOM     17  O   UNL     1       1.186   4.157  17.312  0.00  0.00    +0.000 OA
BRANCH  16  19
ATOM     18  C   UNL     1       3.043   1.601  18.361  0.00  0.00    +0.000 C 
ATOM     19  O   UNL     1       1.985   2.505  18.678  0.00  0.00    +0.000 OA
ENDBRANCH  16  19
ENDBRANCH   1  16
TORSDOF 3
ENDMDL
MODEL 3
REMARK VINA RESULT:      -7.2      2.379      5.983
REMARK  Name = 
REMARK  4 active torsions:
REMARK  status: ('A' for Active; 'I' for Inactive)
REMARK    1  A    between atoms: C_1  and  O_2
REMARK    2  A    between atoms: O_2  and  C_3
REMARK    3  A    between atoms: C_3  and  C_5
REMARK    4  A    between atoms: C_11  and  C_12
REMARK                            x       y       z     vdW  Elec       q    Type
REMARK                         _______ _______ _______ _____ _____    ______ ____
ROOT
ATOM      1  C   UNL     1       6.326   3.952  12.990  0.00  0.00    +0.000 A 
ATOM      2  C   UNL     1       7.404   4.729  12.585  0.00  0.00    +0.000 A 
ATOM      3  N   UNL     1       7.892   5.402  13.671  0.00  0.00    +0.000 N 
ATOM      4  C   UNL     1       7.165   5.076  14.778  0.00  0.00    +0.000 A 
ATOM      5  N   UNL     1       7.400   5.578  16.001  0.00  0.00    +0.000 NA
ATOM      6  C   UNL     1       6.536   5.111  16.937  0.00  0.00    +0.000 A 
ATOM      7  C   UNL     1       5.495   4.203  16.728  0.00  0.00    +0.000 A 
ATOM      8  C   UNL     1       5.320   3.712  15.425  0.00  0.00    +0.000 A 
ATOM      9  C   UNL     1       6.179   4.168  14.402  0.00  0.00    +0.000 A 
ATOM     10  H   UNL     1       8.665   6.051  13.683  0.00  0.00    +0.000 HD
ENDROOT
BRANCH   7  11
ATOM     11  C   UNL     1       4.612   3.794  17.814  0.00  0.00    +0.000 A 
ATOM     12  C   UNL     1       3.249   3.603  17.938  0.00  0.00    +0.000 A 
ATOM     13  C   UNL     1       3.008   3.236  19.286  0.00  0.00    +0.000 A 
ATOM     14  C   UNL     1       4.235   3.217  19.901  0.00  0.00    +0.000 A 
ATOM     15  O   UNL     1       5.211   3.550  19.020  0.00  0.00    +0.000 OA
ENDBRANCH   7  11
BRANCH   1  16
ATOM     16  C   UNL     1       5.550   3.119  12.079  0.00  0.00    +0.000 C 
ATOM     17  O   UNL     1       5.977   2.072  11.605  0.00  0.00    +0.000 OA
BRANCH  16  19
ATOM     18  C   UNL     1       3.618   2.949  10.765  0.00  0.00    +0.000 C 
ATOM     19  O   UNL     1       4.317   3.634  11.803  0.00  0.00    +0.000 OA
ENDBRANCH  16  19
ENDBRANCH   1  16
TORSDOF 3
ENDMDL
MODEL 4
REMARK VINA RESULT:      -7.1      2.197      6.093
REMARK  Name = 
REMARK  4 active torsions:
REMARK  status: ('A' for Active; 'I' for Inactive)
REMARK    1  A    between atoms: C_1  and  O_2
REMARK    2  A    between atoms: O_2  and  C_3
REMARK    3  A    between atoms: C_3  and  C_5
REMARK    4  A    between atoms: C_11  and  C_12
REMARK                            x       y       z     vdW  Elec       q    Type
REMARK                         _______ _______ _______ _____ _____    ______ ____
ROOT
ATOM      1  C   UNL     1       6.491   4.068  13.246  0.00  0.00    +0.000 A 
ATOM      2  C   UNL     1       7.583   4.893  13.010  0.00  0.00    +0.000 A 
ATOM      3  N   UNL     1       7.928   5.509  14.181  0.00  0.00    +0.000 N 
ATOM      4  C   UNL     1       7.094   5.098  15.179  0.00  0.00    +0.000 A 
ATOM      5  N   UNL     1       7.178   5.529  16.448  0.00  0.00    +0.000 NA
ATOM      6  C   UNL     1       6.230   4.985  17.252  0.00  0.00    +0.000 A 
ATOM      7  C   UNL     1       5.247   4.068  16.876  0.00  0.00    +0.000 A 
ATOM      8  C   UNL     1       5.231   3.655  15.535  0.00  0.00    +0.000 A 
ATOM      9  C   UNL     1       6.182   4.193  14.643  0.00  0.00    +0.000 A 
ATOM     10  H   UNL     1       8.675   6.174  14.318  0.00  0.00    +0.000 HD
ENDROOT
BRANCH   7  11
ATOM     11  C   UNL     1       4.262   3.572  17.830  0.00  0.00    +0.000 A 
ATOM     12  C   UNL     1       2.915   3.267  17.768  0.00  0.00    +0.000 A 
ATOM     13  C   UNL     1       2.526   2.863  19.070  0.00  0.00    +0.000 A 
ATOM     14  C   UNL     1       3.656   2.937  19.845  0.00  0.00    +0.000 A 
ATOM     15  O   UNL     1       4.711   3.361  19.106  0.00  0.00    +0.000 OA
ENDBRANCH   7  11
BRANCH   1  16
ATOM     16  C   UNL     1       5.845   3.275  12.207  0.00  0.00    +0.000 C 
ATOM     17  O   UNL     1       4.650   3.367  11.943  0.00  0.00    +0.000 OA
BRANCH  16  19
ATOM     18  C   UNL     1       6.110   1.177  11.198  0.00  0.00    +0.000 C 
ATOM     19  O   UNL     1       6.701   2.420  11.576  0.00  0.00    +0.000 OA
ENDBRANCH  16  19
ENDBRANCH   1  16
TORSDOF 3
ENDMDL
MODEL 5
REMARK VINA RESULT:      -7.1      1.533      1.595
REMARK  Name = 
REMARK  4 active torsions:
REMARK  status: ('A' for Active; 'I' for Inactive)
REMARK    1  A    between atoms: C_1  and  O_2
REMARK    2  A    between atoms: O_2  and  C_3
REMARK    3  A    between atoms: C_3  and  C_5
REMARK    4  A    between atoms: C_11  and  C_12
REMARK                            x       y       z     vdW  Elec       q    Type
REMARK                         _______ _______ _______ _____ _____    ______ ____
ROOT
ATOM      1  C   UNL     1       3.631   3.612  18.718  0.00  0.00    +0.000 A 
ATOM      2  C   UNL     1       3.450   4.548  19.729  0.00  0.00    +0.000 A 
ATOM      3  N   UNL     1       4.029   5.725  19.345  0.00  0.00    +0.000 N 
ATOM      4  C   UNL     1       4.576   5.584  18.103  0.00  0.00    +0.000 A 
ATOM      5  N   UNL     1       5.220   6.568  17.454  0.00  0.00    +0.000 NA
ATOM      6  C   UNL     1       5.684   6.181  16.239  0.00  0.00    +0.000 A 
ATOM      7  C   UNL     1       5.541   4.919  15.657  0.00  0.00    +0.000 A 
ATOM      8  C   UNL     1       4.845   3.947  16.391  0.00  0.00    +0.000 A 
ATOM      9  C   UNL     1       4.347   4.282  17.668  0.00  0.00    +0.000 A 
ATOM     10  H   UNL     1       4.069   6.581  19.877  0.00  0.00    +0.000 HD
ENDROOT
BRANCH   7  11
ATOM     11  C   UNL     1       6.110   4.615  14.350  0.00  0.00    +0.000 A 
ATOM     12  C   UNL     1       5.815   3.709  13.348  0.00  0.00    +0.000 A 
ATOM     13  C   UNL     1       6.783   3.896  12.329  0.00  0.00    +0.000 A 
ATOM     14  C   UNL     1       7.604   4.905  12.764  0.00  0.00    +0.000 A 
ATOM     15  O   UNL     1       7.205   5.349  13.982  0.00  0.00    +0.000 OA
ENDBRANCH   7  11
BRANCH   1  16
ATOM     16  C   UNL     1       3.159   2.235  18.805  0.00  0.00    +0.000 C 
ATOM     17  O   UNL     1       3.734   1.296  18.265  0.00  0.00    +0.000 OA
BRANCH  16  19
ATOM     18  C   UNL     1       0.816   2.263  18.768  0.00  0.00    +0.000 C 
ATOM     19  O   UNL     1       2.011   2.108  19.532  0.00  0.00    +0.000 OA
ENDBRANCH  16  19
ENDBRANCH   1  16
TORSDOF 3
ENDMDL
MODEL 6
REMARK VINA RESULT:      -7.1      3.800      5.459
REMARK  Name = 
REMARK  4 active torsions:
REMARK  status: ('A' for Active; 'I' for Inactive)
REMARK    1  A    between atoms: C_1  and  O_2
REMARK    2  A    between atoms: O_2  and  C_3
REMARK    3  A    between atoms: C_3  and  C_5
REMARK    4  A    between atoms: C_11  and  C_12
REMARK                            x       y       z     vdW  Elec       q    Type
REMARK                         _______ _______ _______ _____ _____    ______ ____
ROOT
ATOM      1  C   UNL     1       2.525   3.053  18.399  0.00  0.00    +0.000 A 
ATOM      2  C   UNL     1       3.590   2.364  17.831  0.00  0.00    +0.000 A 
ATOM      3  N   UNL     1       4.474   3.271  17.316  0.00  0.00    +0.000 N 
ATOM      4  C   UNL     1       4.018   4.536  17.543  0.00  0.00    +0.000 A 
ATOM      5  N   UNL     1       4.667   5.646  17.152  0.00  0.00    +0.000 NA
ATOM      6  C   UNL     1       4.007   6.784  17.482  0.00  0.00    +0.000 A 
ATOM      7  C   UNL     1       2.789   6.874  18.158  0.00  0.00    +0.000 A 
ATOM      8  C   UNL     1       2.178   5.672  18.546  0.00  0.00    +0.000 A 
ATOM      9  C   UNL     1       2.806   4.450  18.222  0.00  0.00    +0.000 A 
ATOM     10  H   UNL     1       5.336   3.067  16.833  0.00  0.00    +0.000 HD
ENDROOT
BRANCH   7  11
ATOM     11  C   UNL     1       2.163   8.162  18.434  0.00  0.00    +0.000 A 
ATOM     12  C   UNL     1       1.995   9.333  17.719  0.00  0.00    +0.000 A 
ATOM     13  C   UNL     1       1.325  10.242  18.577  0.00  0.00    +0.000 A 
ATOM     14  C   UNL     1       1.119   9.573  19.756  0.00  0.00    +0.000 A 
ATOM     15  O   UNL     1       1.618   8.314  19.680  0.00  0.00    +0.000 OA
ENDBRANCH   7  11
BRANCH   1  16
ATOM     16  C   UNL     1       1.384   2.394  19.022  0.00  0.00    +0.000 C 
ATOM     17  O   UNL     1       0.312   2.232  18.448  0.00  0.00    +0.000 OA
BRANCH  16  19
ATOM     18  C   UNL     1       1.433   3.015  21.281  0.00  0.00    +0.000 C 
ATOM     19  O   UNL     1       1.629   1.994  20.303  0.00  0.00    +0.000 OA
ENDBRANCH  16  19
ENDBRANCH   1  16
TORSDOF 3
ENDMDL
MODEL 7
REMARK VINA RESULT:      -7.1      1.848      5.948
REMARK  Name = 
REMARK  4 active torsions:
REMARK  status: ('A' for Active; 'I' for Inactive)
REMARK    1  A    between atoms: C_1  and  O_2
REMARK    2  A    between atoms: O_2  and  C_3
REMARK    3  A    between atoms: C_3  and  C_5
REMARK    4  A    between atoms: C_11  and  C_12
REMARK                            x       y       z     vdW  Elec       q    Type
REMARK                         _______ _______ _______ _____ _____    ______ ____
ROOT
ATOM      1  C   UNL     1       6.355   4.216  13.875  0.00  0.00    +0.000 A 
ATOM      2  C   UNL     1       7.496   5.007  13.936  0.00  0.00    +0.000 A 
ATOM      3  N   UNL     1       7.595   5.536  15.193  0.00  0.00    +0.000 N 
ATOM      4  C   UNL     1       6.553   5.101  15.957  0.00  0.00    +0.000 A 
ATOM      5  N   UNL     1       6.371   5.451  17.242  0.00  0.00    +0.000 NA
ATOM      6  C   UNL     1       5.256   4.900  17.784  0.00  0.00    +0.000 A 
ATOM      7  C   UNL     1       4.352   4.049  17.143  0.00  0.00    +0.000 A 
ATOM      8  C   UNL     1       4.616   3.719  15.806  0.00  0.00    +0.000 A 
ATOM      9  C   UNL     1       5.754   4.269  15.178  0.00  0.00    +0.000 A 
ATOM     10  H   UNL     1       8.313   6.159  15.532  0.00  0.00    +0.000 HD
ENDROOT
BRANCH   7  11
ATOM     11  C   UNL     1       3.170   3.540  17.828  0.00  0.00    +0.000 A 
ATOM     12  C   UNL     1       1.831   3.882  17.840  0.00  0.00    +0.000 A 
ATOM     13  C   UNL     1       1.194   3.009  18.758  0.00  0.00    +0.000 A 
ATOM     14  C   UNL     1       2.177   2.184  19.244  0.00  0.00    +0.000 A 
ATOM     15  O   UNL     1       3.374   2.493  18.686  0.00  0.00    +0.000 OA
ENDBRANCH   7  11
BRANCH   1  16
ATOM     16  C   UNL     1       5.928   3.515  12.669  0.00  0.00    +0.000 C 
ATOM     17  O   UNL     1       6.709   2.931  11.925  0.00  0.00    +0.000 OA
BRANCH  16  19
ATOM     18  C   UNL     1       4.168   3.105  11.178  0.00  0.00    +0.000 C 
ATOM     19  O   UNL     1       4.583   3.592  12.453  0.00  0.00    +0.000 OA
ENDBRANCH  16  19
ENDBRANCH   1  16
TORSDOF 3
ENDMDL
MODEL 8
REMARK VINA RESULT:      -6.9      2.971      3.967
REMARK  Name = 
REMARK  4 active torsions:
REMARK  status: ('A' for Active; 'I' for Inactive)
REMARK    1  A    between atoms: C_1  and  O_2
REMARK    2  A    between atoms: O_2  and  C_3
REMARK    3  A    between atoms: C_3  and  C_5
REMARK    4  A    between atoms: C_11  and  C_12
REMARK                            x       y       z     vdW  Elec       q    Type
REMARK                         _______ _______ _______ _____ _____    ______ ____
ROOT
ATOM      1  C   UNL     1       2.663   2.924  19.856  0.00  0.00    +0.000 A 
ATOM      2  C   UNL     1       2.003   1.981  19.079  0.00  0.00    +0.000 A 
ATOM      3  N   UNL     1       2.564   1.970  17.832  0.00  0.00    +0.000 N 
ATOM      4  C   UNL     1       3.581   2.876  17.779  0.00  0.00    +0.000 A 
ATOM      5  N   UNL     1       4.326   3.100  16.683  0.00  0.00    +0.000 NA
ATOM      6  C   UNL     1       5.268   4.057  16.874  0.00  0.00    +0.000 A 
ATOM      7  C   UNL     1       5.504   4.769  18.053  0.00  0.00    +0.000 A 
ATOM      8  C   UNL     1       4.694   4.470  19.158  0.00  0.00    +0.000 A 
ATOM      9  C   UNL     1       3.685   3.493  19.022  0.00  0.00    +0.000 A 
ATOM     10  H   UNL     1       2.287   1.396  17.049  0.00  0.00    +0.000 HD
ENDROOT
BRANCH   7  11
ATOM     11  C   UNL     1       6.535   5.798  18.128  0.00  0.00    +0.000 A 
ATOM     12  C   UNL     1       7.646   6.003  18.922  0.00  0.00    +0.000 A 
ATOM     13  C   UNL     1       8.223   7.231  18.510  0.00  0.00    +0.000 A 
ATOM     14  C   UNL     1       7.436   7.697  17.487  0.00  0.00    +0.000 A 
ATOM     15  O   UNL     1       6.415   6.837  17.246  0.00  0.00    +0.000 OA
ENDBRANCH   7  11
BRANCH   1  16
ATOM     16  C   UNL     1       2.306   3.216  21.239  0.00  0.00    +0.000 C 
ATOM     17  O   UNL     1       2.010   2.345  22.050  0.00  0.00    +0.000 OA
BRANCH  16  19
ATOM     18  C   UNL     1       1.416   5.327  20.747  0.00  0.00    +0.000 C 
ATOM     19  O   UNL     1       2.324   4.550  21.526  0.00  0.00    +0.000 OA
ENDBRANCH  16  19
ENDBRANCH   1  16
TORSDOF 3
ENDMDL
MODEL 9
REMARK VINA RESULT:      -6.9      4.061      5.494
REMARK  Name = 
REMARK  4 active torsions:
REMARK  status: ('A' for Active; 'I' for Inactive)
REMARK    1  A    between atoms: C_1  and  O_2
REMARK    2  A    between atoms: O_2  and  C_3
REMARK    3  A    between atoms: C_3  and  C_5
REMARK    4  A    between atoms: C_11  and  C_12
REMARK                            x       y       z     vdW  Elec       q    Type
REMARK                         _______ _______ _______ _____ _____    ______ ____
ROOT
ATOM      1  C   UNL     1       3.297   3.308  20.155  0.00  0.00    +0.000 A 
ATOM      2  C   UNL     1       4.402   2.587  19.719  0.00  0.00    +0.000 A 
ATOM      3  N   UNL     1       5.113   3.360  18.845  0.00  0.00    +0.000 N 
ATOM      4  C   UNL     1       4.505   4.574  18.706  0.00  0.00    +0.000 A 
ATOM      5  N   UNL     1       4.966   5.554  17.911  0.00  0.00    +0.000 NA
ATOM      6  C   UNL     1       4.182   6.661  17.933  0.00  0.00    +0.000 A 
ATOM      7  C   UNL     1       3.015   6.839  18.680  0.00  0.00    +0.000 A 
ATOM      8  C   UNL     1       2.605   5.776  19.498  0.00  0.00    +0.000 A 
ATOM      9  C   UNL     1       3.370   4.590  19.511  0.00  0.00    +0.000 A 
ATOM     10  H   UNL     1       5.957   3.101  18.356  0.00  0.00    +0.000 HD
ENDROOT
BRANCH   7  11
ATOM     11  C   UNL     1       2.241   8.073  18.600  0.00  0.00    +0.000 A 
ATOM     12  C   UNL     1       2.008   9.011  17.613  0.00  0.00    +0.000 A 
ATOM     13  C   UNL     1       1.184  10.012  18.187  0.00  0.00    +0.000 A 
ATOM     14  C   UNL     1       0.957   9.623  19.483  0.00  0.00    +0.000 A 
ATOM     15  O   UNL     1       1.588   8.450  19.742  0.00  0.00    +0.000 OA
ENDBRANCH   7  11
BRANCH   1  16
ATOM     16  C   UNL     1       2.305   2.775  21.081  0.00  0.00    +0.000 C 
ATOM     17  O   UNL     1       2.591   2.357  22.198  0.00  0.00    +0.000 OA
BRANCH  16  19
ATOM     18  C   UNL     1       0.948   2.284  19.235  0.00  0.00    +0.000 C 
ATOM     19  O   UNL     1       1.040   2.779  20.571  0.00  0.00    +0.000 OA
ENDBRANCH  16  19
ENDBRANCH   1  16
TORSDOF 3
ENDMDL
