MODEL 1
REMARK VINA RESULT:      -8.8      0.000      0.000
REMARK  Name = 
REMARK  10 active torsions:
REMARK  status: ('A' for Active; 'I' for Inactive)
REMARK    1  A    between atoms: C_1  and  O_2
REMARK    2  A    between atoms: O_2  and  C_3
REMARK    3  A    between atoms: C_3  and  C_5
REMARK    4  A    between atoms: C_10  and  C_11
REMARK    5  A    between atoms: C_14  and  C_15
REMARK    6  A    between atoms: C_15  and  N_16
REMARK    7  A    between atoms: C_17  and  C_19
REMARK    8  A    between atoms: C_19  and  N_20
REMARK    9  A    between atoms: C_21  and  C_23
REMARK   10  A    between atoms: C_23  and  C_24
REMARK                            x       y       z     vdW  Elec       q    Type
REMARK                         _______ _______ _______ _____ _____    ______ ____
ROOT
ATOM      1  C   UNL     1       0.507   9.752  20.711  0.00  0.00    +0.000 C 
ENDROOT
BRANCH   1   5
ATOM      2  C   UNL     1       2.927   6.955  18.417  0.00  0.00    +0.000 A 
ATOM      3  C   UNL     1       2.491   6.664  19.720  0.00  0.00    +0.000 A 
ATOM      4  C   UNL     1       1.707   7.565  20.446  0.00  0.00    +0.000 A 
ATOM      5  C   UNL     1       1.281   8.768  19.878  0.00  0.00    +0.000 A 
ATOM      6  C   UNL     1       1.647   9.051  18.562  0.00  0.00    +0.000 A 
ATOM      7  C   UNL     1       2.461   8.160  17.850  0.00  0.00    +0.000 A 
BRANCH   2  13
ATOM      8  C   UNL     1       3.528   4.695  17.334  0.00  0.00    +0.000 A 
ATOM      9  C   UNL     1       4.440   3.913  16.592  0.00  0.00    +0.000 A 
ATOM     10  C   UNL     1       5.667   4.434  16.188  0.00  0.00    +0.000 A 
ATOM     11  C   UNL     1       5.993   5.741  16.516  0.00  0.00    +0.000 A 
ATOM     12  C   UNL     1       5.083   6.532  17.227  0.00  0.00    +0.000 A 
ATOM     13  C   UNL     1       3.829   6.042  17.662  0.00  0.00    +0.000 A 
BRANCH   8  14
ATOM     14  C   UNL     1       2.307   3.992  17.821  0.00  0.00    +0.000 C 
ATOM     15  O   UNL     1       1.195   4.095  17.335  0.00  0.00    +0.000 OA
BRANCH  14  17
ATOM     16  C   UNL     1       1.503   2.755  19.637  0.00  0.00    +0.000 C 
ATOM     17  O   UNL     1       2.631   3.220  18.894  0.00  0.00    +0.000 OA
ENDBRANCH  14  17
ENDBRANCH   8  14
ENDBRANCH   2  13
ENDBRANCH   1   5
BRANCH   1  18
ATOM     18  N   UNL     1       0.061  10.869  19.911  0.00  0.00    +0.000 N 
ATOM     19  C   UNL     1       0.517  12.150  20.141  0.00  0.00    +0.000 C 
ATOM     20  O   UNL     1       1.314  12.395  21.050  0.00  0.00    +0.000 OA
ATOM     21  H   UNL     1      -0.377  10.680  19.008  0.00  0.00    +0.000 HD
BRANCH  19  22
ATOM     22  C   UNL     1      -0.055  13.254  19.140  0.00  0.00    +0.000 C 
ATOM     23  C   UNL     1      -0.815  14.464  19.770  0.00  0.00    +0.000 C 
ATOM     24  C   UNL     1       0.026  15.421  18.916  0.00  0.00    +0.000 C 
ATOM     25  C   UNL     1       1.033  14.290  18.689  0.00  0.00    +0.000 C 
BRANCH  22  26
ATOM     26  N   UNL     1      -0.766  12.668  17.949  0.00  0.00    +0.000 N 
ATOM     27  C   UNL     1      -1.983  12.034  18.069  0.00  0.00    +0.000 C 
ATOM     28  O   UNL     1      -2.607  11.997  19.123  0.00  0.00    +0.000 OA
ATOM     29  H   UNL     1      -0.284  12.645  17.058  0.00  0.00    +0.000 HD
BRANCH  27  30
ATOM     30  C   UNL     1      -2.492  11.384  16.821  0.00  0.00    +0.000 C 
BRANCH  30  31
ATOM     31  C   UNL     1      -2.365   9.892  16.936  0.00  0.00    +0.000 C 
ATOM     32  F   UNL     1      -2.592   9.227  15.788  0.00  0.00    +0.000 F 
ATOM     33  F   UNL     1      -1.107   9.573  17.332  0.00  0.00    +0.000 F 
ATOM     34  F   UNL     1      -3.207   9.402  17.873  0.00  0.00    +0.000 F 
ENDBRANCH  30  31
ENDBRANCH  27  30
ENDBRANCH  22  26
ENDBRANCH  19  22
ENDBRANCH   1  18
TORSDOF 9
ENDMDL
MODEL 2
REMARK VINA RESULT:      -8.6      0.518      1.201
REMARK  Name = 
REMARK  10 active torsions:
REMARK  status: ('A' for Active; 'I' for Inactive)
REMARK    1  A    between atoms: C_1  and  O_2
REMARK    2  A    between atoms: O_2  and  C_3
REMARK    3  A    between atoms: C_3  and  C_5
REMARK    4  A    between atoms: C_10  and  C_11
REMARK    5  A    between atoms: C_14  and  C_15
REMARK    6  A    between atoms: C_15  and  N_16
REMARK    7  A    between atoms: C_17  and  C_19
REMARK    8  A    between atoms: C_19  and  N_20
REMARK    9  A    between atoms: C_21  and  C_23
REMARK   10  A    between atoms: C_23  and  C_24
REMARK                            x       y       z     vdW  Elec       q    Type
REMARK                         _______ _______ _______ _____ _____    ______ ____
ROOT
ATOM      1  C   UNL     1       0.489   9.524  20.370  0.00  0.00    +0.000 C 
ENDROOT
BRANCH   1   5
ATOM      2  C   UNL     1       3.155   6.836  18.223  0.00  0.00    +0.000 A 
ATOM      3  C   UNL     1       2.670   8.020  17.643  0.00  0.00    +0.000 A 
ATOM      4  C   UNL     1       1.820   8.882  18.343  0.00  0.00    +0.000 A 
ATOM      5  C   UNL     1       1.468   8.623  19.670  0.00  0.00    +0.000 A 
ATOM      6  C   UNL     1       1.990   7.487  20.290  0.00  0.00    +0.000 A 
ATOM      7  C   UNL     1       2.813   6.609  19.573  0.00  0.00    +0.000 A 
BRANCH   2  13
ATOM      8  C   UNL     1       3.616   4.538  17.151  0.00  0.00    +0.000 A 
ATOM      9  C   UNL     1       4.473   3.703  16.401  0.00  0.00    +0.000 A 
ATOM     10  C   UNL     1       5.719   4.154  15.973  0.00  0.00    +0.000 A 
ATOM     11  C   UNL     1       6.120   5.444  16.285  0.00  0.00    +0.000 A 
ATOM     12  C   UNL     1       5.266   6.288  17.004  0.00  0.00    +0.000 A 
ATOM     13  C   UNL     1       3.994   5.870  17.463  0.00  0.00    +0.000 A 
BRANCH   8  14
ATOM     14  C   UNL     1       2.367   3.906  17.662  0.00  0.00    +0.000 C 
ATOM     15  O   UNL     1       1.237   4.303  17.443  0.00  0.00    +0.000 OA
BRANCH  14  17
ATOM     16  C   UNL     1       2.843   3.101  19.808  0.00  0.00    +0.000 C 
ATOM     17  O   UNL     1       2.690   2.819  18.415  0.00  0.00    +0.000 OA
ENDBRANCH  14  17
ENDBRANCH   8  14
ENDBRANCH   2  13
ENDBRANCH   1   5
BRANCH   1  18
ATOM     18  N   UNL     1       0.164  10.670  19.552  0.00  0.00    +0.000 N 
ATOM     19  C   UNL     1      -0.063  11.912  20.108  0.00  0.00    +0.000 C 
ATOM     20  O   UNL     1      -0.014  12.089  21.329  0.00  0.00    +0.000 OA
ATOM     21  H   UNL     1       0.369  10.632  18.553  0.00  0.00    +0.000 HD
BRANCH  19  22
ATOM     22  C   UNL     1      -0.375  13.070  19.055  0.00  0.00    +0.000 C 
ATOM     23  C   UNL     1      -0.949  14.410  19.615  0.00  0.00    +0.000 C 
ATOM     24  C   UNL     1       0.095  15.183  18.798  0.00  0.00    +0.000 C 
ATOM     25  C   UNL     1       0.901  13.889  18.655  0.00  0.00    +0.000 C 
BRANCH  22  26
ATOM     26  N   UNL     1      -1.107  12.583  17.832  0.00  0.00    +0.000 N 
ATOM     27  C   UNL     1      -2.276  11.861  17.926  0.00  0.00    +0.000 C 
ATOM     28  O   UNL     1      -2.845  11.658  18.992  0.00  0.00    +0.000 OA
ATOM     29  H   UNL     1      -0.669  12.696  16.926  0.00  0.00    +0.000 HD
BRANCH  27  30
ATOM     30  C   UNL     1      -2.806  11.329  16.630  0.00  0.00    +0.000 C 
BRANCH  30  31
ATOM     31  C   UNL     1      -2.544   9.853  16.541  0.00  0.00    +0.000 C 
ATOM     32  F   UNL     1      -1.315   9.484  16.944  0.00  0.00    +0.000 F 
ATOM     33  F   UNL     1      -3.431   9.187  17.323  0.00  0.00    +0.000 F 
ATOM     34  F   UNL     1      -2.719   9.403  15.278  0.00  0.00    +0.000 F 
ENDBRANCH  30  31
ENDBRANCH  27  30
ENDBRANCH  22  26
ENDBRANCH  19  22
ENDBRANCH   1  18
TORSDOF 9
ENDMDL
MODEL 3
REMARK VINA RESULT:      -8.5      2.349      3.597
REMARK  Name = 
REMARK  10 active torsions:
REMARK  status: ('A' for Active; 'I' for Inactive)
REMARK    1  A    between atoms: C_1  and  O_2
REMARK    2  A    between atoms: O_2  and  C_3
REMARK    3  A    between atoms: C_3  and  C_5
REMARK    4  A    between atoms: C_10  and  C_11
REMARK    5  A    between atoms: C_14  and  C_15
REMARK    6  A    between atoms: C_15  and  N_16
REMARK    7  A    between atoms: C_17  and  C_19
REMARK    8  A    between atoms: C_19  and  N_20
REMARK    9  A    between atoms: C_21  and  C_23
REMARK   10  A    between atoms: C_23  and  C_24
REMARK                            x       y       z     vdW  Elec       q    Type
REMARK                         _______ _______ _______ _____ _____    ______ ____
ROOT
ATOM      1  C   UNL     1       1.412   7.538  20.527  0.00  0.00    +0.000 C 
ENDROOT
BRANCH   1   5
ATOM      2  C   UNL     1       4.335   6.106  17.638  0.00  0.00    +0.000 A 
ATOM      3  C   UNL     1       3.642   7.314  17.456  0.00  0.00    +0.000 A 
ATOM      4  C   UNL     1       2.711   7.770  18.394  0.00  0.00    +0.000 A 
ATOM      5  C   UNL     1       2.477   7.066  19.577  0.00  0.00    +0.000 A 
ATOM      6  C   UNL     1       3.201   5.896  19.811  0.00  0.00    +0.000 A 
ATOM      7  C   UNL     1       4.108   5.425  18.853  0.00  0.00    +0.000 A 
BRANCH   2  13
ATOM      8  C   UNL     1       6.675   5.756  16.614  0.00  0.00    +0.000 A 
ATOM      9  C   UNL     1       7.482   5.184  15.607  0.00  0.00    +0.000 A 
ATOM     10  C   UNL     1       6.917   4.445  14.571  0.00  0.00    +0.000 A 
ATOM     11  C   UNL     1       5.543   4.265  14.533  0.00  0.00    +0.000 A 
ATOM     12  C   UNL     1       4.737   4.804  15.543  0.00  0.00    +0.000 A 
ATOM     13  C   UNL     1       5.269   5.567  16.611  0.00  0.00    +0.000 A 
BRANCH   8  14
ATOM     14  C   UNL     1       7.374   6.633  17.596  0.00  0.00    +0.000 C 
ATOM     15  O   UNL     1       7.800   6.276  18.680  0.00  0.00    +0.000 OA
BRANCH  14  17
ATOM     16  C   UNL     1       8.195   8.801  17.915  0.00  0.00    +0.000 C 
ATOM     17  O   UNL     1       7.461   7.894  17.090  0.00  0.00    +0.000 OA
ENDBRANCH  14  17
ENDBRANCH   8  14
ENDBRANCH   2  13
ENDBRANCH   1   5
BRANCH   1  18
ATOM     18  N   UNL     1       1.081   8.924  20.286  0.00  0.00    +0.000 N 
ATOM     19  C   UNL     1       0.066   9.553  20.976  0.00  0.00    +0.000 C 
ATOM     20  O   UNL     1      -0.610   8.953  21.816  0.00  0.00    +0.000 OA
ATOM     21  H   UNL     1       1.764   9.514  19.810  0.00  0.00    +0.000 HD
BRANCH  19  22
ATOM     22  C   UNL     1      -0.140  11.093  20.607  0.00  0.00    +0.000 C 
ATOM     23  C   UNL     1      -0.172  12.112  21.789  0.00  0.00    +0.000 C 
ATOM     24  C   UNL     1       0.833  12.996  21.037  0.00  0.00    +0.000 C 
ATOM     25  C   UNL     1       1.190  11.794  20.157  0.00  0.00    +0.000 C 
BRANCH  22  26
ATOM     26  N   UNL     1      -1.237  11.324  19.601  0.00  0.00    +0.000 N 
ATOM     27  C   UNL     1      -1.185  10.786  18.334  0.00  0.00    +0.000 C 
ATOM     28  O   UNL     1      -0.306  10.008  17.982  0.00  0.00    +0.000 OA
ATOM     29  H   UNL     1      -1.973  11.981  19.828  0.00  0.00    +0.000 HD
BRANCH  27  30
ATOM     30  C   UNL     1      -2.279  11.221  17.409  0.00  0.00    +0.000 C 
BRANCH  30  31
ATOM     31  C   UNL     1      -3.061  10.025  16.948  0.00  0.00    +0.000 C 
ATOM     32  F   UNL     1      -3.264   9.097  17.901  0.00  0.00    +0.000 F 
ATOM     33  F   UNL     1      -4.286  10.421  16.519  0.00  0.00    +0.000 F 
ATOM     34  F   UNL     1      -2.455   9.420  15.902  0.00  0.00    +0.000 F 
ENDBRANCH  30  31
ENDBRANCH  27  30
ENDBRANCH  22  26
ENDBRANCH  19  22
ENDBRANCH   1  18
TORSDOF 9
ENDMDL
MODEL 4
REMARK VINA RESULT:      -8.5      0.580      1.172
REMARK  Name = 
REMARK  10 active torsions:
REMARK  status: ('A' for Active; 'I' for Inactive)
REMARK    1  A    between atoms: C_1  and  O_2
REMARK    2  A    between atoms: O_2  and  C_3
REMARK    3  A    between atoms: C_3  and  C_5
REMARK    4  A    between atoms: C_10  and  C_11
REMARK    5  A    between atoms: C_14  and  C_15
REMARK    6  A    between atoms: C_15  and  N_16
REMARK    7  A    between atoms: C_17  and  C_19
REMARK    8  A    between atoms: C_19  and  N_20
REMARK    9  A    between atoms: C_21  and  C_23
REMARK   10  A    between atoms: C_23  and  C_24
REMARK                            x       y       z     vdW  Elec       q    Type
REMARK                         _______ _______ _______ _____ _____    ______ ____
ROOT
ATOM      1  C   UNL     1       0.643   9.337  20.442  0.00  0.00    +0.000 C 
ENDROOT
BRANCH   1   5
ATOM      2  C   UNL     1       3.228   6.719  18.118  0.00  0.00    +0.000 A 
ATOM      3  C   UNL     1       2.764   7.944  17.611  0.00  0.00    +0.000 A 
ATOM      4  C   UNL     1       1.940   8.783  18.369  0.00  0.00    +0.000 A 
ATOM      5  C   UNL     1       1.595   8.456  19.682  0.00  0.00    +0.000 A 
ATOM      6  C   UNL     1       2.097   7.275  20.230  0.00  0.00    +0.000 A 
ATOM      7  C   UNL     1       2.894   6.422  19.455  0.00  0.00    +0.000 A 
BRANCH   2  13
ATOM      8  C   UNL     1       3.943   4.365  17.348  0.00  0.00    +0.000 A 
ATOM      9  C   UNL     1       4.739   3.557  16.507  0.00  0.00    +0.000 A 
ATOM     10  C   UNL     1       5.655   4.124  15.626  0.00  0.00    +0.000 A 
ATOM     11  C   UNL     1       5.783   5.504  15.571  0.00  0.00    +0.000 A 
ATOM     12  C   UNL     1       4.978   6.314  16.380  0.00  0.00    +0.000 A 
ATOM     13  C   UNL     1       4.038   5.780  17.294  0.00  0.00    +0.000 A 
BRANCH   8  14
ATOM     14  C   UNL     1       3.094   3.645  18.338  0.00  0.00    +0.000 C 
ATOM     15  O   UNL     1       3.481   3.194  19.402  0.00  0.00    +0.000 OA
BRANCH  14  17
ATOM     16  C   UNL     1       0.953   2.759  18.663  0.00  0.00    +0.000 C 
ATOM     17  O   UNL     1       1.820   3.569  17.866  0.00  0.00    +0.000 OA
ENDBRANCH  14  17
ENDBRANCH   8  14
ENDBRANCH   2  13
ENDBRANCH   1   5
BRANCH   1  18
ATOM     18  N   UNL     1       0.287  10.504  19.669  0.00  0.00    +0.000 N 
ATOM     19  C   UNL     1       0.392  11.776  20.192  0.00  0.00    +0.000 C 
ATOM     20  O   UNL     1       0.781  11.965  21.348  0.00  0.00    +0.000 OA
ATOM     21  H   UNL     1       0.219  10.416  18.654  0.00  0.00    +0.000 HD
BRANCH  19  22
ATOM     22  C   UNL     1      -0.010  12.949  19.188  0.00  0.00    +0.000 C 
ATOM     23  C   UNL     1      -0.602  14.252  19.811  0.00  0.00    +0.000 C 
ATOM     24  C   UNL     1       0.373  15.083  18.966  0.00  0.00    +0.000 C 
ATOM     25  C   UNL     1       1.216  13.823  18.749  0.00  0.00    +0.000 C 
BRANCH  22  26
ATOM     26  N   UNL     1      -0.784  12.467  17.988  0.00  0.00    +0.000 N 
ATOM     27  C   UNL     1      -2.026  11.886  18.111  0.00  0.00    +0.000 C 
ATOM     28  O   UNL     1      -2.621  11.818  19.180  0.00  0.00    +0.000 OA
ATOM     29  H   UNL     1      -0.329  12.472  17.083  0.00  0.00    +0.000 HD
BRANCH  27  30
ATOM     30  C   UNL     1      -2.603  11.334  16.844  0.00  0.00    +0.000 C 
BRANCH  30  31
ATOM     31  C   UNL     1      -2.407   9.845  16.803  0.00  0.00    +0.000 C 
ATOM     32  F   UNL     1      -2.672   9.286  15.608  0.00  0.00    +0.000 F 
ATOM     33  F   UNL     1      -1.116   9.549  17.099  0.00  0.00    +0.000 F 
ATOM     34  F   UNL     1      -3.173   9.228  17.730  0.00  0.00    +0.000 F 
ENDBRANCH  30  31
ENDBRANCH  27  30
ENDBRANCH  22  26
ENDBRANCH  19  22
ENDBRANCH   1  18
TORSDOF 9
ENDMDL
MODEL 5
REMARK VINA RESULT:      -8.5      0.674      1.094
REMARK  Name = 
REMARK  10 active torsions:
REMARK  status: ('A' for Active; 'I' for Inactive)
REMARK    1  A    between atoms: C_1  and  O_2
REMARK    2  A    between atoms: O_2  and  C_3
REMARK    3  A    between atoms: C_3  and  C_5
REMARK    4  A    between atoms: C_10  and  C_11
REMARK    5  A    between atoms: C_14  and  C_15
REMARK    6  A    between atoms: C_15  and  N_16
REMARK    7  A    between atoms: C_17  and  C_19
REMARK    8  A    between atoms: C_19  and  N_20
REMARK    9  A    between atoms: C_21  and  C_23
REMARK   10  A    between atoms: C_23  and  C_24
REMARK                            x       y       z     vdW  Elec       q    Type
REMARK                         _______ _______ _______ _____ _____    ______ ____
ROOT
ATOM      1  C   UNL     1       0.934   9.388  20.341  0.00  0.00    +0.000 C 
ENDROOT
BRANCH   1   5
ATOM      2  C   UNL     1       3.302   6.628  17.950  0.00  0.00    +0.000 A 
ATOM      3  C   UNL     1       2.966   6.354  19.286  0.00  0.00    +0.000 A 
ATOM      4  C   UNL     1       2.198   7.242  20.044  0.00  0.00    +0.000 A 
ATOM      5  C   UNL     1       1.688   8.413  19.480  0.00  0.00    +0.000 A 
ATOM      6  C   UNL     1       1.952   8.677  18.135  0.00  0.00    +0.000 A 
ATOM      7  C   UNL     1       2.751   7.800  17.390  0.00  0.00    +0.000 A 
BRANCH   2  13
ATOM      8  C   UNL     1       4.151   4.313  17.199  0.00  0.00    +0.000 A 
ATOM      9  C   UNL     1       5.016   3.546  16.388  0.00  0.00    +0.000 A 
ATOM     10  C   UNL     1       5.941   4.159  15.548  0.00  0.00    +0.000 A 
ATOM     11  C   UNL     1       6.010   5.543  15.505  0.00  0.00    +0.000 A 
ATOM     12  C   UNL     1       5.137   6.312  16.284  0.00  0.00    +0.000 A 
ATOM     13  C   UNL     1       4.185   5.731  17.156  0.00  0.00    +0.000 A 
BRANCH   8  14
ATOM     14  C   UNL     1       3.295   3.550  18.150  0.00  0.00    +0.000 C 
ATOM     15  O   UNL     1       3.656   3.113  19.228  0.00  0.00    +0.000 OA
BRANCH  14  17
ATOM     16  C   UNL     1       1.100   2.822  18.514  0.00  0.00    +0.000 C 
ATOM     17  O   UNL     1       2.047   3.416  17.623  0.00  0.00    +0.000 OA
ENDBRANCH  14  17
ENDBRANCH   8  14
ENDBRANCH   2  13
ENDBRANCH   1   5
BRANCH   1  18
ATOM     18  N   UNL     1       0.543  10.554  19.583  0.00  0.00    +0.000 N 
ATOM     19  C   UNL     1       0.549  11.815  20.143  0.00  0.00    +0.000 C 
ATOM     20  O   UNL     1       0.874  11.994  21.320  0.00  0.00    +0.000 OA
ATOM     21  H   UNL     1       0.524  10.491  18.564  0.00  0.00    +0.000 HD
BRANCH  19  22
ATOM     22  C   UNL     1       0.121  12.990  19.151  0.00  0.00    +0.000 C 
ATOM     23  C   UNL     1      -0.489  14.277  19.790  0.00  0.00    +0.000 C 
ATOM     24  C   UNL     1       0.467  15.132  18.948  0.00  0.00    +0.000 C 
ATOM     25  C   UNL     1       1.329  13.889  18.714  0.00  0.00    +0.000 C 
BRANCH  22  26
ATOM     26  N   UNL     1      -0.652  12.506  17.952  0.00  0.00    +0.000 N 
ATOM     27  C   UNL     1      -1.888  11.913  18.076  0.00  0.00    +0.000 C 
ATOM     28  O   UNL     1      -2.479  11.834  19.147  0.00  0.00    +0.000 OA
ATOM     29  H   UNL     1      -0.200  12.519  17.045  0.00  0.00    +0.000 HD
BRANCH  27  30
ATOM     30  C   UNL     1      -2.464  11.360  16.808  0.00  0.00    +0.000 C 
BRANCH  30  31
ATOM     31  C   UNL     1      -2.388   9.860  16.827  0.00  0.00    +0.000 C 
ATOM     32  F   UNL     1      -3.300   9.271  17.621  0.00  0.00    +0.000 F 
ATOM     33  F   UNL     1      -2.589   9.380  15.574  0.00  0.00    +0.000 F 
ATOM     34  F   UNL     1      -1.164   9.440  17.217  0.00  0.00    +0.000 F 
ENDBRANCH  30  31
ENDBRANCH  27  30
ENDBRANCH  22  26
ENDBRANCH  19  22
ENDBRANCH   1  18
TORSDOF 9
ENDMDL
MODEL 6
REMARK VINA RESULT:      -8.4      2.361      3.501
REMARK  Name = 
REMARK  10 active torsions:
REMARK  status: ('A' for Active; 'I' for Inactive)
REMARK    1  A    between atoms: C_1  and  O_2
REMARK    2  A    between atoms: O_2  and  C_3
REMARK    3  A    between atoms: C_3  and  C_5
REMARK    4  A    between atoms: C_10  and  C_11
REMARK    5  A    between atoms: C_14  and  C_15
REMARK    6  A    between atoms: C_15  and  N_16
REMARK    7  A    between atoms: C_17  and  C_19
REMARK    8  A    between atoms: C_19  and  N_20
REMARK    9  A    between atoms: C_21  and  C_23
REMARK   10  A    between atoms: C_23  and  C_24
REMARK                            x       y       z     vdW  Elec       q    Type
REMARK                         _______ _______ _______ _____ _____    ______ ____
ROOT
ATOM      1  C   UNL     1       0.106  10.365  19.809  0.00  0.00    +0.000 C 
ENDROOT
BRANCH   1   5
ATOM      2  C   UNL     1       2.843   7.342  18.289  0.00  0.00    +0.000 A 
ATOM      3  C   UNL     1       2.440   8.437  17.509  0.00  0.00    +0.000 A 
ATOM      4  C   UNL     1       1.566   9.409  18.008  0.00  0.00    +0.000 A 
ATOM      5  C   UNL     1       1.108   9.353  19.326  0.00  0.00    +0.000 A 
ATOM      6  C   UNL     1       1.546   8.309  20.142  0.00  0.00    +0.000 A 
ATOM      7  C   UNL     1       2.394   7.320  19.626  0.00  0.00    +0.000 A 
BRANCH   2  13
ATOM      8  C   UNL     1       3.306   4.908  17.578  0.00  0.00    +0.000 A 
ATOM      9  C   UNL     1       4.192   3.956  17.028  0.00  0.00    +0.000 A 
ATOM     10  C   UNL     1       5.487   4.311  16.661  0.00  0.00    +0.000 A 
ATOM     11  C   UNL     1       5.910   5.620  16.835  0.00  0.00    +0.000 A 
ATOM     12  C   UNL     1       5.030   6.577  17.353  0.00  0.00    +0.000 A 
ATOM     13  C   UNL     1       3.707   6.259  17.744  0.00  0.00    +0.000 A 
BRANCH   8  14
ATOM     14  C   UNL     1       1.994   4.386  18.051  0.00  0.00    +0.000 C 
ATOM     15  O   UNL     1       0.966   4.370  17.399  0.00  0.00    +0.000 OA
BRANCH  14  17
ATOM     16  C   UNL     1       0.884   3.761  20.015  0.00  0.00    +0.000 C 
ATOM     17  O   UNL     1       2.126   3.931  19.328  0.00  0.00    +0.000 OA
ENDBRANCH  14  17
ENDBRANCH   8  14
ENDBRANCH   2  13
ENDBRANCH   1   5
BRANCH   1  18
ATOM     18  N   UNL     1      -1.102  10.317  19.018  0.00  0.00    +0.000 N 
ATOM     19  C   UNL     1      -1.519  11.398  18.271  0.00  0.00    +0.000 C 
ATOM     20  O   UNL     1      -0.883  12.456  18.260  0.00  0.00    +0.000 OA
ATOM     21  H   UNL     1      -1.502   9.405  18.792  0.00  0.00    +0.000 HD
BRANCH  19  22
ATOM     22  C   UNL     1      -2.855  11.158  17.432  0.00  0.00    +0.000 C 
ATOM     23  C   UNL     1      -2.718  11.066  15.880  0.00  0.00    +0.000 C 
ATOM     24  C   UNL     1      -3.567   9.788  15.893  0.00  0.00    +0.000 C 
ATOM     25  C   UNL     1      -3.286   9.650  17.392  0.00  0.00    +0.000 C 
BRANCH  22  26
ATOM     26  N   UNL     1      -4.000  12.033  17.871  0.00  0.00    +0.000 N 
ATOM     27  C   UNL     1      -4.266  12.267  19.202  0.00  0.00    +0.000 C 
ATOM     28  O   UNL     1      -3.536  11.869  20.102  0.00  0.00    +0.000 OA
ATOM     29  H   UNL     1      -4.654  12.365  17.172  0.00  0.00    +0.000 HD
BRANCH  27  30
ATOM     30  C   UNL     1      -5.518  13.040  19.478  0.00  0.00    +0.000 C 
BRANCH  30  31
ATOM     31  C   UNL     1      -6.434  12.230  20.351  0.00  0.00    +0.000 C 
ATOM     32  F   UNL     1      -7.713  12.648  20.349  0.00  0.00    +0.000 F 
ATOM     33  F   UNL     1      -6.442  10.941  19.927  0.00  0.00    +0.000 F 
ATOM     34  F   UNL     1      -6.003  12.219  21.632  0.00  0.00    +0.000 F 
ENDBRANCH  30  31
ENDBRANCH  27  30
ENDBRANCH  22  26
ENDBRANCH  19  22
ENDBRANCH   1  18
TORSDOF 9
ENDMDL
MODEL 7
REMARK VINA RESULT:      -8.2      1.177      1.343
REMARK  Name = 
REMARK  10 active torsions:
REMARK  status: ('A' for Active; 'I' for Inactive)
REMARK    1  A    between atoms: C_1  and  O_2
REMARK    2  A    between atoms: O_2  and  C_3
REMARK    3  A    between atoms: C_3  and  C_5
REMARK    4  A    between atoms: C_10  and  C_11
REMARK    5  A    between atoms: C_14  and  C_15
REMARK    6  A    between atoms: C_15  and  N_16
REMARK    7  A    between atoms: C_17  and  C_19
REMARK    8  A    between atoms: C_19  and  N_20
REMARK    9  A    between atoms: C_21  and  C_23
REMARK   10  A    between atoms: C_23  and  C_24
REMARK                            x       y       z     vdW  Elec       q    Type
REMARK                         _______ _______ _______ _____ _____    ______ ____
ROOT
ATOM      1  C   UNL     1       0.810   9.572  20.680  0.00  0.00    +0.000 C 
ENDROOT
BRANCH   1   5
ATOM      2  C   UNL     1       3.144   6.832  18.234  0.00  0.00    +0.000 A 
ATOM      3  C   UNL     1       2.794   6.529  19.560  0.00  0.00    +0.000 A 
ATOM      4  C   UNL     1       2.036   7.412  20.336  0.00  0.00    +0.000 A 
ATOM      5  C   UNL     1       1.552   8.606  19.799  0.00  0.00    +0.000 A 
ATOM      6  C   UNL     1       1.831   8.900  18.463  0.00  0.00    +0.000 A 
ATOM      7  C   UNL     1       2.619   8.028  17.701  0.00  0.00    +0.000 A 
BRANCH   2  13
ATOM      8  C   UNL     1       3.755   4.570  17.158  0.00  0.00    +0.000 A 
ATOM      9  C   UNL     1       4.633   3.810  16.355  0.00  0.00    +0.000 A 
ATOM     10  C   UNL     1       5.790   4.375  15.827  0.00  0.00    +0.000 A 
ATOM     11  C   UNL     1       6.081   5.705  16.091  0.00  0.00    +0.000 A 
ATOM     12  C   UNL     1       5.201   6.475  16.862  0.00  0.00    +0.000 A 
ATOM     13  C   UNL     1       4.017   5.939  17.424  0.00  0.00    +0.000 A 
BRANCH   8  14
ATOM     14  C   UNL     1       2.619   3.827  17.773  0.00  0.00    +0.000 C 
ATOM     15  O   UNL     1       1.470   3.839  17.371  0.00  0.00    +0.000 OA
BRANCH  14  17
ATOM     16  C   UNL     1       3.058   1.716  18.683  0.00  0.00    +0.000 C 
ATOM     17  O   UNL     1       3.069   3.134  18.856  0.00  0.00    +0.000 OA
ENDBRANCH  14  17
ENDBRANCH   8  14
ENDBRANCH   2  13
ENDBRANCH   1   5
BRANCH   1  18
ATOM     18  N   UNL     1       0.293  10.681  19.912  0.00  0.00    +0.000 N 
ATOM     19  C   UNL     1      -0.711  11.492  20.401  0.00  0.00    +0.000 C 
ATOM     20  O   UNL     1      -1.217  11.291  21.508  0.00  0.00    +0.000 OA
ATOM     21  H   UNL     1       0.846  11.036  19.131  0.00  0.00    +0.000 HD
BRANCH  19  22
ATOM     22  C   UNL     1      -1.136  12.688  19.434  0.00  0.00    +0.000 C 
ATOM     23  C   UNL     1      -1.089  14.133  20.022  0.00  0.00    +0.000 C 
ATOM     24  C   UNL     1      -0.318  14.600  18.780  0.00  0.00    +0.000 C 
ATOM     25  C   UNL     1       0.022  13.138  18.476  0.00  0.00    +0.000 C 
BRANCH  22  26
ATOM     26  N   UNL     1      -2.398  12.409  18.659  0.00  0.00    +0.000 N 
ATOM     27  C   UNL     1      -2.636  11.184  18.076  0.00  0.00    +0.000 C 
ATOM     28  O   UNL     1      -1.894  10.221  18.236  0.00  0.00    +0.000 OA
ATOM     29  H   UNL     1      -3.032  13.176  18.470  0.00  0.00    +0.000 HD
BRANCH  27  30
ATOM     30  C   UNL     1      -3.864  11.108  17.224  0.00  0.00    +0.000 C 
BRANCH  30  31
ATOM     31  C   UNL     1      -3.503  10.613  15.853  0.00  0.00    +0.000 C 
ATOM     32  F   UNL     1      -2.463  11.255  15.290  0.00  0.00    +0.000 F 
ATOM     33  F   UNL     1      -3.165   9.300  15.919  0.00  0.00    +0.000 F 
ATOM     34  F   UNL     1      -4.554  10.705  15.009  0.00  0.00    +0.000 F 
ENDBRANCH  30  31
ENDBRANCH  27  30
ENDBRANCH  22  26
ENDBRANCH  19  22
ENDBRANCH   1  18
TORSDOF 9
ENDMDL
MODEL 8
REMARK VINA RESULT:      -8.2      1.291      1.685
REMARK  Name = 
REMARK  10 active torsions:
REMARK  status: ('A' for Active; 'I' for Inactive)
REMARK    1  A    between atoms: C_1  and  O_2
REMARK    2  A    between atoms: O_2  and  C_3
REMARK    3  A    between atoms: C_3  and  C_5
REMARK    4  A    between atoms: C_10  and  C_11
REMARK    5  A    between atoms: C_14  and  C_15
REMARK    6  A    between atoms: C_15  and  N_16
REMARK    7  A    between atoms: C_17  and  C_19
REMARK    8  A    between atoms: C_19  and  N_20
REMARK    9  A    between atoms: C_21  and  C_23
REMARK   10  A    between atoms: C_23  and  C_24
REMARK                            x       y       z     vdW  Elec       q    Type
REMARK                         _______ _______ _______ _____ _____    ______ ____
ROOT
ATOM      1  C   UNL     1       0.494   8.614  21.227  0.00  0.00    +0.000 C 
ENDROOT
BRANCH   1   5
ATOM      2  C   UNL     1       3.204   6.507  18.552  0.00  0.00    +0.000 A 
ATOM      3  C   UNL     1       2.717   7.790  18.255  0.00  0.00    +0.000 A 
ATOM      4  C   UNL     1       1.853   8.463  19.124  0.00  0.00    +0.000 A 
ATOM      5  C   UNL     1       1.488   7.904  20.351  0.00  0.00    +0.000 A 
ATOM      6  C   UNL     1       2.012   6.658  20.698  0.00  0.00    +0.000 A 
ATOM      7  C   UNL     1       2.849   5.973  19.809  0.00  0.00    +0.000 A 
BRANCH   2  13
ATOM      8  C   UNL     1       3.768   4.448  17.109  0.00  0.00    +0.000 A 
ATOM      9  C   UNL     1       4.631   3.816  16.186  0.00  0.00    +0.000 A 
ATOM     10  C   UNL     1       5.800   4.438  15.758  0.00  0.00    +0.000 A 
ATOM     11  C   UNL     1       6.118   5.698  16.241  0.00  0.00    +0.000 A 
ATOM     12  C   UNL     1       5.255   6.344  17.134  0.00  0.00    +0.000 A 
ATOM     13  C   UNL     1       4.059   5.746  17.600  0.00  0.00    +0.000 A 
BRANCH   8  14
ATOM     14  C   UNL     1       2.617   3.635  17.593  0.00  0.00    +0.000 C 
ATOM     15  O   UNL     1       1.463   3.757  17.222  0.00  0.00    +0.000 OA
BRANCH  14  17
ATOM     16  C   UNL     1       2.012   2.033  19.189  0.00  0.00    +0.000 C 
ATOM     17  O   UNL     1       3.058   2.736  18.515  0.00  0.00    +0.000 OA
ENDBRANCH  14  17
ENDBRANCH   8  14
ENDBRANCH   2  13
ENDBRANCH   1   5
BRANCH   1  18
ATOM     18  N   UNL     1      -0.198   9.648  20.493  0.00  0.00    +0.000 N 
ATOM     19  C   UNL     1       0.133  10.979  20.635  0.00  0.00    +0.000 C 
ATOM     20  O   UNL     1       1.024  11.341  21.408  0.00  0.00    +0.000 OA
ATOM     21  H   UNL     1      -0.742   9.383  19.670  0.00  0.00    +0.000 HD
BRANCH  19  22
ATOM     22  C   UNL     1      -0.711  11.980  19.722  0.00  0.00    +0.000 C 
ATOM     23  C   UNL     1      -1.002  13.402  20.300  0.00  0.00    +0.000 C 
ATOM     24  C   UNL     1      -0.532  14.021  18.977  0.00  0.00    +0.000 C 
ATOM     25  C   UNL     1       0.163  12.700  18.637  0.00  0.00    +0.000 C 
BRANCH  22  26
ATOM     26  N   UNL     1      -1.924  11.340  19.098  0.00  0.00    +0.000 N 
ATOM     27  C   UNL     1      -1.816  10.434  18.066  0.00  0.00    +0.000 C 
ATOM     28  O   UNL     1      -0.737  10.017  17.663  0.00  0.00    +0.000 OA
ATOM     29  H   UNL     1      -2.842  11.669  19.372  0.00  0.00    +0.000 HD
BRANCH  27  30
ATOM     30  C   UNL     1      -3.114   9.996  17.462  0.00  0.00    +0.000 C 
BRANCH  30  31
ATOM     31  C   UNL     1      -3.127  10.321  15.995  0.00  0.00    +0.000 C 
ATOM     32  F   UNL     1      -2.674   9.330  15.206  0.00  0.00    +0.000 F 
ATOM     33  F   UNL     1      -4.398  10.588  15.601  0.00  0.00    +0.000 F 
ATOM     34  F   UNL     1      -2.395  11.427  15.736  0.00  0.00    +0.000 F 
ENDBRANCH  30  31
ENDBRANCH  27  30
ENDBRANCH  22  26
ENDBRANCH  19  22
ENDBRANCH   1  18
TORSDOF 9
ENDMDL
MODEL 9
REMARK VINA RESULT:      -8.1      1.467      2.428
REMARK  Name = 
REMARK  10 active torsions:
REMARK  status: ('A' for Active; 'I' for Inactive)
REMARK    1  A    between atoms: C_1  and  O_2
REMARK    2  A    between atoms: O_2  and  C_3
REMARK    3  A    between atoms: C_3  and  C_5
REMARK    4  A    between atoms: C_10  and  C_11
REMARK    5  A    between atoms: C_14  and  C_15
REMARK    6  A    between atoms: C_15  and  N_16
REMARK    7  A    between atoms: C_17  and  C_19
REMARK    8  A    between atoms: C_19  and  N_20
REMARK    9  A    between atoms: C_21  and  C_23
REMARK   10  A    between atoms: C_23  and  C_24
REMARK                            x       y       z     vdW  Elec       q    Type
REMARK                         _______ _______ _______ _____ _____    ______ ____
ROOT
ATOM      1  C   UNL     1       1.186   9.676  21.038  0.00  0.00    +0.000 C 
ENDROOT
BRANCH   1   5
ATOM      2  C   UNL     1       2.245   5.833  19.290  0.00  0.00    +0.000 A 
ATOM      3  C   UNL     1       1.684   5.936  20.573  0.00  0.00    +0.000 A 
ATOM      4  C   UNL     1       1.339   7.174  21.124  0.00  0.00    +0.000 A 
ATOM      5  C   UNL     1       1.489   8.353  20.391  0.00  0.00    +0.000 A 
ATOM      6  C   UNL     1       1.984   8.271  19.089  0.00  0.00    +0.000 A 
ATOM      7  C   UNL     1       2.360   7.032  18.555  0.00  0.00    +0.000 A 
BRANCH   2  13
ATOM      8  C   UNL     1       4.039   4.191  18.436  0.00  0.00    +0.000 A 
ATOM      9  C   UNL     1       4.366   2.917  17.922  0.00  0.00    +0.000 A 
ATOM     10  C   UNL     1       3.376   1.975  17.659  0.00  0.00    +0.000 A 
ATOM     11  C   UNL     1       2.050   2.292  17.910  0.00  0.00    +0.000 A 
ATOM     12  C   UNL     1       1.718   3.541  18.446  0.00  0.00    +0.000 A 
ATOM     13  C   UNL     1       2.692   4.531  18.724  0.00  0.00    +0.000 A 
BRANCH   8  14
ATOM     14  C   UNL     1       5.165   5.159  18.556  0.00  0.00    +0.000 C 
ATOM     15  O   UNL     1       5.696   5.496  19.598  0.00  0.00    +0.000 OA
BRANCH  14  17
ATOM     16  C   UNL     1       6.012   6.944  17.301  0.00  0.00    +0.000 C 
ATOM     17  O   UNL     1       5.504   5.608  17.316  0.00  0.00    +0.000 OA
ENDBRANCH  14  17
ENDBRANCH   8  14
ENDBRANCH   2  13
ENDBRANCH   1   5
BRANCH   1  18
ATOM     18  N   UNL     1       1.018  10.711  20.045  0.00  0.00    +0.000 N 
ATOM     19  C   UNL     1       0.656  11.996  20.396  0.00  0.00    +0.000 C 
ATOM     20  O   UNL     1       0.447  12.306  21.572  0.00  0.00    +0.000 OA
ATOM     21  H   UNL     1       1.427  10.573  19.120  0.00  0.00    +0.000 HD
BRANCH  19  22
ATOM     22  C   UNL     1       0.549  13.018  19.175  0.00  0.00    +0.000 C 
ATOM     23  C   UNL     1       0.279  14.516  19.519  0.00  0.00    +0.000 C 
ATOM     24  C   UNL     1       1.428  14.924  18.588  0.00  0.00    +0.000 C 
ATOM     25  C   UNL     1       1.950  13.486  18.647  0.00  0.00    +0.000 C 
BRANCH  22  26
ATOM     26  N   UNL     1      -0.310  12.510  18.046  0.00  0.00    +0.000 N 
ATOM     27  C   UNL     1      -1.597  12.066  18.255  0.00  0.00    +0.000 C 
ATOM     28  O   UNL     1      -2.156  12.151  19.342  0.00  0.00    +0.000 OA
ATOM     29  H   UNL     1       0.110  12.391  17.132  0.00  0.00    +0.000 HD
BRANCH  27  30
ATOM     30  C   UNL     1      -2.268  11.463  17.060  0.00  0.00    +0.000 C 
BRANCH  30  31
ATOM     31  C   UNL     1      -2.123   9.969  17.096  0.00  0.00    +0.000 C 
ATOM     32  F   UNL     1      -2.374   9.361  15.922  0.00  0.00    +0.000 F 
ATOM     33  F   UNL     1      -0.853   9.644  17.444  0.00  0.00    +0.000 F 
ATOM     34  F   UNL     1      -2.937   9.424  18.027  0.00  0.00    +0.000 F 
ENDBRANCH  30  31
ENDBRANCH  27  30
ENDBRANCH  22  26
ENDBRANCH  19  22
ENDBRANCH   1  18
TORSDOF 9
ENDMDL
