MODEL 1
REMARK VINA RESULT:      -7.5      0.000      0.000
REMARK  Name = 
REMARK  2 active torsions:
REMARK  status: ('A' for Active; 'I' for Inactive)
REMARK    1  A    between atoms: C_1  and  C_2
REMARK    2  A    between atoms: N_9  and  C_10
REMARK                            x       y       z     vdW  Elec       q    Type
REMARK                         _______ _______ _______ _____ _____    ______ ____
ROOT
ATOM      1  C   UNL     1       5.849   3.591  12.210  0.00  0.00    +0.000 C 
ATOM      2  C   UNL     1       6.198   3.926  13.619  0.00  0.00    +0.000 A 
ATOM      3  C   UNL     1       7.209   4.831  13.939  0.00  0.00    +0.000 A 
ATOM      4  C   UNL     1       7.478   5.123  15.272  0.00  0.00    +0.000 A 
ATOM      5  C   UNL     1       6.706   4.523  16.254  0.00  0.00    +0.000 A 
ATOM      6  N   UNL     1       6.920   4.911  17.574  0.00  0.00    +0.000 N 
ATOM      7  C   UNL     1       6.121   4.702  18.659  0.00  0.00    +0.000 C 
ATOM      8  O   UNL     1       6.447   5.214  19.728  0.00  0.00    +0.000 OA
ATOM      9  N   UNL     1       5.007   3.932  18.466  0.00  0.00    +0.000 N 
ATOM     10  N   UNL     1       5.746   3.610  15.972  0.00  0.00    +0.000 NA
ATOM     11  C   UNL     1       5.514   3.334  14.671  0.00  0.00    +0.000 A 
ATOM     12  H   UNL     1       7.698   5.520  17.781  0.00  0.00    +0.000 HD
ATOM     13  H   UNL     1       5.095   3.286  17.686  0.00  0.00    +0.000 HD
ENDROOT
BRANCH   9  14
ATOM     14  C   UNL     1       4.057   3.672  19.461  0.00  0.00    +0.000 A 
ATOM     15  C   UNL     1       4.106   2.497  20.219  0.00  0.00    +0.000 A 
ATOM     16  C   UNL     1       3.125   2.244  21.175  0.00  0.00    +0.000 A 
ATOM     17  C   UNL     1       2.089   3.156  21.344  0.00  0.00    +0.000 A 
ATOM     18  F   UNL     1       1.112   2.889  22.219  0.00  0.00    +0.000 F 
ATOM     19  C   UNL     1       2.047   4.340  20.612  0.00  0.00    +0.000 A 
ATOM     20  C   UNL     1       3.055   4.617  19.689  0.00  0.00    +0.000 A 
ENDBRANCH   9  14
TORSDOF 1
ENDMDL
MODEL 2
REMARK VINA RESULT:      -7.4      0.426      1.192
REMARK  Name = 
REMARK  2 active torsions:
REMARK  status: ('A' for Active; 'I' for Inactive)
REMARK    1  A    between atoms: C_1  and  C_2
REMARK    2  A    between atoms: N_9  and  C_10
REMARK                            x       y       z     vdW  Elec       q    Type
REMARK                         _______ _______ _______ _____ _____    ______ ____
ROOT
ATOM      1  C   UNL     1       6.111   3.555  12.324  0.00  0.00    +0.000 C 
ATOM      2  C   UNL     1       6.291   3.954  13.747  0.00  0.00    +0.000 A 
ATOM      3  C   UNL     1       7.171   4.964  14.130  0.00  0.00    +0.000 A 
ATOM      4  C   UNL     1       7.283   5.312  15.473  0.00  0.00    +0.000 A 
ATOM      5  C   UNL     1       6.485   4.658  16.397  0.00  0.00    +0.000 A 
ATOM      6  N   UNL     1       6.534   5.095  17.719  0.00  0.00    +0.000 N 
ATOM      7  C   UNL     1       5.661   4.830  18.732  0.00  0.00    +0.000 C 
ATOM      8  O   UNL     1       5.831   5.396  19.810  0.00  0.00    +0.000 OA
ATOM      9  N   UNL     1       4.652   3.946  18.462  0.00  0.00    +0.000 N 
ATOM     10  N   UNL     1       5.651   3.646  16.057  0.00  0.00    +0.000 NA
ATOM     11  C   UNL     1       5.572   3.319  14.750  0.00  0.00    +0.000 A 
ATOM     12  H   UNL     1       7.224   5.785  17.977  0.00  0.00    +0.000 HD
ATOM     13  H   UNL     1       4.877   3.295  17.714  0.00  0.00    +0.000 HD
ENDROOT
BRANCH   9  14
ATOM     14  C   UNL     1       3.643   3.612  19.373  0.00  0.00    +0.000 A 
ATOM     15  C   UNL     1       2.404   4.262  19.351  0.00  0.00    +0.000 A 
ATOM     16  C   UNL     1       1.431   3.939  20.295  0.00  0.00    +0.000 A 
ATOM     17  C   UNL     1       1.718   2.989  21.269  0.00  0.00    +0.000 A 
ATOM     18  F   UNL     1       0.810   2.718  22.214  0.00  0.00    +0.000 F 
ATOM     19  C   UNL     1       2.940   2.320  21.283  0.00  0.00    +0.000 A 
ATOM     20  C   UNL     1       3.895   2.608  20.309  0.00  0.00    +0.000 A 
ENDBRANCH   9  14
TORSDOF 1
ENDMDL
MODEL 3
REMARK VINA RESULT:      -7.2      3.478      6.982
REMARK  Name = 
REMARK  2 active torsions:
REMARK  status: ('A' for Active; 'I' for Inactive)
REMARK    1  A    between atoms: C_1  and  C_2
REMARK    2  A    between atoms: N_9  and  C_10
REMARK                            x       y       z     vdW  Elec       q    Type
REMARK                         _______ _______ _______ _____ _____    ______ ____
ROOT
ATOM      1  C   UNL     1       0.811   2.589  19.236  0.00  0.00    +0.000 C 
ATOM      2  C   UNL     1       2.223   3.012  19.028  0.00  0.00    +0.000 A 
ATOM      3  C   UNL     1       3.189   2.894  20.026  0.00  0.00    +0.000 A 
ATOM      4  C   UNL     1       4.500   3.284  19.769  0.00  0.00    +0.000 A 
ATOM      5  C   UNL     1       4.818   3.755  18.505  0.00  0.00    +0.000 A 
ATOM      6  N   UNL     1       6.155   4.038  18.237  0.00  0.00    +0.000 N 
ATOM      7  C   UNL     1       6.756   4.222  17.028  0.00  0.00    +0.000 C 
ATOM      8  O   UNL     1       7.977   4.367  17.000  0.00  0.00    +0.000 OA
ATOM      9  N   UNL     1       5.942   4.230  15.928  0.00  0.00    +0.000 N 
ATOM     10  N   UNL     1       3.891   3.917  17.531  0.00  0.00    +0.000 NA
ATOM     11  C   UNL     1       2.624   3.544  17.811  0.00  0.00    +0.000 A 
ATOM     12  H   UNL     1       6.821   4.002  18.995  0.00  0.00    +0.000 HD
ATOM     13  H   UNL     1       4.984   4.498  16.140  0.00  0.00    +0.000 HD
ENDROOT
BRANCH   9  14
ATOM     14  C   UNL     1       6.407   4.350  14.614  0.00  0.00    +0.000 A 
ATOM     15  C   UNL     1       7.395   5.283  14.278  0.00  0.00    +0.000 A 
ATOM     16  C   UNL     1       7.811   5.410  12.954  0.00  0.00    +0.000 A 
ATOM     17  C   UNL     1       7.215   4.622  11.976  0.00  0.00    +0.000 A 
ATOM     18  F   UNL     1       7.570   4.783  10.695  0.00  0.00    +0.000 F 
ATOM     19  C   UNL     1       6.250   3.675  12.305  0.00  0.00    +0.000 A 
ATOM     20  C   UNL     1       5.867   3.513  13.635  0.00  0.00    +0.000 A 
ENDBRANCH   9  14
TORSDOF 1
ENDMDL
MODEL 4
REMARK VINA RESULT:      -7.1      2.209      2.660
REMARK  Name = 
REMARK  2 active torsions:
REMARK  status: ('A' for Active; 'I' for Inactive)
REMARK    1  A    between atoms: C_1  and  C_2
REMARK    2  A    between atoms: N_9  and  C_10
REMARK                            x       y       z     vdW  Elec       q    Type
REMARK                         _______ _______ _______ _____ _____    ______ ____
ROOT
ATOM      1  C   UNL     1       5.597   2.641  11.446  0.00  0.00    +0.000 C 
ATOM      2  C   UNL     1       6.072   3.473  12.585  0.00  0.00    +0.000 A 
ATOM      3  C   UNL     1       7.230   4.245  12.510  0.00  0.00    +0.000 A 
ATOM      4  C   UNL     1       7.615   5.023  13.597  0.00  0.00    +0.000 A 
ATOM      5  C   UNL     1       6.811   5.031  14.726  0.00  0.00    +0.000 A 
ATOM      6  N   UNL     1       7.157   5.898  15.760  0.00  0.00    +0.000 N 
ATOM      7  C   UNL     1       6.395   6.304  16.815  0.00  0.00    +0.000 C 
ATOM      8  O   UNL     1       6.857   7.156  17.572  0.00  0.00    +0.000 OA
ATOM      9  N   UNL     1       5.163   5.724  16.947  0.00  0.00    +0.000 N 
ATOM     10  N   UNL     1       5.703   4.261  14.840  0.00  0.00    +0.000 NA
ATOM     11  C   UNL     1       5.360   3.505  13.775  0.00  0.00    +0.000 A 
ATOM     12  H   UNL     1       8.032   6.397  15.703  0.00  0.00    +0.000 HD
ATOM     13  H   UNL     1       5.104   4.804  16.517  0.00  0.00    +0.000 HD
ENDROOT
BRANCH   9  14
ATOM     14  C   UNL     1       4.240   6.072  17.940  0.00  0.00    +0.000 A 
ATOM     15  C   UNL     1       4.090   5.294  19.093  0.00  0.00    +0.000 A 
ATOM     16  C   UNL     1       3.135   5.640  20.047  0.00  0.00    +0.000 A 
ATOM     17  C   UNL     1       2.321   6.744  19.824  0.00  0.00    +0.000 A 
ATOM     18  F   UNL     1       1.362   7.046  20.709  0.00  0.00    +0.000 F 
ATOM     19  C   UNL     1       2.480   7.538  18.691  0.00  0.00    +0.000 A 
ATOM     20  C   UNL     1       3.468   7.221  17.760  0.00  0.00    +0.000 A 
ENDBRANCH   9  14
TORSDOF 1
ENDMDL
MODEL 5
REMARK VINA RESULT:      -7.0      2.336      3.017
REMARK  Name = 
REMARK  2 active torsions:
REMARK  status: ('A' for Active; 'I' for Inactive)
REMARK    1  A    between atoms: C_1  and  C_2
REMARK    2  A    between atoms: N_9  and  C_10
REMARK                            x       y       z     vdW  Elec       q    Type
REMARK                         _______ _______ _______ _____ _____    ______ ____
ROOT
ATOM      1  C   UNL     1       5.509   2.569  11.341  0.00  0.00    +0.000 C 
ATOM      2  C   UNL     1       5.980   3.404  12.480  0.00  0.00    +0.000 A 
ATOM      3  C   UNL     1       7.166   4.135  12.425  0.00  0.00    +0.000 A 
ATOM      4  C   UNL     1       7.547   4.917  13.511  0.00  0.00    +0.000 A 
ATOM      5  C   UNL     1       6.713   4.972  14.616  0.00  0.00    +0.000 A 
ATOM      6  N   UNL     1       7.060   5.843  15.646  0.00  0.00    +0.000 N 
ATOM      7  C   UNL     1       6.284   6.292  16.673  0.00  0.00    +0.000 C 
ATOM      8  O   UNL     1       6.754   7.141  17.429  0.00  0.00    +0.000 OA
ATOM      9  N   UNL     1       5.029   5.756  16.779  0.00  0.00    +0.000 N 
ATOM     10  N   UNL     1       5.577   4.241  14.711  0.00  0.00    +0.000 NA
ATOM     11  C   UNL     1       5.237   3.480  13.650  0.00  0.00    +0.000 A 
ATOM     12  H   UNL     1       7.953   6.312  15.606  0.00  0.00    +0.000 HD
ATOM     13  H   UNL     1       4.951   4.832  16.362  0.00  0.00    +0.000 HD
ENDROOT
BRANCH   9  14
ATOM     14  C   UNL     1       4.092   6.151  17.740  0.00  0.00    +0.000 A 
ATOM     15  C   UNL     1       3.339   7.320  17.580  0.00  0.00    +0.000 A 
ATOM     16  C   UNL     1       2.442   7.711  18.571  0.00  0.00    +0.000 A 
ATOM     17  C   UNL     1       2.326   6.944  19.725  0.00  0.00    +0.000 A 
ATOM     18  F   UNL     1       1.509   7.348  20.705  0.00  0.00    +0.000 F 
ATOM     19  C   UNL     1       3.053   5.767  19.882  0.00  0.00    +0.000 A 
ATOM     20  C   UNL     1       3.915   5.348  18.869  0.00  0.00    +0.000 A 
ENDBRANCH   9  14
TORSDOF 1
ENDMDL
MODEL 6
REMARK VINA RESULT:      -6.9      3.407      6.945
REMARK  Name = 
REMARK  2 active torsions:
REMARK  status: ('A' for Active; 'I' for Inactive)
REMARK    1  A    between atoms: C_1  and  C_2
REMARK    2  A    between atoms: N_9  and  C_10
REMARK                            x       y       z     vdW  Elec       q    Type
REMARK                         _______ _______ _______ _____ _____    ______ ____
ROOT
ATOM      1  C   UNL     1       0.814   3.093  19.641  0.00  0.00    +0.000 C 
ATOM      2  C   UNL     1       2.239   3.411  19.347  0.00  0.00    +0.000 A 
ATOM      3  C   UNL     1       3.248   3.250  20.295  0.00  0.00    +0.000 A 
ATOM      4  C   UNL     1       4.566   3.540  19.958  0.00  0.00    +0.000 A 
ATOM      5  C   UNL     1       4.846   3.957  18.666  0.00  0.00    +0.000 A 
ATOM      6  N   UNL     1       6.183   4.139  18.320  0.00  0.00    +0.000 N 
ATOM      7  C   UNL     1       6.728   4.251  17.076  0.00  0.00    +0.000 C 
ATOM      8  O   UNL     1       7.952   4.309  16.980  0.00  0.00    +0.000 OA
ATOM      9  N   UNL     1       5.857   4.289  16.021  0.00  0.00    +0.000 N 
ATOM     10  N   UNL     1       3.881   4.159  17.739  0.00  0.00    +0.000 NA
ATOM     11  C   UNL     1       2.608   3.883  18.095  0.00  0.00    +0.000 A 
ATOM     12  H   UNL     1       6.885   4.074  19.043  0.00  0.00    +0.000 HD
ATOM     13  H   UNL     1       4.933   4.628  16.276  0.00  0.00    +0.000 HD
ENDROOT
BRANCH   9  14
ATOM     14  C   UNL     1       6.257   4.344  14.681  0.00  0.00    +0.000 A 
ATOM     15  C   UNL     1       5.681   3.508  13.719  0.00  0.00    +0.000 A 
ATOM     16  C   UNL     1       6.125   3.555  12.399  0.00  0.00    +0.000 A 
ATOM     17  C   UNL     1       7.162   4.418  12.062  0.00  0.00    +0.000 A 
ATOM     18  F   UNL     1       7.633   4.424  10.809  0.00  0.00    +0.000 F 
ATOM     19  C   UNL     1       7.724   5.271  13.008  0.00  0.00    +0.000 A 
ATOM     20  C   UNL     1       7.247   5.260  14.317  0.00  0.00    +0.000 A 
ENDBRANCH   9  14
TORSDOF 1
ENDMDL
MODEL 7
REMARK VINA RESULT:      -6.7      3.538      6.526
REMARK  Name = 
REMARK  2 active torsions:
REMARK  status: ('A' for Active; 'I' for Inactive)
REMARK    1  A    between atoms: C_1  and  C_2
REMARK    2  A    between atoms: N_9  and  C_10
REMARK                            x       y       z     vdW  Elec       q    Type
REMARK                         _______ _______ _______ _____ _____    ______ ____
ROOT
ATOM      1  C   UNL     1       1.129   2.458  21.749  0.00  0.00    +0.000 C 
ATOM      2  C   UNL     1       2.020   2.580  20.562  0.00  0.00    +0.000 A 
ATOM      3  C   UNL     1       1.747   1.934  19.358  0.00  0.00    +0.000 A 
ATOM      4  C   UNL     1       2.602   2.102  18.273  0.00  0.00    +0.000 A 
ATOM      5  C   UNL     1       3.697   2.939  18.414  0.00  0.00    +0.000 A 
ATOM      6  N   UNL     1       4.479   3.177  17.286  0.00  0.00    +0.000 N 
ATOM      7  C   UNL     1       5.403   4.159  17.088  0.00  0.00    +0.000 C 
ATOM      8  O   UNL     1       5.919   4.256  15.976  0.00  0.00    +0.000 OA
ATOM      9  N   UNL     1       5.684   4.968  18.155  0.00  0.00    +0.000 N 
ATOM     10  N   UNL     1       4.008   3.546  19.583  0.00  0.00    +0.000 NA
ATOM     11  C   UNL     1       3.169   3.356  20.624  0.00  0.00    +0.000 A 
ATOM     12  H   UNL     1       4.293   2.648  16.446  0.00  0.00    +0.000 HD
ATOM     13  H   UNL     1       5.498   4.527  19.052  0.00  0.00    +0.000 HD
ENDROOT
BRANCH   9  14
ATOM     14  C   UNL     1       6.563   6.055  18.099  0.00  0.00    +0.000 A 
ATOM     15  C   UNL     1       7.673   6.133  18.948  0.00  0.00    +0.000 A 
ATOM     16  C   UNL     1       8.510   7.245  18.900  0.00  0.00    +0.000 A 
ATOM     17  C   UNL     1       8.212   8.282  18.023  0.00  0.00    +0.000 A 
ATOM     18  F   UNL     1       8.979   9.380  18.015  0.00  0.00    +0.000 F 
ATOM     19  C   UNL     1       7.124   8.203  17.158  0.00  0.00    +0.000 A 
ATOM     20  C   UNL     1       6.314   7.068  17.170  0.00  0.00    +0.000 A 
ENDBRANCH   9  14
TORSDOF 1
ENDMDL
MODEL 8
REMARK VINA RESULT:      -6.6      4.701      7.445
REMARK  Name = 
REMARK  2 active torsions:
REMARK  status: ('A' for Active; 'I' for Inactive)
REMARK    1  A    between atoms: C_1  and  C_2
REMARK    2  A    between atoms: N_9  and  C_10
REMARK                            x       y       z     vdW  Elec       q    Type
REMARK                         _______ _______ _______ _____ _____    ______ ____
ROOT
ATOM      1  C   UNL     1      -0.796  11.581  19.465  0.00  0.00    +0.000 C 
ATOM      2  C   UNL     1      -0.032  10.368  19.867  0.00  0.00    +0.000 A 
ATOM      3  C   UNL     1      -0.306   9.671  21.042  0.00  0.00    +0.000 A 
ATOM      4  C   UNL     1       0.425   8.530  21.357  0.00  0.00    +0.000 A 
ATOM      5  C   UNL     1       1.396   8.097  20.468  0.00  0.00    +0.000 A 
ATOM      6  N   UNL     1       2.041   6.895  20.750  0.00  0.00    +0.000 N 
ATOM      7  C   UNL     1       2.795   6.123  19.917  0.00  0.00    +0.000 C 
ATOM      8  O   UNL     1       3.200   5.040  20.335  0.00  0.00    +0.000 OA
ATOM      9  N   UNL     1       3.042   6.622  18.667  0.00  0.00    +0.000 N 
ATOM     10  N   UNL     1       1.710   8.777  19.340  0.00  0.00    +0.000 NA
ATOM     11  C   UNL     1       0.995   9.889  19.065  0.00  0.00    +0.000 A 
ATOM     12  H   UNL     1       1.866   6.446  21.636  0.00  0.00    +0.000 HD
ATOM     13  H   UNL     1       2.996   7.637  18.624  0.00  0.00    +0.000 HD
ENDROOT
BRANCH   9  14
ATOM     14  C   UNL     1       3.749   5.930  17.677  0.00  0.00    +0.000 A 
ATOM     15  C   UNL     1       3.560   4.559  17.478  0.00  0.00    +0.000 A 
ATOM     16  C   UNL     1       4.306   3.886  16.512  0.00  0.00    +0.000 A 
ATOM     17  C   UNL     1       5.252   4.587  15.774  0.00  0.00    +0.000 A 
ATOM     18  F   UNL     1       6.013   3.934  14.887  0.00  0.00    +0.000 F 
ATOM     19  C   UNL     1       5.429   5.957  15.948  0.00  0.00    +0.000 A 
ATOM     20  C   UNL     1       4.649   6.641  16.880  0.00  0.00    +0.000 A 
ENDBRANCH   9  14
TORSDOF 1
ENDMDL
MODEL 9
REMARK VINA RESULT:      -6.5      4.671      7.347
REMARK  Name = 
REMARK  2 active torsions:
REMARK  status: ('A' for Active; 'I' for Inactive)
REMARK    1  A    between atoms: C_1  and  C_2
REMARK    2  A    between atoms: N_9  and  C_10
REMARK                            x       y       z     vdW  Elec       q    Type
REMARK                         _______ _______ _______ _____ _____    ______ ____
ROOT
ATOM      1  C   UNL     1      -0.766  11.476  18.872  0.00  0.00    +0.000 C 
ATOM      2  C   UNL     1       0.041  10.320  19.352  0.00  0.00    +0.000 A 
ATOM      3  C   UNL     1      -0.207   9.695  20.572  0.00  0.00    +0.000 A 
ATOM      4  C   UNL     1       0.565   8.604  20.960  0.00  0.00    +0.000 A 
ATOM      5  C   UNL     1       1.549   8.146  20.099  0.00  0.00    +0.000 A 
ATOM      6  N   UNL     1       2.237   6.989  20.458  0.00  0.00    +0.000 N 
ATOM      7  C   UNL     1       3.017   6.191  19.676  0.00  0.00    +0.000 C 
ATOM      8  O   UNL     1       3.460   5.153  20.164  0.00  0.00    +0.000 OA
ATOM      9  N   UNL     1       3.244   6.613  18.395  0.00  0.00    +0.000 N 
ATOM     10  N   UNL     1       1.838   8.760  18.927  0.00  0.00    +0.000 NA
ATOM     11  C   UNL     1       1.083   9.825  18.580  0.00  0.00    +0.000 A 
ATOM     12  H   UNL     1       2.078   6.595  21.373  0.00  0.00    +0.000 HD
ATOM     13  H   UNL     1       3.162   7.621  18.283  0.00  0.00    +0.000 HD
ENDROOT
BRANCH   9  14
ATOM     14  C   UNL     1       3.974   5.882  17.450  0.00  0.00    +0.000 A 
ATOM     15  C   UNL     1       4.869   6.513  16.580  0.00  0.00    +0.000 A 
ATOM     16  C   UNL     1       5.553   5.766  15.622  0.00  0.00    +0.000 A 
ATOM     17  C   UNL     1       5.312   4.401  15.527  0.00  0.00    +0.000 A 
ATOM     18  F   UNL     1       5.921   3.690  14.570  0.00  0.00    +0.000 F 
ATOM     19  C   UNL     1       4.441   3.760  16.404  0.00  0.00    +0.000 A 
ATOM     20  C   UNL     1       3.794   4.498  17.395  0.00  0.00    +0.000 A 
ENDBRANCH   9  14
TORSDOF 1
ENDMDL
