MODEL 1
REMARK VINA RESULT:      -7.2      0.000      0.000
REMARK  Name = 
REMARK  7 active torsions:
REMARK  status: ('A' for Active; 'I' for Inactive)
REMARK    1  A    between atoms: C_2  and  C_13
REMARK    2  A    between atoms: N_3  and  C_4
REMARK    3  A    between atoms: C_4  and  C_5
REMARK    4  A    between atoms: C_5  and  O_6
REMARK    5  A    between atoms: O_6  and  C_7
REMARK    6  A    between atoms: C_16  and  C_17
REMARK    7  A    between atoms: C_17  and  N_18
REMARK                            x       y       z     vdW  Elec       q    Type
REMARK                         _______ _______ _______ _____ _____    ______ ____
ROOT
ATOM      1  O   UNL     1       4.471   5.683  19.466  0.00  0.00    +0.000 OA
ATOM      2  C   UNL     1       3.673   5.961  18.571  0.00  0.00    +0.000 C 
ATOM      3  N   UNL     1       3.649   5.318  17.345  0.00  0.00    +0.000 N 
ATOM      4  H   UNL     1       2.977   5.613  16.649  0.00  0.00    +0.000 HD
ENDROOT
BRANCH   2   5
ATOM      5  C   UNL     1       2.691   7.046  18.826  0.00  0.00    +0.000 A 
ATOM      6  C   UNL     1       2.437   8.052  17.892  0.00  0.00    +0.000 A 
ATOM      7  C   UNL     1       1.694   9.174  18.272  0.00  0.00    +0.000 A 
ATOM      8  C   UNL     1       1.215   9.327  19.589  0.00  0.00    +0.000 A 
ATOM      9  C   UNL     1       1.374   8.265  20.485  0.00  0.00    +0.000 A 
ATOM     10  C   UNL     1       2.118   7.138  20.105  0.00  0.00    +0.000 A 
BRANCH   8  11
ATOM     11  C   UNL     1       0.921  10.734  20.066  0.00  0.00    +0.000 C 
BRANCH  11  12
ATOM     12  N   UNL     1      -0.451  11.226  20.250  0.00  0.00    +0.000 NA
ATOM     13  C   UNL     1      -1.482  10.629  19.380  0.00  0.00    +0.000 C 
ATOM     14  C   UNL     1      -1.562  11.123  17.912  0.00  0.00    +0.000 C 
ATOM     15  O   UNL     1      -1.392  12.541  17.750  0.00  0.00    +0.000 OA
ATOM     16  C   UNL     1      -0.251  13.013  18.477  0.00  0.00    +0.000 C 
ATOM     17  C   UNL     1      -0.443  12.692  19.974  0.00  0.00    +0.000 C 
ENDBRANCH  11  12
ENDBRANCH   8  11
ENDBRANCH   2   5
BRANCH   3  18
ATOM     18  C   UNL     1       4.611   4.293  16.928  0.00  0.00    +0.000 C 
BRANCH  18  19
ATOM     19  C   UNL     1       4.354   2.888  17.483  0.00  0.00    +0.000 C 
BRANCH  19  20
ATOM     20  O   UNL     1       2.955   2.605  17.578  0.00  0.00    +0.000 OA
BRANCH  20  21
ATOM     21  C   UNL     1       2.440   2.797  18.840  0.00  0.00    +0.000 A 
ATOM     22  C   UNL     1       3.294   2.459  19.892  0.00  0.00    +0.000 A 
ATOM     23  C   UNL     1       2.869   2.587  21.217  0.00  0.00    +0.000 A 
ATOM     24  C   UNL     1       1.593   3.069  21.501  0.00  0.00    +0.000 A 
ATOM     25  C   UNL     1       0.744   3.432  20.457  0.00  0.00    +0.000 A 
ATOM     26  C   UNL     1       1.168   3.300  19.137  0.00  0.00    +0.000 A 
ENDBRANCH  20  21
ENDBRANCH  19  20
ENDBRANCH  18  19
ENDBRANCH   3  18
TORSDOF 7
ENDMDL
MODEL 2
REMARK VINA RESULT:      -7.1      1.241      1.948
REMARK  Name = 
REMARK  7 active torsions:
REMARK  status: ('A' for Active; 'I' for Inactive)
REMARK    1  A    between atoms: C_2  and  C_13
REMARK    2  A    between atoms: N_3  and  C_4
REMARK    3  A    between atoms: C_4  and  C_5
REMARK    4  A    between atoms: C_5  and  O_6
REMARK    5  A    between atoms: O_6  and  C_7
REMARK    6  A    between atoms: C_16  and  C_17
REMARK    7  A    between atoms: C_17  and  N_18
REMARK                            x       y       z     vdW  Elec       q    Type
REMARK                         _______ _______ _______ _____ _____    ______ ____
ROOT
ATOM      1  O   UNL     1       2.963   5.915  20.033  0.00  0.00    +0.000 OA
ATOM      2  C   UNL     1       2.903   6.534  18.971  0.00  0.00    +0.000 C 
ATOM      3  N   UNL     1       3.543   6.124  17.813  0.00  0.00    +0.000 N 
ATOM      4  H   UNL     1       3.465   6.695  16.981  0.00  0.00    +0.000 HD
ENDROOT
BRANCH   2   5
ATOM      5  C   UNL     1       2.104   7.786  18.938  0.00  0.00    +0.000 A 
ATOM      6  C   UNL     1       2.068   8.614  17.815  0.00  0.00    +0.000 A 
ATOM      7  C   UNL     1       1.506   9.890  17.917  0.00  0.00    +0.000 A 
ATOM      8  C   UNL     1       0.996  10.373  19.139  0.00  0.00    +0.000 A 
ATOM      9  C   UNL     1       0.931   9.498  20.228  0.00  0.00    +0.000 A 
ATOM     10  C   UNL     1       1.494   8.217  20.127  0.00  0.00    +0.000 A 
BRANCH   8  11
ATOM     11  C   UNL     1       0.917  11.875  19.319  0.00  0.00    +0.000 C 
BRANCH  11  12
ATOM     12  N   UNL     1       0.008  12.712  18.525  0.00  0.00    +0.000 NA
ATOM     13  C   UNL     1      -0.008  14.151  18.851  0.00  0.00    +0.000 C 
ATOM     14  C   UNL     1      -0.792  14.596  20.113  0.00  0.00    +0.000 C 
ATOM     15  O   UNL     1      -2.050  13.927  20.300  0.00  0.00    +0.000 OA
ATOM     16  C   UNL     1      -1.910  12.509  20.154  0.00  0.00    +0.000 C 
ATOM     17  C   UNL     1      -1.377  12.201  18.740  0.00  0.00    +0.000 C 
ENDBRANCH  11  12
ENDBRANCH   8  11
ENDBRANCH   2   5
BRANCH   3  18
ATOM     18  C   UNL     1       4.430   4.960  17.724  0.00  0.00    +0.000 C 
BRANCH  18  19
ATOM     19  C   UNL     1       3.814   3.714  17.082  0.00  0.00    +0.000 C 
BRANCH  19  20
ATOM     20  O   UNL     1       3.896   2.577  17.947  0.00  0.00    +0.000 OA
BRANCH  20  21
ATOM     21  C   UNL     1       3.076   2.665  19.049  0.00  0.00    +0.000 A 
ATOM     22  C   UNL     1       1.722   2.870  18.773  0.00  0.00    +0.000 A 
ATOM     23  C   UNL     1       0.801   3.002  19.814  0.00  0.00    +0.000 A 
ATOM     24  C   UNL     1       1.221   2.912  21.140  0.00  0.00    +0.000 A 
ATOM     25  C   UNL     1       2.566   2.681  21.422  0.00  0.00    +0.000 A 
ATOM     26  C   UNL     1       3.485   2.555  20.383  0.00  0.00    +0.000 A 
ENDBRANCH  20  21
ENDBRANCH  19  20
ENDBRANCH  18  19
ENDBRANCH   3  18
TORSDOF 7
ENDMDL
MODEL 3
REMARK VINA RESULT:      -7.0      1.238      1.545
REMARK  Name = 
REMARK  7 active torsions:
REMARK  status: ('A' for Active; 'I' for Inactive)
REMARK    1  A    between atoms: C_2  and  C_13
REMARK    2  A    between atoms: N_3  and  C_4
REMARK    3  A    between atoms: C_4  and  C_5
REMARK    4  A    between atoms: C_5  and  O_6
REMARK    5  A    between atoms: O_6  and  C_7
REMARK    6  A    between atoms: C_16  and  C_17
REMARK    7  A    between atoms: C_17  and  N_18
REMARK                            x       y       z     vdW  Elec       q    Type
REMARK                         _______ _______ _______ _____ _____    ______ ____
ROOT
ATOM      1  O   UNL     1       3.598   5.794  19.912  0.00  0.00    +0.000 OA
ATOM      2  C   UNL     1       3.182   6.288  18.864  0.00  0.00    +0.000 C 
ATOM      3  N   UNL     1       3.500   5.792  17.610  0.00  0.00    +0.000 N 
ATOM      4  H   UNL     1       3.136   6.262  16.791  0.00  0.00    +0.000 HD
ENDROOT
BRANCH   2   5
ATOM      5  C   UNL     1       2.296   7.476  18.956  0.00  0.00    +0.000 A 
ATOM      6  C   UNL     1       2.129   8.362  17.891  0.00  0.00    +0.000 A 
ATOM      7  C   UNL     1       1.485   9.585  18.105  0.00  0.00    +0.000 A 
ATOM      8  C   UNL     1       1.021   9.957  19.383  0.00  0.00    +0.000 A 
ATOM      9  C   UNL     1       1.089   9.019  20.417  0.00  0.00    +0.000 A 
ATOM     10  C   UNL     1       1.733   7.791  20.204  0.00  0.00    +0.000 A 
BRANCH   8  11
ATOM     11  C   UNL     1       0.848  11.436  19.660  0.00  0.00    +0.000 C 
BRANCH  11  12
ATOM     12  N   UNL     1       0.189  11.933  20.875  0.00  0.00    +0.000 NA
ATOM     13  C   UNL     1      -1.286  11.870  20.891  0.00  0.00    +0.000 C 
ATOM     14  C   UNL     1      -2.063  12.950  20.096  0.00  0.00    +0.000 C 
ATOM     15  O   UNL     1      -1.522  14.277  20.206  0.00  0.00    +0.000 OA
ATOM     16  C   UNL     1      -0.106  14.278  19.986  0.00  0.00    +0.000 C 
ATOM     17  C   UNL     1       0.565  13.368  21.036  0.00  0.00    +0.000 C 
ENDBRANCH  11  12
ENDBRANCH   8  11
ENDBRANCH   2   5
BRANCH   3  18
ATOM     18  C   UNL     1       4.428   4.683  17.369  0.00  0.00    +0.000 C 
BRANCH  18  19
ATOM     19  C   UNL     1       3.775   3.361  16.952  0.00  0.00    +0.000 C 
BRANCH  19  20
ATOM     20  O   UNL     1       3.917   2.359  17.963  0.00  0.00    +0.000 OA
BRANCH  20  21
ATOM     21  C   UNL     1       3.085   2.547  19.043  0.00  0.00    +0.000 A 
ATOM     22  C   UNL     1       1.741   2.767  18.732  0.00  0.00    +0.000 A 
ATOM     23  C   UNL     1       0.810   2.997  19.747  0.00  0.00    +0.000 A 
ATOM     24  C   UNL     1       1.209   2.991  21.082  0.00  0.00    +0.000 A 
ATOM     25  C   UNL     1       2.543   2.746  21.401  0.00  0.00    +0.000 A 
ATOM     26  C   UNL     1       3.473   2.522  20.388  0.00  0.00    +0.000 A 
ENDBRANCH  20  21
ENDBRANCH  19  20
ENDBRANCH  18  19
ENDBRANCH   3  18
TORSDOF 7
ENDMDL
MODEL 4
REMARK VINA RESULT:      -7.0      1.970      8.294
REMARK  Name = 
REMARK  7 active torsions:
REMARK  status: ('A' for Active; 'I' for Inactive)
REMARK    1  A    between atoms: C_2  and  C_13
REMARK    2  A    between atoms: N_3  and  C_4
REMARK    3  A    between atoms: C_4  and  C_5
REMARK    4  A    between atoms: C_5  and  O_6
REMARK    5  A    between atoms: O_6  and  C_7
REMARK    6  A    between atoms: C_16  and  C_17
REMARK    7  A    between atoms: C_17  and  N_18
REMARK                            x       y       z     vdW  Elec       q    Type
REMARK                         _______ _______ _______ _____ _____    ______ ____
ROOT
ATOM      1  O   UNL     1       2.610  10.428  17.541  0.00  0.00    +0.000 OA
ATOM      2  C   UNL     1       1.938   9.726  18.297  0.00  0.00    +0.000 C 
ATOM      3  N   UNL     1       0.852  10.201  19.013  0.00  0.00    +0.000 N 
ATOM      4  H   UNL     1       0.358   9.570  19.630  0.00  0.00    +0.000 HD
ENDROOT
BRANCH   2   5
ATOM      5  C   UNL     1       2.319   8.298  18.445  0.00  0.00    +0.000 A 
ATOM      6  C   UNL     1       1.994   7.557  19.583  0.00  0.00    +0.000 A 
ATOM      7  C   UNL     1       2.580   6.303  19.780  0.00  0.00    +0.000 A 
ATOM      8  C   UNL     1       3.516   5.778  18.866  0.00  0.00    +0.000 A 
ATOM      9  C   UNL     1       3.749   6.472  17.675  0.00  0.00    +0.000 A 
ATOM     10  C   UNL     1       3.161   7.729  17.475  0.00  0.00    +0.000 A 
BRANCH   8  11
ATOM     11  C   UNL     1       4.485   4.733  19.381  0.00  0.00    +0.000 C 
BRANCH  11  12
ATOM     12  N   UNL     1       4.405   3.324  18.975  0.00  0.00    +0.000 NA
ATOM     13  C   UNL     1       3.300   2.968  18.064  0.00  0.00    +0.000 C 
ATOM     14  C   UNL     1       1.883   2.813  18.673  0.00  0.00    +0.000 C 
ATOM     15  O   UNL     1       1.851   2.140  19.943  0.00  0.00    +0.000 OA
ATOM     16  C   UNL     1       2.831   2.677  20.840  0.00  0.00    +0.000 C 
ATOM     17  C   UNL     1       4.230   2.509  20.212  0.00  0.00    +0.000 C 
ENDBRANCH  11  12
ENDBRANCH   8  11
ENDBRANCH   2   5
BRANCH   3  18
ATOM     18  C   UNL     1       0.418  11.602  19.028  0.00  0.00    +0.000 C 
BRANCH  18  19
ATOM     19  C   UNL     1      -1.069  11.824  19.319  0.00  0.00    +0.000 C 
BRANCH  19  20
ATOM     20  O   UNL     1      -1.842  10.650  19.053  0.00  0.00    +0.000 OA
BRANCH  20  21
ATOM     21  C   UNL     1      -2.573  10.725  17.889  0.00  0.00    +0.000 A 
ATOM     22  C   UNL     1      -2.073   9.982  16.818  0.00  0.00    +0.000 A 
ATOM     23  C   UNL     1      -2.719  10.004  15.580  0.00  0.00    +0.000 A 
ATOM     24  C   UNL     1      -3.879  10.757  15.406  0.00  0.00    +0.000 A 
ATOM     25  C   UNL     1      -4.398  11.481  16.477  0.00  0.00    +0.000 A 
ATOM     26  C   UNL     1      -3.751  11.462  17.710  0.00  0.00    +0.000 A 
ENDBRANCH  20  21
ENDBRANCH  19  20
ENDBRANCH  18  19
ENDBRANCH   3  18
TORSDOF 7
ENDMDL
MODEL 5
REMARK VINA RESULT:      -7.0      1.207      2.119
REMARK  Name = 
REMARK  7 active torsions:
REMARK  status: ('A' for Active; 'I' for Inactive)
REMARK    1  A    between atoms: C_2  and  C_13
REMARK    2  A    between atoms: N_3  and  C_4
REMARK    3  A    between atoms: C_4  and  C_5
REMARK    4  A    between atoms: C_5  and  O_6
REMARK    5  A    between atoms: O_6  and  C_7
REMARK    6  A    between atoms: C_16  and  C_17
REMARK    7  A    between atoms: C_17  and  N_18
REMARK                            x       y       z     vdW  Elec       q    Type
REMARK                         _______ _______ _______ _____ _____    ______ ____
ROOT
ATOM      1  O   UNL     1       4.521   5.706  19.366  0.00  0.00    +0.000 OA
ATOM      2  C   UNL     1       3.822   6.142  18.451  0.00  0.00    +0.000 C 
ATOM      3  N   UNL     1       3.784   5.580  17.186  0.00  0.00    +0.000 N 
ATOM      4  H   UNL     1       3.199   6.005  16.479  0.00  0.00    +0.000 HD
ENDROOT
BRANCH   2   5
ATOM      5  C   UNL     1       2.981   7.336  18.726  0.00  0.00    +0.000 A 
ATOM      6  C   UNL     1       2.249   7.472  19.907  0.00  0.00    +0.000 A 
ATOM      7  C   UNL     1       1.291   8.485  20.011  0.00  0.00    +0.000 A 
ATOM      8  C   UNL     1       1.027   9.361  18.939  0.00  0.00    +0.000 A 
ATOM      9  C   UNL     1       1.842   9.292  17.804  0.00  0.00    +0.000 A 
ATOM     10  C   UNL     1       2.804   8.276  17.698  0.00  0.00    +0.000 A 
BRANCH   8  11
ATOM     11  C   UNL     1      -0.328  10.037  18.905  0.00  0.00    +0.000 C 
BRANCH  11  12
ATOM     12  N   UNL     1      -0.481  11.491  19.042  0.00  0.00    +0.000 NA
ATOM     13  C   UNL     1       0.758  12.259  19.280  0.00  0.00    +0.000 C 
ATOM     14  C   UNL     1       1.352  12.244  20.712  0.00  0.00    +0.000 C 
ATOM     15  O   UNL     1       0.377  12.341  21.764  0.00  0.00    +0.000 OA
ATOM     16  C   UNL     1      -0.703  11.423  21.556  0.00  0.00    +0.000 C 
ATOM     17  C   UNL     1      -1.379  11.741  20.207  0.00  0.00    +0.000 C 
ENDBRANCH  11  12
ENDBRANCH   8  11
ENDBRANCH   2   5
BRANCH   3  18
ATOM     18  C   UNL     1       4.621   4.457  16.754  0.00  0.00    +0.000 C 
BRANCH  18  19
ATOM     19  C   UNL     1       4.200   3.082  17.282  0.00  0.00    +0.000 C 
BRANCH  19  20
ATOM     20  O   UNL     1       2.786   3.005  17.486  0.00  0.00    +0.000 OA
BRANCH  20  21
ATOM     21  C   UNL     1       2.419   3.051  18.812  0.00  0.00    +0.000 A 
ATOM     22  C   UNL     1       1.216   3.709  19.078  0.00  0.00    +0.000 A 
ATOM     23  C   UNL     1       0.758   3.841  20.391  0.00  0.00    +0.000 A 
ATOM     24  C   UNL     1       1.489   3.301  21.448  0.00  0.00    +0.000 A 
ATOM     25  C   UNL     1       2.676   2.621  21.187  0.00  0.00    +0.000 A 
ATOM     26  C   UNL     1       3.135   2.494  19.879  0.00  0.00    +0.000 A 
ENDBRANCH  20  21
ENDBRANCH  19  20
ENDBRANCH  18  19
ENDBRANCH   3  18
TORSDOF 7
ENDMDL
MODEL 6
REMARK VINA RESULT:      -6.9      0.910      1.406
REMARK  Name = 
REMARK  7 active torsions:
REMARK  status: ('A' for Active; 'I' for Inactive)
REMARK    1  A    between atoms: C_2  and  C_13
REMARK    2  A    between atoms: N_3  and  C_4
REMARK    3  A    between atoms: C_4  and  C_5
REMARK    4  A    between atoms: C_5  and  O_6
REMARK    5  A    between atoms: O_6  and  C_7
REMARK    6  A    between atoms: C_16  and  C_17
REMARK    7  A    between atoms: C_17  and  N_18
REMARK                            x       y       z     vdW  Elec       q    Type
REMARK                         _______ _______ _______ _____ _____    ______ ____
ROOT
ATOM      1  O   UNL     1       4.257   5.909  19.529  0.00  0.00    +0.000 OA
ATOM      2  C   UNL     1       3.580   6.197  18.541  0.00  0.00    +0.000 C 
ATOM      3  N   UNL     1       3.706   5.558  17.319  0.00  0.00    +0.000 N 
ATOM      4  H   UNL     1       3.129   5.862  16.546  0.00  0.00    +0.000 HD
ENDROOT
BRANCH   2   5
ATOM      5  C   UNL     1       2.580   7.287  18.676  0.00  0.00    +0.000 A 
ATOM      6  C   UNL     1       2.296   8.166  17.630  0.00  0.00    +0.000 A 
ATOM      7  C   UNL     1       1.537   9.313  17.880  0.00  0.00    +0.000 A 
ATOM      8  C   UNL     1       1.072   9.619  19.175  0.00  0.00    +0.000 A 
ATOM      9  C   UNL     1       1.262   8.678  20.192  0.00  0.00    +0.000 A 
ATOM     10  C   UNL     1       2.022   7.526  19.943  0.00  0.00    +0.000 A 
BRANCH   8  11
ATOM     11  C   UNL     1       0.757  11.068  19.481  0.00  0.00    +0.000 C 
BRANCH  11  12
ATOM     12  N   UNL     1      -0.323  11.795  18.799  0.00  0.00    +0.000 NA
ATOM     13  C   UNL     1      -0.166  13.259  18.703  0.00  0.00    +0.000 C 
ATOM     14  C   UNL     1      -0.473  14.103  19.966  0.00  0.00    +0.000 C 
ATOM     15  O   UNL     1      -1.629  13.674  20.704  0.00  0.00    +0.000 OA
ATOM     16  C   UNL     1      -1.609  12.258  20.922  0.00  0.00    +0.000 C 
ATOM     17  C   UNL     1      -1.583  11.541  19.557  0.00  0.00    +0.000 C 
ENDBRANCH  11  12
ENDBRANCH   8  11
ENDBRANCH   2   5
BRANCH   3  18
ATOM     18  C   UNL     1       4.706   4.528  17.021  0.00  0.00    +0.000 C 
BRANCH  18  19
ATOM     19  C   UNL     1       4.296   3.095  17.375  0.00  0.00    +0.000 C 
BRANCH  19  20
ATOM     20  O   UNL     1       2.874   2.954  17.447  0.00  0.00    +0.000 OA
BRANCH  20  21
ATOM     21  C   UNL     1       2.378   3.035  18.728  0.00  0.00    +0.000 A 
ATOM     22  C   UNL     1       3.238   2.586  19.732  0.00  0.00    +0.000 A 
ATOM     23  C   UNL     1       2.831   2.595  21.068  0.00  0.00    +0.000 A 
ATOM     24  C   UNL     1       1.568   3.071  21.414  0.00  0.00    +0.000 A 
ATOM     25  C   UNL     1       0.714   3.545  20.420  0.00  0.00    +0.000 A 
ATOM     26  C   UNL     1       1.119   3.530  19.088  0.00  0.00    +0.000 A 
ENDBRANCH  20  21
ENDBRANCH  19  20
ENDBRANCH  18  19
ENDBRANCH   3  18
TORSDOF 7
ENDMDL
MODEL 7
REMARK VINA RESULT:      -6.9      1.421      1.874
REMARK  Name = 
REMARK  7 active torsions:
REMARK  status: ('A' for Active; 'I' for Inactive)
REMARK    1  A    between atoms: C_2  and  C_13
REMARK    2  A    between atoms: N_3  and  C_4
REMARK    3  A    between atoms: C_4  and  C_5
REMARK    4  A    between atoms: C_5  and  O_6
REMARK    5  A    between atoms: O_6  and  C_7
REMARK    6  A    between atoms: C_16  and  C_17
REMARK    7  A    between atoms: C_17  and  N_18
REMARK                            x       y       z     vdW  Elec       q    Type
REMARK                         _______ _______ _______ _____ _____    ______ ____
ROOT
ATOM      1  O   UNL     1       3.945   7.240  16.826  0.00  0.00    +0.000 OA
ATOM      2  C   UNL     1       3.459   6.870  17.895  0.00  0.00    +0.000 C 
ATOM      3  N   UNL     1       3.813   5.688  18.525  0.00  0.00    +0.000 N 
ATOM      4  H   UNL     1       3.357   5.440  19.393  0.00  0.00    +0.000 HD
ENDROOT
BRANCH   2   5
ATOM      5  C   UNL     1       2.438   7.739  18.535  0.00  0.00    +0.000 A 
ATOM      6  C   UNL     1       1.945   8.886  17.911  0.00  0.00    +0.000 A 
ATOM      7  C   UNL     1       1.178   9.796  18.646  0.00  0.00    +0.000 A 
ATOM      8  C   UNL     1       0.912   9.594  20.016  0.00  0.00    +0.000 A 
ATOM      9  C   UNL     1       1.311   8.389  20.603  0.00  0.00    +0.000 A 
ATOM     10  C   UNL     1       2.079   7.475  19.867  0.00  0.00    +0.000 A 
BRANCH   8  11
ATOM     11  C   UNL     1       0.575  10.813  20.849  0.00  0.00    +0.000 C 
BRANCH  11  12
ATOM     12  N   UNL     1      -0.808  11.170  21.190  0.00  0.00    +0.000 NA
ATOM     13  C   UNL     1      -1.582  11.862  20.141  0.00  0.00    +0.000 C 
ATOM     14  C   UNL     1      -1.308  13.372  19.919  0.00  0.00    +0.000 C 
ATOM     15  O   UNL     1      -1.128  14.130  21.127  0.00  0.00    +0.000 OA
ATOM     16  C   UNL     1      -0.210  13.480  22.015  0.00  0.00    +0.000 C 
ATOM     17  C   UNL     1      -0.759  12.083  22.369  0.00  0.00    +0.000 C 
ENDBRANCH  11  12
ENDBRANCH   8  11
ENDBRANCH   2   5
BRANCH   3  18
ATOM     18  C   UNL     1       4.739   4.698  17.967  0.00  0.00    +0.000 C 
BRANCH  18  19
ATOM     19  C   UNL     1       4.082   3.534  17.218  0.00  0.00    +0.000 C 
BRANCH  19  20
ATOM     20  O   UNL     1       3.958   2.375  18.047  0.00  0.00    +0.000 OA
BRANCH  20  21
ATOM     21  C   UNL     1       3.092   2.545  19.104  0.00  0.00    +0.000 A 
ATOM     22  C   UNL     1       1.752   2.729  18.756  0.00  0.00    +0.000 A 
ATOM     23  C   UNL     1       0.788   2.938  19.745  0.00  0.00    +0.000 A 
ATOM     24  C   UNL     1       1.152   2.949  21.090  0.00  0.00    +0.000 A 
ATOM     25  C   UNL     1       2.483   2.740  21.446  0.00  0.00    +0.000 A 
ATOM     26  C   UNL     1       3.444   2.537  20.459  0.00  0.00    +0.000 A 
ENDBRANCH  20  21
ENDBRANCH  19  20
ENDBRANCH  18  19
ENDBRANCH   3  18
TORSDOF 7
ENDMDL
MODEL 8
REMARK VINA RESULT:      -6.9      1.924      3.620
REMARK  Name = 
REMARK  7 active torsions:
REMARK  status: ('A' for Active; 'I' for Inactive)
REMARK    1  A    between atoms: C_2  and  C_13
REMARK    2  A    between atoms: N_3  and  C_4
REMARK    3  A    between atoms: C_4  and  C_5
REMARK    4  A    between atoms: C_5  and  O_6
REMARK    5  A    between atoms: O_6  and  C_7
REMARK    6  A    between atoms: C_16  and  C_17
REMARK    7  A    between atoms: C_17  and  N_18
REMARK                            x       y       z     vdW  Elec       q    Type
REMARK                         _______ _______ _______ _____ _____    ______ ____
ROOT
ATOM      1  O   UNL     1       3.426   5.029  19.852  0.00  0.00    +0.000 OA
ATOM      2  C   UNL     1       2.764   5.590  18.978  0.00  0.00    +0.000 C 
ATOM      3  N   UNL     1       2.397   4.979  17.790  0.00  0.00    +0.000 N 
ATOM      4  H   UNL     1       1.869   5.509  17.110  0.00  0.00    +0.000 HD
ENDROOT
BRANCH   2   5
ATOM      5  C   UNL     1       2.343   6.994  19.217  0.00  0.00    +0.000 A 
ATOM      6  C   UNL     1       1.894   7.433  20.463  0.00  0.00    +0.000 A 
ATOM      7  C   UNL     1       1.283   8.686  20.575  0.00  0.00    +0.000 A 
ATOM      8  C   UNL     1       1.086   9.510  19.449  0.00  0.00    +0.000 A 
ATOM      9  C   UNL     1       1.640   9.115  18.227  0.00  0.00    +0.000 A 
ATOM     10  C   UNL     1       2.254   7.859  18.113  0.00  0.00    +0.000 A 
BRANCH   8  11
ATOM     11  C   UNL     1      -0.017  10.546  19.525  0.00  0.00    +0.000 C 
BRANCH  11  12
ATOM     12  N   UNL     1      -0.166  11.605  18.519  0.00  0.00    +0.000 NA
ATOM     13  C   UNL     1       0.670  12.807  18.706  0.00  0.00    +0.000 C 
ATOM     14  C   UNL     1       0.225  13.838  19.775  0.00  0.00    +0.000 C 
ATOM     15  O   UNL     1      -1.190  14.084  19.813  0.00  0.00    +0.000 OA
ATOM     16  C   UNL     1      -1.930  12.857  19.822  0.00  0.00    +0.000 C 
ATOM     17  C   UNL     1      -1.589  12.056  18.549  0.00  0.00    +0.000 C 
ENDBRANCH  11  12
ENDBRANCH   8  11
ENDBRANCH   2   5
BRANCH   3  18
ATOM     18  C   UNL     1       2.814   3.633  17.388  0.00  0.00    +0.000 C 
BRANCH  18  19
ATOM     19  C   UNL     1       4.326   3.432  17.237  0.00  0.00    +0.000 C 
BRANCH  19  20
ATOM     20  O   UNL     1       4.896   4.377  16.327  0.00  0.00    +0.000 OA
BRANCH  20  21
ATOM     21  C   UNL     1       5.798   5.233  16.918  0.00  0.00    +0.000 A 
ATOM     22  C   UNL     1       6.751   4.625  17.738  0.00  0.00    +0.000 A 
ATOM     23  C   UNL     1       7.701   5.397  18.411  0.00  0.00    +0.000 A 
ATOM     24  C   UNL     1       7.717   6.782  18.256  0.00  0.00    +0.000 A 
ATOM     25  C   UNL     1       6.786   7.393  17.420  0.00  0.00    +0.000 A 
ATOM     26  C   UNL     1       5.836   6.623  16.753  0.00  0.00    +0.000 A 
ENDBRANCH  20  21
ENDBRANCH  19  20
ENDBRANCH  18  19
ENDBRANCH   3  18
TORSDOF 7
ENDMDL
MODEL 9
REMARK VINA RESULT:      -6.9      1.729      2.205
REMARK  Name = 
REMARK  7 active torsions:
REMARK  status: ('A' for Active; 'I' for Inactive)
REMARK    1  A    between atoms: C_2  and  C_13
REMARK    2  A    between atoms: N_3  and  C_4
REMARK    3  A    between atoms: C_4  and  C_5
REMARK    4  A    between atoms: C_5  and  O_6
REMARK    5  A    between atoms: O_6  and  C_7
REMARK    6  A    between atoms: C_16  and  C_17
REMARK    7  A    between atoms: C_17  and  N_18
REMARK                            x       y       z     vdW  Elec       q    Type
REMARK                         _______ _______ _______ _____ _____    ______ ____
ROOT
ATOM      1  O   UNL     1       1.939   5.819  17.580  0.00  0.00    +0.000 OA
ATOM      2  C   UNL     1       2.758   6.535  18.155  0.00  0.00    +0.000 C 
ATOM      3  N   UNL     1       4.128   6.361  18.052  0.00  0.00    +0.000 N 
ATOM      4  H   UNL     1       4.740   6.978  18.570  0.00  0.00    +0.000 HD
ENDROOT
BRANCH   2   5
ATOM      5  C   UNL     1       2.242   7.640  19.004  0.00  0.00    +0.000 A 
ATOM      6  C   UNL     1       1.991   7.473  20.367  0.00  0.00    +0.000 A 
ATOM      7  C   UNL     1       1.283   8.457  21.064  0.00  0.00    +0.000 A 
ATOM      8  C   UNL     1       0.791   9.607  20.414  0.00  0.00    +0.000 A 
ATOM      9  C   UNL     1       1.144   9.822  19.078  0.00  0.00    +0.000 A 
ATOM     10  C   UNL     1       1.855   8.836  18.378  0.00  0.00    +0.000 A 
BRANCH   8  11
ATOM     11  C   UNL     1      -0.382  10.323  21.052  0.00  0.00    +0.000 C 
BRANCH  11  12
ATOM     12  N   UNL     1      -0.205  11.321  22.115  0.00  0.00    +0.000 NA
ATOM     13  C   UNL     1      -1.344  11.504  23.036  0.00  0.00    +0.000 C 
ATOM     14  C   UNL     1      -2.552  12.336  22.533  0.00  0.00    +0.000 C 
ATOM     15  O   UNL     1      -2.197  13.509  21.782  0.00  0.00    +0.000 OA
ATOM     16  C   UNL     1      -1.222  13.205  20.777  0.00  0.00    +0.000 C 
ATOM     17  C   UNL     1       0.040  12.638  21.458  0.00  0.00    +0.000 C 
ENDBRANCH  11  12
ENDBRANCH   8  11
ENDBRANCH   2   5
BRANCH   3  18
ATOM     18  C   UNL     1       4.771   5.265  17.321  0.00  0.00    +0.000 C 
BRANCH  18  19
ATOM     19  C   UNL     1       5.052   4.004  18.144  0.00  0.00    +0.000 C 
BRANCH  19  20
ATOM     20  O   UNL     1       4.080   2.983  17.896  0.00  0.00    +0.000 OA
BRANCH  20  21
ATOM     21  C   UNL     1       3.047   2.976  18.806  0.00  0.00    +0.000 A 
ATOM     22  C   UNL     1       3.379   3.407  20.092  0.00  0.00    +0.000 A 
ATOM     23  C   UNL     1       2.417   3.415  21.105  0.00  0.00    +0.000 A 
ATOM     24  C   UNL     1       1.111   3.010  20.837  0.00  0.00    +0.000 A 
ATOM     25  C   UNL     1       0.766   2.603  19.549  0.00  0.00    +0.000 A 
ATOM     26  C   UNL     1       1.727   2.590  18.541  0.00  0.00    +0.000 A 
ENDBRANCH  20  21
ENDBRANCH  19  20
ENDBRANCH  18  19
ENDBRANCH   3  18
TORSDOF 7
ENDMDL
