MODEL 1
REMARK VINA RESULT:      -8.3      0.000      0.000
REMARK  Name = 
REMARK  6 active torsions:
REMARK  status: ('A' for Active; 'I' for Inactive)
REMARK    1  A    between atoms: C_1  and  O_2
REMARK    2  A    between atoms: O_2  and  C_3
REMARK    3  A    between atoms: C_6  and  N_7
REMARK    4  A    between atoms: C_8  and  C_10
REMARK    5  A    between atoms: C_15  and  N_16
REMARK    6  A    between atoms: C_17  and  C_19
REMARK                            x       y       z     vdW  Elec       q    Type
REMARK                         _______ _______ _______ _____ _____    ______ ____
ROOT
ATOM      1  C   UNL     1       5.284   5.598  16.240  0.00  0.00    +0.000 A 
ATOM      2  C   UNL     1       5.919   6.004  15.047  0.00  0.00    +0.000 A 
ATOM      3  C   UNL     1       6.416   5.065  14.144  0.00  0.00    +0.000 A 
ATOM      4  C   UNL     1       6.259   3.711  14.404  0.00  0.00    +0.000 A 
ATOM      5  C   UNL     1       5.613   3.294  15.568  0.00  0.00    +0.000 A 
ATOM      6  C   UNL     1       5.129   4.215  16.509  0.00  0.00    +0.000 A 
ENDROOT
BRANCH   1   8
ATOM      7  N   UNL     1       3.365   6.659  17.351  0.00  0.00    +0.000 N 
ATOM      8  C   UNL     1       4.746   6.638  17.176  0.00  0.00    +0.000 C 
ATOM      9  O   UNL     1       5.552   7.400  17.705  0.00  0.00    +0.000 OA
ATOM     10  H   UNL     1       2.805   6.082  16.738  0.00  0.00    +0.000 HD
BRANCH   7  14
ATOM     11  C   UNL     1       1.130   9.068  20.031  0.00  0.00    +0.000 A 
ATOM     12  C   UNL     1       1.656   7.853  20.462  0.00  0.00    +0.000 A 
ATOM     13  C   UNL     1       2.406   7.047  19.599  0.00  0.00    +0.000 A 
ATOM     14  C   UNL     1       2.633   7.437  18.281  0.00  0.00    +0.000 A 
ATOM     15  C   UNL     1       2.082   8.649  17.841  0.00  0.00    +0.000 A 
ATOM     16  C   UNL     1       1.329   9.462  18.710  0.00  0.00    +0.000 A 
BRANCH  11  18
ATOM     17  C   UNL     1       0.506   9.263  22.305  0.00  0.00    +0.000 C 
ATOM     18  O   UNL     1       0.411   9.749  20.972  0.00  0.00    +0.000 OA
ENDBRANCH  11  18
ENDBRANCH   7  14
ENDBRANCH   1   8
BRANCH   6  19
ATOM     19  N   UNL     1       4.456   3.766  17.682  0.00  0.00    +0.000 N 
ATOM     20  C   UNL     1       3.128   3.377  17.762  0.00  0.00    +0.000 C 
ATOM     21  O   UNL     1       2.370   3.208  16.808  0.00  0.00    +0.000 OA
ATOM     22  H   UNL     1       5.049   3.656  18.507  0.00  0.00    +0.000 HD
BRANCH  20  23
ATOM     23  C   UNL     1       2.587   3.099  19.121  0.00  0.00    +0.000 A 
ATOM     24  C   UNL     1       3.399   2.669  20.175  0.00  0.00    +0.000 A 
ATOM     25  C   UNL     1       2.854   2.509  21.453  0.00  0.00    +0.000 A 
ATOM     26  C   UNL     1       1.502   2.779  21.682  0.00  0.00    +0.000 A 
ATOM     27  C   UNL     1       0.690   3.213  20.637  0.00  0.00    +0.000 A 
ATOM     28  C   UNL     1       1.231   3.379  19.361  0.00  0.00    +0.000 A 
ENDBRANCH  20  23
ENDBRANCH   6  19
TORSDOF 5
ENDMDL
MODEL 2
REMARK VINA RESULT:      -8.1      0.145      1.343
REMARK  Name = 
REMARK  6 active torsions:
REMARK  status: ('A' for Active; 'I' for Inactive)
REMARK    1  A    between atoms: C_1  and  O_2
REMARK    2  A    between atoms: O_2  and  C_3
REMARK    3  A    between atoms: C_6  and  N_7
REMARK    4  A    between atoms: C_8  and  C_10
REMARK    5  A    between atoms: C_15  and  N_16
REMARK    6  A    between atoms: C_17  and  C_19
REMARK                            x       y       z     vdW  Elec       q    Type
REMARK                         _______ _______ _______ _____ _____    ______ ____
ROOT
ATOM      1  C   UNL     1       5.276   5.656  16.240  0.00  0.00    +0.000 A 
ATOM      2  C   UNL     1       5.926   6.024  15.044  0.00  0.00    +0.000 A 
ATOM      3  C   UNL     1       6.434   5.057  14.176  0.00  0.00    +0.000 A 
ATOM      4  C   UNL     1       6.273   3.712  14.476  0.00  0.00    +0.000 A 
ATOM      5  C   UNL     1       5.612   3.332  15.644  0.00  0.00    +0.000 A 
ATOM      6  C   UNL     1       5.116   4.282  16.551  0.00  0.00    +0.000 A 
ENDROOT
BRANCH   1   8
ATOM      7  N   UNL     1       3.342   6.765  17.276  0.00  0.00    +0.000 N 
ATOM      8  C   UNL     1       4.726   6.724  17.137  0.00  0.00    +0.000 C 
ATOM      9  O   UNL     1       5.528   7.490  17.668  0.00  0.00    +0.000 OA
ATOM     10  H   UNL     1       2.791   6.179  16.663  0.00  0.00    +0.000 HD
BRANCH   7  14
ATOM     11  C   UNL     1       1.149   9.104  20.051  0.00  0.00    +0.000 A 
ATOM     12  C   UNL     1       1.372   9.582  18.763  0.00  0.00    +0.000 A 
ATOM     13  C   UNL     1       2.084   8.824  17.827  0.00  0.00    +0.000 A 
ATOM     14  C   UNL     1       2.596   7.574  18.168  0.00  0.00    +0.000 A 
ATOM     15  C   UNL     1       2.391   7.104  19.472  0.00  0.00    +0.000 A 
ATOM     16  C   UNL     1       1.673   7.865  20.415  0.00  0.00    +0.000 A 
BRANCH  11  18
ATOM     17  C   UNL     1       0.216   9.491  22.191  0.00  0.00    +0.000 C 
ATOM     18  O   UNL     1       0.449   9.949  20.864  0.00  0.00    +0.000 OA
ENDBRANCH  11  18
ENDBRANCH   7  14
ENDBRANCH   1   8
BRANCH   6  19
ATOM     19  N   UNL     1       4.429   3.870  17.728  0.00  0.00    +0.000 N 
ATOM     20  C   UNL     1       3.095   3.498  17.806  0.00  0.00    +0.000 C 
ATOM     21  O   UNL     1       2.344   3.314  16.851  0.00  0.00    +0.000 OA
ATOM     22  H   UNL     1       5.013   3.773  18.561  0.00  0.00    +0.000 HD
BRANCH  20  23
ATOM     23  C   UNL     1       2.540   3.260  19.167  0.00  0.00    +0.000 A 
ATOM     24  C   UNL     1       1.175   3.386  19.449  0.00  0.00    +0.000 A 
ATOM     25  C   UNL     1       0.697   3.063  20.723  0.00  0.00    +0.000 A 
ATOM     26  C   UNL     1       1.573   2.615  21.714  0.00  0.00    +0.000 A 
ATOM     27  C   UNL     1       2.933   2.483  21.437  0.00  0.00    +0.000 A 
ATOM     28  C   UNL     1       3.413   2.799  20.165  0.00  0.00    +0.000 A 
ENDBRANCH  20  23
ENDBRANCH   6  19
TORSDOF 5
ENDMDL
MODEL 3
REMARK VINA RESULT:      -8.0      0.515      1.092
REMARK  Name = 
REMARK  6 active torsions:
REMARK  status: ('A' for Active; 'I' for Inactive)
REMARK    1  A    between atoms: C_1  and  O_2
REMARK    2  A    between atoms: O_2  and  C_3
REMARK    3  A    between atoms: C_6  and  N_7
REMARK    4  A    between atoms: C_8  and  C_10
REMARK    5  A    between atoms: C_15  and  N_16
REMARK    6  A    between atoms: C_17  and  C_19
REMARK                            x       y       z     vdW  Elec       q    Type
REMARK                         _______ _______ _______ _____ _____    ______ ____
ROOT
ATOM      1  C   UNL     1       5.325   5.597  16.214  0.00  0.00    +0.000 A 
ATOM      2  C   UNL     1       5.980   5.968  15.021  0.00  0.00    +0.000 A 
ATOM      3  C   UNL     1       6.472   5.002  14.143  0.00  0.00    +0.000 A 
ATOM      4  C   UNL     1       6.288   3.657  14.428  0.00  0.00    +0.000 A 
ATOM      5  C   UNL     1       5.621   3.275  15.591  0.00  0.00    +0.000 A 
ATOM      6  C   UNL     1       5.142   4.222  16.509  0.00  0.00    +0.000 A 
ENDROOT
BRANCH   1   8
ATOM      7  N   UNL     1       3.412   6.707  17.289  0.00  0.00    +0.000 N 
ATOM      8  C   UNL     1       4.794   6.665  17.123  0.00  0.00    +0.000 C 
ATOM      9  O   UNL     1       5.607   7.429  17.639  0.00  0.00    +0.000 OA
ATOM     10  H   UNL     1       2.849   6.122  16.686  0.00  0.00    +0.000 HD
BRANCH   7  14
ATOM     11  C   UNL     1       1.197   9.207  19.900  0.00  0.00    +0.000 A 
ATOM     12  C   UNL     1       1.651   7.969  20.343  0.00  0.00    +0.000 A 
ATOM     13  C   UNL     1       2.393   7.131  19.503  0.00  0.00    +0.000 A 
ATOM     14  C   UNL     1       2.684   7.515  18.196  0.00  0.00    +0.000 A 
ATOM     15  C   UNL     1       2.206   8.752  17.743  0.00  0.00    +0.000 A 
ATOM     16  C   UNL     1       1.460   9.596  18.589  0.00  0.00    +0.000 A 
BRANCH  11  18
ATOM     17  C   UNL     1      -0.684  10.578  20.329  0.00  0.00    +0.000 C 
ATOM     18  O   UNL     1       0.478   9.918  20.818  0.00  0.00    +0.000 OA
ENDBRANCH  11  18
ENDBRANCH   7  14
ENDBRANCH   1   8
BRANCH   6  19
ATOM     19  N   UNL     1       4.448   3.809  17.682  0.00  0.00    +0.000 N 
ATOM     20  C   UNL     1       3.085   3.580  17.785  0.00  0.00    +0.000 C 
ATOM     21  O   UNL     1       2.290   3.544  16.848  0.00  0.00    +0.000 OA
ATOM     22  H   UNL     1       5.043   3.593  18.485  0.00  0.00    +0.000 HD
BRANCH  20  23
ATOM     23  C   UNL     1       2.546   3.312  19.147  0.00  0.00    +0.000 A 
ATOM     24  C   UNL     1       1.185   3.426  19.448  0.00  0.00    +0.000 A 
ATOM     25  C   UNL     1       0.723   3.076  20.721  0.00  0.00    +0.000 A 
ATOM     26  C   UNL     1       1.613   2.612  21.692  0.00  0.00    +0.000 A 
ATOM     27  C   UNL     1       2.970   2.492  21.396  0.00  0.00    +0.000 A 
ATOM     28  C   UNL     1       3.434   2.835  20.126  0.00  0.00    +0.000 A 
ENDBRANCH  20  23
ENDBRANCH   6  19
TORSDOF 5
ENDMDL
MODEL 4
REMARK VINA RESULT:      -7.5      0.993      1.368
REMARK  Name = 
REMARK  6 active torsions:
REMARK  status: ('A' for Active; 'I' for Inactive)
REMARK    1  A    between atoms: C_1  and  O_2
REMARK    2  A    between atoms: O_2  and  C_3
REMARK    3  A    between atoms: C_6  and  N_7
REMARK    4  A    between atoms: C_8  and  C_10
REMARK    5  A    between atoms: C_15  and  N_16
REMARK    6  A    between atoms: C_17  and  C_19
REMARK                            x       y       z     vdW  Elec       q    Type
REMARK                         _______ _______ _______ _____ _____    ______ ____
ROOT
ATOM      1  C   UNL     1       5.279   5.751  16.215  0.00  0.00    +0.000 A 
ATOM      2  C   UNL     1       6.140   6.041  15.137  0.00  0.00    +0.000 A 
ATOM      3  C   UNL     1       6.667   5.020  14.345  0.00  0.00    +0.000 A 
ATOM      4  C   UNL     1       6.315   3.702  14.599  0.00  0.00    +0.000 A 
ATOM      5  C   UNL     1       5.445   3.402  15.647  0.00  0.00    +0.000 A 
ATOM      6  C   UNL     1       4.924   4.404  16.480  0.00  0.00    +0.000 A 
ENDROOT
BRANCH   1   8
ATOM      7  N   UNL     1       3.337   6.892  17.201  0.00  0.00    +0.000 N 
ATOM      8  C   UNL     1       4.718   6.878  17.031  0.00  0.00    +0.000 C 
ATOM      9  O   UNL     1       5.509   7.707  17.474  0.00  0.00    +0.000 OA
ATOM     10  H   UNL     1       2.790   6.241  16.655  0.00  0.00    +0.000 HD
BRANCH   7  14
ATOM     11  C   UNL     1       1.128   9.391  19.820  0.00  0.00    +0.000 A 
ATOM     12  C   UNL     1       1.418   9.822  18.529  0.00  0.00    +0.000 A 
ATOM     13  C   UNL     1       2.136   9.010  17.643  0.00  0.00    +0.000 A 
ATOM     14  C   UNL     1       2.588   7.754  18.040  0.00  0.00    +0.000 A 
ATOM     15  C   UNL     1       2.316   7.331  19.348  0.00  0.00    +0.000 A 
ATOM     16  C   UNL     1       1.593   8.146  20.240  0.00  0.00    +0.000 A 
BRANCH  11  18
ATOM     17  C   UNL     1       0.535  10.124  21.990  0.00  0.00    +0.000 C 
ATOM     18  O   UNL     1       0.430  10.284  20.581  0.00  0.00    +0.000 OA
ENDBRANCH  11  18
ENDBRANCH   7  14
ENDBRANCH   1   8
BRANCH   6  19
ATOM     19  N   UNL     1       4.023   4.075  17.533  0.00  0.00    +0.000 N 
ATOM     20  C   UNL     1       4.369   3.814  18.850  0.00  0.00    +0.000 C 
ATOM     21  O   UNL     1       5.481   3.980  19.347  0.00  0.00    +0.000 OA
ATOM     22  H   UNL     1       3.032   4.120  17.286  0.00  0.00    +0.000 HD
BRANCH  20  23
ATOM     23  C   UNL     1       3.285   3.331  19.749  0.00  0.00    +0.000 A 
ATOM     24  C   UNL     1       3.545   2.550  20.880  0.00  0.00    +0.000 A 
ATOM     25  C   UNL     1       2.498   2.199  21.738  0.00  0.00    +0.000 A 
ATOM     26  C   UNL     1       1.194   2.626  21.473  0.00  0.00    +0.000 A 
ATOM     27  C   UNL     1       0.931   3.408  20.350  0.00  0.00    +0.000 A 
ATOM     28  C   UNL     1       1.973   3.765  19.494  0.00  0.00    +0.000 A 
ENDBRANCH  20  23
ENDBRANCH   6  19
TORSDOF 5
ENDMDL
MODEL 5
REMARK VINA RESULT:      -7.4      1.820      5.208
REMARK  Name = 
REMARK  6 active torsions:
REMARK  status: ('A' for Active; 'I' for Inactive)
REMARK    1  A    between atoms: C_1  and  O_2
REMARK    2  A    between atoms: O_2  and  C_3
REMARK    3  A    between atoms: C_6  and  N_7
REMARK    4  A    between atoms: C_8  and  C_10
REMARK    5  A    between atoms: C_15  and  N_16
REMARK    6  A    between atoms: C_17  and  C_19
REMARK                            x       y       z     vdW  Elec       q    Type
REMARK                         _______ _______ _______ _____ _____    ______ ____
ROOT
ATOM      1  C   UNL     1       2.440   4.535  20.024  0.00  0.00    +0.000 A 
ATOM      2  C   UNL     1       1.793   4.320  21.259  0.00  0.00    +0.000 A 
ATOM      3  C   UNL     1       2.015   3.154  21.992  0.00  0.00    +0.000 A 
ATOM      4  C   UNL     1       2.908   2.204  21.518  0.00  0.00    +0.000 A 
ATOM      5  C   UNL     1       3.573   2.413  20.310  0.00  0.00    +0.000 A 
ATOM      6  C   UNL     1       3.348   3.562  19.536  0.00  0.00    +0.000 A 
ENDROOT
BRANCH   1   8
ATOM      7  N   UNL     1       1.784   6.905  20.035  0.00  0.00    +0.000 N 
ATOM      8  C   UNL     1       2.189   5.810  19.276  0.00  0.00    +0.000 C 
ATOM      9  O   UNL     1       2.343   5.794  18.057  0.00  0.00    +0.000 OA
ATOM     10  H   UNL     1       1.545   6.742  21.003  0.00  0.00    +0.000 HD
BRANCH   7  14
ATOM     11  C   UNL     1       1.286  10.942  18.838  0.00  0.00    +0.000 A 
ATOM     12  C   UNL     1       1.909  10.037  17.985  0.00  0.00    +0.000 A 
ATOM     13  C   UNL     1       2.075   8.697  18.354  0.00  0.00    +0.000 A 
ATOM     14  C   UNL     1       1.629   8.241  19.592  0.00  0.00    +0.000 A 
ATOM     15  C   UNL     1       1.023   9.160  20.460  0.00  0.00    +0.000 A 
ATOM     16  C   UNL     1       0.854  10.508  20.089  0.00  0.00    +0.000 A 
BRANCH  11  18
ATOM     17  C   UNL     1      -0.086  12.824  18.423  0.00  0.00    +0.000 C 
ATOM     18  O   UNL     1       1.198  12.218  18.358  0.00  0.00    +0.000 OA
ENDBRANCH  11  18
ENDBRANCH   7  14
ENDBRANCH   1   8
BRANCH   6  19
ATOM     19  N   UNL     1       4.052   3.763  18.314  0.00  0.00    +0.000 N 
ATOM     20  C   UNL     1       5.374   4.161  18.191  0.00  0.00    +0.000 C 
ATOM     21  O   UNL     1       6.186   4.250  19.110  0.00  0.00    +0.000 OA
ATOM     22  H   UNL     1       3.537   3.507  17.469  0.00  0.00    +0.000 HD
BRANCH  20  23
ATOM     23  C   UNL     1       5.862   4.467  16.818  0.00  0.00    +0.000 A 
ATOM     24  C   UNL     1       7.181   4.858  16.563  0.00  0.00    +0.000 A 
ATOM     25  C   UNL     1       7.607   5.046  15.244  0.00  0.00    +0.000 A 
ATOM     26  C   UNL     1       6.724   4.844  14.181  0.00  0.00    +0.000 A 
ATOM     27  C   UNL     1       5.411   4.449  14.429  0.00  0.00    +0.000 A 
ATOM     28  C   UNL     1       4.983   4.255  15.743  0.00  0.00    +0.000 A 
ENDBRANCH  20  23
ENDBRANCH   6  19
TORSDOF 5
ENDMDL
MODEL 6
REMARK VINA RESULT:      -7.2      3.225      8.444
REMARK  Name = 
REMARK  6 active torsions:
REMARK  status: ('A' for Active; 'I' for Inactive)
REMARK    1  A    between atoms: C_1  and  O_2
REMARK    2  A    between atoms: O_2  and  C_3
REMARK    3  A    between atoms: C_6  and  N_7
REMARK    4  A    between atoms: C_8  and  C_10
REMARK    5  A    between atoms: C_15  and  N_16
REMARK    6  A    between atoms: C_17  and  C_19
REMARK                            x       y       z     vdW  Elec       q    Type
REMARK                         _______ _______ _______ _____ _____    ______ ____
ROOT
ATOM      1  C   UNL     1       0.876   9.071  20.883  0.00  0.00    +0.000 A 
ATOM      2  C   UNL     1       1.413   8.922  22.179  0.00  0.00    +0.000 A 
ATOM      3  C   UNL     1       0.775   9.475  23.289  0.00  0.00    +0.000 A 
ATOM      4  C   UNL     1      -0.423  10.156  23.124  0.00  0.00    +0.000 A 
ATOM      5  C   UNL     1      -0.979  10.292  21.852  0.00  0.00    +0.000 A 
ATOM      6  C   UNL     1      -0.345   9.772  20.713  0.00  0.00    +0.000 A 
ENDROOT
BRANCH   1   8
ATOM      7  N   UNL     1       2.217   7.229  19.959  0.00  0.00    +0.000 N 
ATOM      8  C   UNL     1       1.582   8.444  19.719  0.00  0.00    +0.000 C 
ATOM      9  O   UNL     1       1.563   9.050  18.649  0.00  0.00    +0.000 OA
ATOM     10  H   UNL     1       2.288   6.918  20.919  0.00  0.00    +0.000 HD
BRANCH   7  14
ATOM     11  C   UNL     1       3.907   4.588  17.104  0.00  0.00    +0.000 A 
ATOM     12  C   UNL     1       4.454   5.854  17.289  0.00  0.00    +0.000 A 
ATOM     13  C   UNL     1       3.920   6.739  18.233  0.00  0.00    +0.000 A 
ATOM     14  C   UNL     1       2.818   6.375  19.003  0.00  0.00    +0.000 A 
ATOM     15  C   UNL     1       2.253   5.108  18.799  0.00  0.00    +0.000 A 
ATOM     16  C   UNL     1       2.790   4.217  17.851  0.00  0.00    +0.000 A 
BRANCH  11  18
ATOM     17  C   UNL     1       5.891   4.116  15.906  0.00  0.00    +0.000 C 
ATOM     18  O   UNL     1       4.518   3.831  16.146  0.00  0.00    +0.000 OA
ENDBRANCH  11  18
ENDBRANCH   7  14
ENDBRANCH   1   8
BRANCH   6  19
ATOM     19  N   UNL     1      -0.941   9.907  19.427  0.00  0.00    +0.000 N 
ATOM     20  C   UNL     1      -1.746  10.954  19.007  0.00  0.00    +0.000 C 
ATOM     21  O   UNL     1      -1.941  12.001  19.621  0.00  0.00    +0.000 OA
ATOM     22  H   UNL     1      -0.670   9.194  18.746  0.00  0.00    +0.000 HD
BRANCH  20  23
ATOM     23  C   UNL     1      -2.397  10.814  17.675  0.00  0.00    +0.000 A 
ATOM     24  C   UNL     1      -1.904   9.951  16.690  0.00  0.00    +0.000 A 
ATOM     25  C   UNL     1      -2.606   9.792  15.491  0.00  0.00    +0.000 A 
ATOM     26  C   UNL     1      -3.797  10.488  15.273  0.00  0.00    +0.000 A 
ATOM     27  C   UNL     1      -4.295  11.345  16.253  0.00  0.00    +0.000 A 
ATOM     28  C   UNL     1      -3.601  11.502  17.453  0.00  0.00    +0.000 A 
ENDBRANCH  20  23
ENDBRANCH   6  19
TORSDOF 5
ENDMDL
MODEL 7
REMARK VINA RESULT:      -7.2      1.690      5.155
REMARK  Name = 
REMARK  6 active torsions:
REMARK  status: ('A' for Active; 'I' for Inactive)
REMARK    1  A    between atoms: C_1  and  O_2
REMARK    2  A    between atoms: O_2  and  C_3
REMARK    3  A    between atoms: C_6  and  N_7
REMARK    4  A    between atoms: C_8  and  C_10
REMARK    5  A    between atoms: C_15  and  N_16
REMARK    6  A    between atoms: C_17  and  C_19
REMARK                            x       y       z     vdW  Elec       q    Type
REMARK                         _______ _______ _______ _____ _____    ______ ____
ROOT
ATOM      1  C   UNL     1       2.475   4.453  20.007  0.00  0.00    +0.000 A 
ATOM      2  C   UNL     1       1.740   4.019  21.130  0.00  0.00    +0.000 A 
ATOM      3  C   UNL     1       2.095   2.858  21.816  0.00  0.00    +0.000 A 
ATOM      4  C   UNL     1       3.206   2.133  21.410  0.00  0.00    +0.000 A 
ATOM      5  C   UNL     1       3.957   2.562  20.316  0.00  0.00    +0.000 A 
ATOM      6  C   UNL     1       3.607   3.709  19.588  0.00  0.00    +0.000 A 
ENDROOT
BRANCH   1   8
ATOM      7  N   UNL     1       1.945   6.852  20.105  0.00  0.00    +0.000 N 
ATOM      8  C   UNL     1       2.072   5.717  19.309  0.00  0.00    +0.000 C 
ATOM      9  O   UNL     1       1.870   5.658  18.098  0.00  0.00    +0.000 OA
ATOM     10  H   UNL     1       1.987   6.728  21.108  0.00  0.00    +0.000 HD
BRANCH   7  14
ATOM     11  C   UNL     1       1.247  10.866  18.931  0.00  0.00    +0.000 A 
ATOM     12  C   UNL     1       1.909   9.995  18.070  0.00  0.00    +0.000 A 
ATOM     13  C   UNL     1       2.141   8.663  18.432  0.00  0.00    +0.000 A 
ATOM     14  C   UNL     1       1.724   8.181  19.670  0.00  0.00    +0.000 A 
ATOM     15  C   UNL     1       1.078   9.065  20.546  0.00  0.00    +0.000 A 
ATOM     16  C   UNL     1       0.842  10.405  20.182  0.00  0.00    +0.000 A 
BRANCH  11  18
ATOM     17  C   UNL     1       2.262  12.950  18.462  0.00  0.00    +0.000 C 
ATOM     18  O   UNL     1       1.095  12.137  18.458  0.00  0.00    +0.000 OA
ENDBRANCH  11  18
ENDBRANCH   7  14
ENDBRANCH   1   8
BRANCH   6  19
ATOM     19  N   UNL     1       4.399   4.138  18.485  0.00  0.00    +0.000 N 
ATOM     20  C   UNL     1       4.265   3.715  17.171  0.00  0.00    +0.000 C 
ATOM     21  O   UNL     1       3.346   3.029  16.727  0.00  0.00    +0.000 OA
ATOM     22  H   UNL     1       5.067   4.882  18.693  0.00  0.00    +0.000 HD
BRANCH  20  23
ATOM     23  C   UNL     1       5.305   4.168  16.207  0.00  0.00    +0.000 A 
ATOM     24  C   UNL     1       6.517   4.728  16.624  0.00  0.00    +0.000 A 
ATOM     25  C   UNL     1       7.495   5.053  15.678  0.00  0.00    +0.000 A 
ATOM     26  C   UNL     1       7.267   4.821  14.319  0.00  0.00    +0.000 A 
ATOM     27  C   UNL     1       6.063   4.259  13.899  0.00  0.00    +0.000 A 
ATOM     28  C   UNL     1       5.087   3.928  14.840  0.00  0.00    +0.000 A 
ENDBRANCH  20  23
ENDBRANCH   6  19
TORSDOF 5
ENDMDL
MODEL 8
REMARK VINA RESULT:      -7.2      1.801      5.292
REMARK  Name = 
REMARK  6 active torsions:
REMARK  status: ('A' for Active; 'I' for Inactive)
REMARK    1  A    between atoms: C_1  and  O_2
REMARK    2  A    between atoms: O_2  and  C_3
REMARK    3  A    between atoms: C_6  and  N_7
REMARK    4  A    between atoms: C_8  and  C_10
REMARK    5  A    between atoms: C_15  and  N_16
REMARK    6  A    between atoms: C_17  and  C_19
REMARK                            x       y       z     vdW  Elec       q    Type
REMARK                         _______ _______ _______ _____ _____    ______ ____
ROOT
ATOM      1  C   UNL     1       2.414   4.461  19.989  0.00  0.00    +0.000 A 
ATOM      2  C   UNL     1       1.768   4.270  21.228  0.00  0.00    +0.000 A 
ATOM      3  C   UNL     1       1.987   3.117  21.982  0.00  0.00    +0.000 A 
ATOM      4  C   UNL     1       2.877   2.156  21.524  0.00  0.00    +0.000 A 
ATOM      5  C   UNL     1       3.542   2.341  20.312  0.00  0.00    +0.000 A 
ATOM      6  C   UNL     1       3.319   3.477  19.518  0.00  0.00    +0.000 A 
ENDROOT
BRANCH   1   8
ATOM      7  N   UNL     1       1.861   6.857  19.966  0.00  0.00    +0.000 N 
ATOM      8  C   UNL     1       2.166   5.723  19.218  0.00  0.00    +0.000 C 
ATOM      9  O   UNL     1       2.234   5.663  17.992  0.00  0.00    +0.000 OA
ATOM     10  H   UNL     1       1.684   6.734  20.954  0.00  0.00    +0.000 HD
BRANCH   7  14
ATOM     11  C   UNL     1       1.426  10.870  18.668  0.00  0.00    +0.000 A 
ATOM     12  C   UNL     1       2.163   9.969  17.906  0.00  0.00    +0.000 A 
ATOM     13  C   UNL     1       2.312   8.637  18.308  0.00  0.00    +0.000 A 
ATOM     14  C   UNL     1       1.733   8.185  19.491  0.00  0.00    +0.000 A 
ATOM     15  C   UNL     1       1.010   9.099  20.271  0.00  0.00    +0.000 A 
ATOM     16  C   UNL     1       0.859  10.439  19.866  0.00  0.00    +0.000 A 
BRANCH  11  18
ATOM     17  C   UNL     1       2.549  12.920  18.306  0.00  0.00    +0.000 C 
ATOM     18  O   UNL     1       1.370  12.138  18.165  0.00  0.00    +0.000 OA
ENDBRANCH  11  18
ENDBRANCH   7  14
ENDBRANCH   1   8
BRANCH   6  19
ATOM     19  N   UNL     1       4.022   3.653  18.292  0.00  0.00    +0.000 N 
ATOM     20  C   UNL     1       5.341   4.059  18.160  0.00  0.00    +0.000 C 
ATOM     21  O   UNL     1       6.152   4.176  19.077  0.00  0.00    +0.000 OA
ATOM     22  H   UNL     1       3.510   3.372  17.453  0.00  0.00    +0.000 HD
BRANCH  20  23
ATOM     23  C   UNL     1       5.827   4.335  16.780  0.00  0.00    +0.000 A 
ATOM     24  C   UNL     1       5.129   3.914  15.644  0.00  0.00    +0.000 A 
ATOM     25  C   UNL     1       5.585   4.279  14.372  0.00  0.00    +0.000 A 
ATOM     26  C   UNL     1       6.733   5.062  14.232  0.00  0.00    +0.000 A 
ATOM     27  C   UNL     1       7.430   5.488  15.362  0.00  0.00    +0.000 A 
ATOM     28  C   UNL     1       6.975   5.131  16.632  0.00  0.00    +0.000 A 
ENDBRANCH  20  23
ENDBRANCH   6  19
TORSDOF 5
ENDMDL
MODEL 9
REMARK VINA RESULT:      -7.1      1.120      1.783
REMARK  Name = 
REMARK  6 active torsions:
REMARK  status: ('A' for Active; 'I' for Inactive)
REMARK    1  A    between atoms: C_1  and  O_2
REMARK    2  A    between atoms: O_2  and  C_3
REMARK    3  A    between atoms: C_6  and  N_7
REMARK    4  A    between atoms: C_8  and  C_10
REMARK    5  A    between atoms: C_15  and  N_16
REMARK    6  A    between atoms: C_17  and  C_19
REMARK                            x       y       z     vdW  Elec       q    Type
REMARK                         _______ _______ _______ _____ _____    ______ ____
ROOT
ATOM      1  C   UNL     1       5.189   5.795  16.274  0.00  0.00    +0.000 A 
ATOM      2  C   UNL     1       6.045   6.030  15.177  0.00  0.00    +0.000 A 
ATOM      3  C   UNL     1       6.568   4.971  14.436  0.00  0.00    +0.000 A 
ATOM      4  C   UNL     1       6.219   3.667  14.759  0.00  0.00    +0.000 A 
ATOM      5  C   UNL     1       5.356   3.420  15.826  0.00  0.00    +0.000 A 
ATOM      6  C   UNL     1       4.838   4.463  16.609  0.00  0.00    +0.000 A 
ENDROOT
BRANCH   1   8
ATOM      7  N   UNL     1       3.264   6.937  17.291  0.00  0.00    +0.000 N 
ATOM      8  C   UNL     1       4.632   6.961  17.034  0.00  0.00    +0.000 C 
ATOM      9  O   UNL     1       5.412   7.854  17.360  0.00  0.00    +0.000 OA
ATOM     10  H   UNL     1       2.713   6.224  16.834  0.00  0.00    +0.000 HD
BRANCH   7  14
ATOM     11  C   UNL     1       1.105   9.545  19.844  0.00  0.00    +0.000 A 
ATOM     12  C   UNL     1       1.383   9.927  18.535  0.00  0.00    +0.000 A 
ATOM     13  C   UNL     1       2.084   9.078  17.670  0.00  0.00    +0.000 A 
ATOM     14  C   UNL     1       2.532   7.834  18.107  0.00  0.00    +0.000 A 
ATOM     15  C   UNL     1       2.273   7.461  19.433  0.00  0.00    +0.000 A 
ATOM     16  C   UNL     1       1.566   8.313  20.303  0.00  0.00    +0.000 A 
BRANCH  11  18
ATOM     17  C   UNL     1      -0.466  11.314  19.858  0.00  0.00    +0.000 C 
ATOM     18  O   UNL     1       0.423  10.471  20.580  0.00  0.00    +0.000 OA
ENDBRANCH  11  18
ENDBRANCH   7  14
ENDBRANCH   1   8
BRANCH   6  19
ATOM     19  N   UNL     1       3.944   4.188  17.683  0.00  0.00    +0.000 N 
ATOM     20  C   UNL     1       4.304   3.831  18.973  0.00  0.00    +0.000 C 
ATOM     21  O   UNL     1       5.445   3.851  19.432  0.00  0.00    +0.000 OA
ATOM     22  H   UNL     1       2.956   4.352  17.478  0.00  0.00    +0.000 HD
BRANCH  20  23
ATOM     23  C   UNL     1       3.205   3.429  19.894  0.00  0.00    +0.000 A 
ATOM     24  C   UNL     1       1.869   3.766  19.654  0.00  0.00    +0.000 A 
ATOM     25  C   UNL     1       0.868   3.285  20.505  0.00  0.00    +0.000 A 
ATOM     26  C   UNL     1       1.195   2.471  21.592  0.00  0.00    +0.000 A 
ATOM     27  C   UNL     1       2.525   2.129  21.833  0.00  0.00    +0.000 A 
ATOM     28  C   UNL     1       3.526   2.602  20.983  0.00  0.00    +0.000 A 
ENDBRANCH  20  23
ENDBRANCH   6  19
TORSDOF 5
ENDMDL
