MODEL 1
REMARK VINA RESULT:      -7.8      0.000      0.000
REMARK  Name = 
REMARK  8 active torsions:
REMARK  status: ('A' for Active; 'I' for Inactive)
REMARK    1  A    between atoms: C_1  and  C_2
REMARK    2  A    between atoms: C_7  and  C_9
REMARK    3  A    between atoms: C_9  and  C_10
REMARK    4  A    between atoms: C_10  and  N_11
REMARK    5  A    between atoms: N_11  and  S_12
REMARK    6  A    between atoms: S_12  and  C_15
REMARK    7  A    between atoms: N_23  and  C_24
REMARK    8  A    between atoms: N_27  and  C_28
REMARK                            x       y       z     vdW  Elec       q    Type
REMARK                         _______ _______ _______ _____ _____    ______ ____
ROOT
ATOM      1  S   UNL     1       2.532   6.101  19.662  0.00  0.00    +0.000 S 
ATOM      2  O   UNL     1       1.825   5.305  20.636  0.00  0.00    +0.000 OA
ATOM      3  O   UNL     1       3.973   6.212  19.695  0.00  0.00    +0.000 OA
ENDROOT
BRANCH   1   4
ATOM      4  C   UNL     1       1.837   7.732  19.666  0.00  0.00    +0.000 A 
ATOM      5  C   UNL     1       1.990   8.563  18.556  0.00  0.00    +0.000 A 
ATOM      6  C   UNL     1       1.388   9.825  18.548  0.00  0.00    +0.000 A 
ATOM      7  C   UNL     1       0.649  10.278  19.654  0.00  0.00    +0.000 A 
ATOM      8  C   UNL     1       0.521   9.432  20.757  0.00  0.00    +0.000 A 
ATOM      9  C   UNL     1       1.104   8.157  20.770  0.00  0.00    +0.000 A 
ATOM     10  C   UNL     1      -0.236   9.887  21.931  0.00  0.00    +0.000 A 
ATOM     11  O   UNL     1      -0.409   9.108  22.866  0.00  0.00    +0.000 OA
ATOM     12  N   UNL     1      -0.704  11.189  21.902  0.00  0.00    +0.000 N 
ATOM     13  C   UNL     1      -1.377  11.702  23.079  0.00  0.00    +0.000 C 
ATOM     14  C   UNL     1      -0.627  12.041  20.806  0.00  0.00    +0.000 A 
ATOM     15  O   UNL     1      -1.131  13.168  20.834  0.00  0.00    +0.000 OA
ATOM     16  N   UNL     1       0.042  11.562  19.684  0.00  0.00    +0.000 N 
ATOM     17  C   UNL     1       0.127  12.427  18.513  0.00  0.00    +0.000 C 
ENDBRANCH   1   4
BRANCH   1  18
ATOM     18  N   UNL     1       2.104   5.520  18.137  0.00  0.00    +0.000 NA
ATOM     19  H   UNL     1       1.456   6.160  17.676  0.00  0.00    +0.000 HD
BRANCH  18  20
ATOM     20  C   UNL     1       1.833   4.082  17.921  0.00  0.00    +0.000 C 
BRANCH  20  21
ATOM     21  C   UNL     1       2.948   3.366  17.181  0.00  0.00    +0.000 C 
BRANCH  21  28
ATOM     22  C   UNL     1       4.595   6.934  16.426  0.00  0.00    +0.000 C 
ATOM     23  C   UNL     1       5.659   6.038  15.782  0.00  0.00    +0.000 C 
ATOM     24  C   UNL     1       7.035   6.220  16.443  0.00  0.00    +0.000 C 
ATOM     25  C   UNL     1       7.094   5.610  17.845  0.00  0.00    +0.000 C 
ATOM     26  C   UNL     1       6.628   4.158  17.835  0.00  0.00    +0.000 C 
ATOM     27  N   UNL     1       5.319   4.041  17.200  0.00  0.00    +0.000 N 
ATOM     28  C   UNL     1       4.263   3.494  17.916  0.00  0.00    +0.000 C 
ATOM     29  O   UNL     1       4.380   3.106  19.077  0.00  0.00    +0.000 OA
ATOM     30  C   UNL     1       5.242   4.562  15.832  0.00  0.00    +0.000 C 
ENDBRANCH  21  28
ENDBRANCH  20  21
ENDBRANCH  18  20
ENDBRANCH   1  18
TORSDOF 5
ENDMDL
MODEL 2
REMARK VINA RESULT:      -7.8      1.913      3.447
REMARK  Name = 
REMARK  8 active torsions:
REMARK  status: ('A' for Active; 'I' for Inactive)
REMARK    1  A    between atoms: C_1  and  C_2
REMARK    2  A    between atoms: C_7  and  C_9
REMARK    3  A    between atoms: C_9  and  C_10
REMARK    4  A    between atoms: C_10  and  N_11
REMARK    5  A    between atoms: N_11  and  S_12
REMARK    6  A    between atoms: S_12  and  C_15
REMARK    7  A    between atoms: N_23  and  C_24
REMARK    8  A    between atoms: N_27  and  C_28
REMARK                            x       y       z     vdW  Elec       q    Type
REMARK                         _______ _______ _______ _____ _____    ______ ____
ROOT
ATOM      1  S   UNL     1       3.063   6.719  17.990  0.00  0.00    +0.000 S 
ATOM      2  O   UNL     1       4.035   7.074  16.982  0.00  0.00    +0.000 OA
ATOM      3  O   UNL     1       2.048   5.724  17.729  0.00  0.00    +0.000 OA
ENDROOT
BRANCH   1   4
ATOM      4  C   UNL     1       2.272   8.204  18.547  0.00  0.00    +0.000 A 
ATOM      5  C   UNL     1       2.325   9.361  17.769  0.00  0.00    +0.000 A 
ATOM      6  C   UNL     1       1.649  10.510  18.191  0.00  0.00    +0.000 A 
ATOM      7  C   UNL     1       0.933  10.522  19.400  0.00  0.00    +0.000 A 
ATOM      8  C   UNL     1       0.905   9.355  20.164  0.00  0.00    +0.000 A 
ATOM      9  C   UNL     1       1.563   8.191  19.745  0.00  0.00    +0.000 A 
ATOM     10  C   UNL     1       0.174   9.346  21.439  0.00  0.00    +0.000 A 
ATOM     11  O   UNL     1       0.089   8.293  22.068  0.00  0.00    +0.000 OA
ATOM     12  N   UNL     1      -0.373  10.549  21.850  0.00  0.00    +0.000 N 
ATOM     13  C   UNL     1      -1.024  10.598  23.145  0.00  0.00    +0.000 C 
ATOM     14  C   UNL     1      -0.395  11.716  21.095  0.00  0.00    +0.000 A 
ATOM     15  O   UNL     1      -0.965  12.732  21.503  0.00  0.00    +0.000 OA
ATOM     16  N   UNL     1       0.252  11.679  19.863  0.00  0.00    +0.000 N 
ATOM     17  C   UNL     1       0.233  12.883  19.042  0.00  0.00    +0.000 C 
ENDBRANCH   1   4
BRANCH   1  18
ATOM     18  N   UNL     1       3.921   6.222  19.355  0.00  0.00    +0.000 NA
ATOM     19  H   UNL     1       3.777   6.873  20.128  0.00  0.00    +0.000 HD
BRANCH  18  20
ATOM     20  C   UNL     1       5.290   5.675  19.234  0.00  0.00    +0.000 C 
BRANCH  20  21
ATOM     21  C   UNL     1       5.353   4.170  19.405  0.00  0.00    +0.000 C 
BRANCH  21  28
ATOM     22  C   UNL     1       1.654   4.634  20.857  0.00  0.00    +0.000 C 
ATOM     23  C   UNL     1       1.775   3.113  20.995  0.00  0.00    +0.000 C 
ATOM     24  C   UNL     1       0.706   2.377  20.171  0.00  0.00    +0.000 C 
ATOM     25  C   UNL     1       0.974   2.455  18.666  0.00  0.00    +0.000 C 
ATOM     26  C   UNL     1       2.392   2.005  18.334  0.00  0.00    +0.000 C 
ATOM     27  N   UNL     1       3.366   2.734  19.141  0.00  0.00    +0.000 N 
ATOM     28  C   UNL     1       4.355   3.474  18.508  0.00  0.00    +0.000 C 
ATOM     29  O   UNL     1       4.443   3.551  17.283  0.00  0.00    +0.000 OA
ATOM     30  C   UNL     1       3.175   2.632  20.591  0.00  0.00    +0.000 C 
ENDBRANCH  21  28
ENDBRANCH  20  21
ENDBRANCH  18  20
ENDBRANCH   1  18
TORSDOF 5
ENDMDL
MODEL 3
REMARK VINA RESULT:      -7.7      2.374      8.339
REMARK  Name = 
REMARK  8 active torsions:
REMARK  status: ('A' for Active; 'I' for Inactive)
REMARK    1  A    between atoms: C_1  and  C_2
REMARK    2  A    between atoms: C_7  and  C_9
REMARK    3  A    between atoms: C_9  and  C_10
REMARK    4  A    between atoms: C_10  and  N_11
REMARK    5  A    between atoms: N_11  and  S_12
REMARK    6  A    between atoms: S_12  and  C_15
REMARK    7  A    between atoms: N_23  and  C_24
REMARK    8  A    between atoms: N_27  and  C_28
REMARK                            x       y       z     vdW  Elec       q    Type
REMARK                         _______ _______ _______ _____ _____    ______ ____
ROOT
ATOM      1  S   UNL     1       0.369   8.987  21.627  0.00  0.00    +0.000 S 
ATOM      2  O   UNL     1       1.252   9.581  22.603  0.00  0.00    +0.000 OA
ATOM      3  O   UNL     1      -0.782   8.214  22.037  0.00  0.00    +0.000 OA
ENDROOT
BRANCH   1   4
ATOM      4  C   UNL     1       1.344   8.009  20.517  0.00  0.00    +0.000 A 
ATOM      5  C   UNL     1       1.868   8.578  19.355  0.00  0.00    +0.000 A 
ATOM      6  C   UNL     1       2.684   7.812  18.517  0.00  0.00    +0.000 A 
ATOM      7  C   UNL     1       2.967   6.469  18.817  0.00  0.00    +0.000 A 
ATOM      8  C   UNL     1       2.422   5.921  19.979  0.00  0.00    +0.000 A 
ATOM      9  C   UNL     1       1.617   6.682  20.838  0.00  0.00    +0.000 A 
ATOM     10  C   UNL     1       2.693   4.514  20.309  0.00  0.00    +0.000 A 
ATOM     11  O   UNL     1       2.274   4.061  21.372  0.00  0.00    +0.000 OA
ATOM     12  N   UNL     1       3.410   3.785  19.376  0.00  0.00    +0.000 N 
ATOM     13  C   UNL     1       3.619   2.372  19.626  0.00  0.00    +0.000 C 
ATOM     14  C   UNL     1       3.997   4.310  18.231  0.00  0.00    +0.000 A 
ATOM     15  O   UNL     1       4.682   3.607  17.483  0.00  0.00    +0.000 OA
ATOM     16  N   UNL     1       3.777   5.660  17.976  0.00  0.00    +0.000 N 
ATOM     17  C   UNL     1       4.393   6.243  16.790  0.00  0.00    +0.000 C 
ENDBRANCH   1   4
BRANCH   1  18
ATOM     18  N   UNL     1      -0.185  10.233  20.634  0.00  0.00    +0.000 NA
ATOM     19  H   UNL     1      -0.158   9.951  19.653  0.00  0.00    +0.000 HD
BRANCH  18  20
ATOM     20  C   UNL     1       0.189  11.639  20.899  0.00  0.00    +0.000 C 
BRANCH  20  21
ATOM     21  C   UNL     1      -0.579  12.635  20.051  0.00  0.00    +0.000 C 
BRANCH  21  28
ATOM     22  C   UNL     1      -1.246   9.604  17.524  0.00  0.00    +0.000 C 
ATOM     23  C   UNL     1      -2.027  10.701  16.793  0.00  0.00    +0.000 C 
ATOM     24  C   UNL     1      -3.517  10.347  16.655  0.00  0.00    +0.000 C 
ATOM     25  C   UNL     1      -4.263  10.436  17.987  0.00  0.00    +0.000 C 
ATOM     26  C   UNL     1      -4.035  11.786  18.659  0.00  0.00    +0.000 C 
ATOM     27  N   UNL     1      -2.607  12.072  18.767  0.00  0.00    +0.000 N 
ATOM     28  C   UNL     1      -2.054  12.304  20.018  0.00  0.00    +0.000 C 
ATOM     29  O   UNL     1      -2.719  12.270  21.053  0.00  0.00    +0.000 OA
ATOM     30  C   UNL     1      -1.871  12.054  17.500  0.00  0.00    +0.000 C 
ENDBRANCH  21  28
ENDBRANCH  20  21
ENDBRANCH  18  20
ENDBRANCH   1  18
TORSDOF 5
ENDMDL
MODEL 4
REMARK VINA RESULT:      -7.6      0.954      1.001
REMARK  Name = 
REMARK  8 active torsions:
REMARK  status: ('A' for Active; 'I' for Inactive)
REMARK    1  A    between atoms: C_1  and  C_2
REMARK    2  A    between atoms: C_7  and  C_9
REMARK    3  A    between atoms: C_9  and  C_10
REMARK    4  A    between atoms: C_10  and  N_11
REMARK    5  A    between atoms: N_11  and  S_12
REMARK    6  A    between atoms: S_12  and  C_15
REMARK    7  A    between atoms: N_23  and  C_24
REMARK    8  A    between atoms: N_27  and  C_28
REMARK                            x       y       z     vdW  Elec       q    Type
REMARK                         _______ _______ _______ _____ _____    ______ ____
ROOT
ATOM      1  S   UNL     1       1.944   5.157  20.205  0.00  0.00    +0.000 S 
ATOM      2  O   UNL     1       0.668   4.482  20.165  0.00  0.00    +0.000 OA
ATOM      3  O   UNL     1       2.885   4.908  21.273  0.00  0.00    +0.000 OA
ENDROOT
BRANCH   1   4
ATOM      4  C   UNL     1       1.654   6.902  20.100  0.00  0.00    +0.000 A 
ATOM      5  C   UNL     1       2.176   7.637  19.035  0.00  0.00    +0.000 A 
ATOM      6  C   UNL     1       1.893   9.003  18.932  0.00  0.00    +0.000 A 
ATOM      7  C   UNL     1       1.105   9.651  19.899  0.00  0.00    +0.000 A 
ATOM      8  C   UNL     1       0.604   8.894  20.960  0.00  0.00    +0.000 A 
ATOM      9  C   UNL     1       0.866   7.521  21.066  0.00  0.00    +0.000 A 
ATOM     10  C   UNL     1      -0.211   9.551  21.991  0.00  0.00    +0.000 A 
ATOM     11  O   UNL     1      -0.713   8.864  22.879  0.00  0.00    +0.000 OA
ATOM     12  N   UNL     1      -0.354  10.924  21.889  0.00  0.00    +0.000 N 
ATOM     13  C   UNL     1      -1.077  11.617  22.938  0.00  0.00    +0.000 C 
ATOM     14  C   UNL     1       0.099  11.697  20.827  0.00  0.00    +0.000 A 
ATOM     15  O   UNL     1      -0.130  12.909  20.775  0.00  0.00    +0.000 OA
ATOM     16  N   UNL     1       0.815  11.039  19.832  0.00  0.00    +0.000 N 
ATOM     17  C   UNL     1       1.290  11.822  18.697  0.00  0.00    +0.000 C 
ENDBRANCH   1   4
BRANCH   1  18
ATOM     18  N   UNL     1       2.729   4.824  18.750  0.00  0.00    +0.000 NA
ATOM     19  H   UNL     1       2.634   5.606  18.101  0.00  0.00    +0.000 HD
BRANCH  18  20
ATOM     20  C   UNL     1       2.652   3.480  18.135  0.00  0.00    +0.000 C 
BRANCH  20  21
ATOM     21  C   UNL     1       3.985   2.983  17.609  0.00  0.00    +0.000 C 
BRANCH  21  28
ATOM     22  C   UNL     1       4.733   6.767  16.546  0.00  0.00    +0.000 C 
ATOM     23  C   UNL     1       6.056   6.130  16.106  0.00  0.00    +0.000 C 
ATOM     24  C   UNL     1       7.258   6.739  16.847  0.00  0.00    +0.000 C 
ATOM     25  C   UNL     1       7.317   6.311  18.314  0.00  0.00    +0.000 C 
ATOM     26  C   UNL     1       7.244   4.793  18.450  0.00  0.00    +0.000 C 
ATOM     27  N   UNL     1       6.086   4.268  17.732  0.00  0.00    +0.000 N 
ATOM     28  C   UNL     1       5.135   3.532  18.424  0.00  0.00    +0.000 C 
ATOM     29  O   UNL     1       5.219   3.307  19.631  0.00  0.00    +0.000 OA
ATOM     30  C   UNL     1       6.029   4.609  16.308  0.00  0.00    +0.000 C 
ENDBRANCH  21  28
ENDBRANCH  20  21
ENDBRANCH  18  20
ENDBRANCH   1  18
TORSDOF 5
ENDMDL
MODEL 5
REMARK VINA RESULT:      -7.5      1.998      8.865
REMARK  Name = 
REMARK  8 active torsions:
REMARK  status: ('A' for Active; 'I' for Inactive)
REMARK    1  A    between atoms: C_1  and  C_2
REMARK    2  A    between atoms: C_7  and  C_9
REMARK    3  A    between atoms: C_9  and  C_10
REMARK    4  A    between atoms: C_10  and  N_11
REMARK    5  A    between atoms: N_11  and  S_12
REMARK    6  A    between atoms: S_12  and  C_15
REMARK    7  A    between atoms: N_23  and  C_24
REMARK    8  A    between atoms: N_27  and  C_28
REMARK                            x       y       z     vdW  Elec       q    Type
REMARK                         _______ _______ _______ _____ _____    ______ ____
ROOT
ATOM      1  S   UNL     1       0.602   9.380  20.774  0.00  0.00    +0.000 S 
ATOM      2  O   UNL     1       1.444  10.065  21.727  0.00  0.00    +0.000 OA
ATOM      3  O   UNL     1      -0.557   8.633  21.207  0.00  0.00    +0.000 OA
ENDROOT
BRANCH   1   4
ATOM      4  C   UNL     1       1.625   8.320  19.789  0.00  0.00    +0.000 A 
ATOM      5  C   UNL     1       2.166   8.785  18.589  0.00  0.00    +0.000 A 
ATOM      6  C   UNL     1       3.019   7.959  17.849  0.00  0.00    +0.000 A 
ATOM      7  C   UNL     1       3.321   6.658  18.287  0.00  0.00    +0.000 A 
ATOM      8  C   UNL     1       2.759   6.215  19.485  0.00  0.00    +0.000 A 
ATOM      9  C   UNL     1       1.917   7.038  20.245  0.00  0.00    +0.000 A 
ATOM     10  C   UNL     1       3.050   4.854  19.958  0.00  0.00    +0.000 A 
ATOM     11  O   UNL     1       2.613   4.498  21.050  0.00  0.00    +0.000 OA
ATOM     12  N   UNL     1       3.805   4.053  19.118  0.00  0.00    +0.000 N 
ATOM     13  C   UNL     1       4.036   2.677  19.511  0.00  0.00    +0.000 C 
ATOM     14  C   UNL     1       4.410   4.477  17.941  0.00  0.00    +0.000 A 
ATOM     15  O   UNL     1       5.128   3.720  17.282  0.00  0.00    +0.000 OA
ATOM     16  N   UNL     1       4.169   5.790  17.548  0.00  0.00    +0.000 N 
ATOM     17  C   UNL     1       4.802   6.268  16.325  0.00  0.00    +0.000 C 
ENDBRANCH   1   4
BRANCH   1  18
ATOM     18  N   UNL     1       0.076  10.530  19.658  0.00  0.00    +0.000 NA
ATOM     19  H   UNL     1       0.296  11.473  19.981  0.00  0.00    +0.000 HD
BRANCH  18  20
ATOM     20  C   UNL     1      -1.226  10.384  18.972  0.00  0.00    +0.000 C 
BRANCH  20  21
ATOM     21  C   UNL     1      -2.126  11.595  19.128  0.00  0.00    +0.000 C 
BRANCH  21  28
ATOM     22  C   UNL     1      -1.544  11.405  23.082  0.00  0.00    +0.000 C 
ATOM     23  C   UNL     1      -2.416  12.663  23.029  0.00  0.00    +0.000 C 
ATOM     24  C   UNL     1      -1.682  13.892  23.591  0.00  0.00    +0.000 C 
ATOM     25  C   UNL     1      -0.575  14.387  22.658  0.00  0.00    +0.000 C 
ATOM     26  C   UNL     1      -1.102  14.607  21.244  0.00  0.00    +0.000 C 
ATOM     27  N   UNL     1      -1.787  13.412  20.759  0.00  0.00    +0.000 N 
ATOM     28  C   UNL     1      -1.344  12.802  19.594  0.00  0.00    +0.000 C 
ATOM     29  O   UNL     1      -0.384  13.222  18.949  0.00  0.00    +0.000 OA
ATOM     30  C   UNL     1      -2.893  12.945  21.599  0.00  0.00    +0.000 C 
ENDBRANCH  21  28
ENDBRANCH  20  21
ENDBRANCH  18  20
ENDBRANCH   1  18
TORSDOF 5
ENDMDL
MODEL 6
REMARK VINA RESULT:      -7.5      2.337      9.655
REMARK  Name = 
REMARK  8 active torsions:
REMARK  status: ('A' for Active; 'I' for Inactive)
REMARK    1  A    between atoms: C_1  and  C_2
REMARK    2  A    between atoms: C_7  and  C_9
REMARK    3  A    between atoms: C_9  and  C_10
REMARK    4  A    between atoms: C_10  and  N_11
REMARK    5  A    between atoms: N_11  and  S_12
REMARK    6  A    between atoms: S_12  and  C_15
REMARK    7  A    between atoms: N_23  and  C_24
REMARK    8  A    between atoms: N_27  and  C_28
REMARK                            x       y       z     vdW  Elec       q    Type
REMARK                         _______ _______ _______ _____ _____    ______ ____
ROOT
ATOM      1  S   UNL     1       0.465   8.910  21.504  0.00  0.00    +0.000 S 
ATOM      2  O   UNL     1       1.332   9.416  22.543  0.00  0.00    +0.000 OA
ATOM      3  O   UNL     1      -0.733   8.170  21.829  0.00  0.00    +0.000 OA
ENDROOT
BRANCH   1   4
ATOM      4  C   UNL     1       1.444   7.945  20.386  0.00  0.00    +0.000 A 
ATOM      5  C   UNL     1       1.960   8.524  19.226  0.00  0.00    +0.000 A 
ATOM      6  C   UNL     1       2.779   7.768  18.380  0.00  0.00    +0.000 A 
ATOM      7  C   UNL     1       3.071   6.425  18.671  0.00  0.00    +0.000 A 
ATOM      8  C   UNL     1       2.533   5.867  19.832  0.00  0.00    +0.000 A 
ATOM      9  C   UNL     1       1.725   6.618  20.697  0.00  0.00    +0.000 A 
ATOM     10  C   UNL     1       2.813   4.460  20.152  0.00  0.00    +0.000 A 
ATOM     11  O   UNL     1       2.400   3.998  21.213  0.00  0.00    +0.000 OA
ATOM     12  N   UNL     1       3.532   3.741  19.213  0.00  0.00    +0.000 N 
ATOM     13  C   UNL     1       3.750   2.327  19.454  0.00  0.00    +0.000 C 
ATOM     14  C   UNL     1       4.113   4.277  18.070  0.00  0.00    +0.000 A 
ATOM     15  O   UNL     1       4.800   3.582  17.315  0.00  0.00    +0.000 OA
ATOM     16  N   UNL     1       3.883   5.627  17.823  0.00  0.00    +0.000 N 
ATOM     17  C   UNL     1       4.492   6.221  16.639  0.00  0.00    +0.000 C 
ENDBRANCH   1   4
BRANCH   1  18
ATOM     18  N   UNL     1       0.006  10.226  20.554  0.00  0.00    +0.000 NA
ATOM     19  H   UNL     1       0.238  10.061  19.573  0.00  0.00    +0.000 HD
BRANCH  18  20
ATOM     20  C   UNL     1       0.209  11.613  21.028  0.00  0.00    +0.000 C 
BRANCH  20  21
ATOM     21  C   UNL     1      -0.823  12.055  22.048  0.00  0.00    +0.000 C 
BRANCH  21  28
ATOM     22  C   UNL     1      -2.849  14.623  24.352  0.00  0.00    +0.000 C 
ATOM     23  C   UNL     1      -3.829  13.446  24.387  0.00  0.00    +0.000 C 
ATOM     24  C   UNL     1      -5.201  13.827  23.805  0.00  0.00    +0.000 C 
ATOM     25  C   UNL     1      -5.162  13.999  22.286  0.00  0.00    +0.000 C 
ATOM     26  C   UNL     1      -4.549  12.778  21.608  0.00  0.00    +0.000 C 
ATOM     27  N   UNL     1      -3.250  12.462  22.194  0.00  0.00    +0.000 N 
ATOM     28  C   UNL     1      -2.127  12.431  21.380  0.00  0.00    +0.000 C 
ATOM     29  O   UNL     1      -2.175  12.669  20.174  0.00  0.00    +0.000 OA
ATOM     30  C   UNL     1      -3.260  12.232  23.642  0.00  0.00    +0.000 C 
ENDBRANCH  21  28
ENDBRANCH  20  21
ENDBRANCH  18  20
ENDBRANCH   1  18
TORSDOF 5
ENDMDL
MODEL 7
REMARK VINA RESULT:      -7.5      1.975      3.887
REMARK  Name = 
REMARK  8 active torsions:
REMARK  status: ('A' for Active; 'I' for Inactive)
REMARK    1  A    between atoms: C_1  and  C_2
REMARK    2  A    between atoms: C_7  and  C_9
REMARK    3  A    between atoms: C_9  and  C_10
REMARK    4  A    between atoms: C_10  and  N_11
REMARK    5  A    between atoms: N_11  and  S_12
REMARK    6  A    between atoms: S_12  and  C_15
REMARK    7  A    between atoms: N_23  and  C_24
REMARK    8  A    between atoms: N_27  and  C_28
REMARK                            x       y       z     vdW  Elec       q    Type
REMARK                         _______ _______ _______ _____ _____    ______ ____
ROOT
ATOM      1  S   UNL     1       2.853   6.947  18.377  0.00  0.00    +0.000 S 
ATOM      2  O   UNL     1       3.679   7.764  17.519  0.00  0.00    +0.000 OA
ATOM      3  O   UNL     1       1.978   5.936  17.826  0.00  0.00    +0.000 OA
ENDROOT
BRANCH   1   4
ATOM      4  C   UNL     1       1.898   8.020  19.415  0.00  0.00    +0.000 A 
ATOM      5  C   UNL     1       1.452   7.576  20.661  0.00  0.00    +0.000 A 
ATOM      6  C   UNL     1       0.748   8.451  21.495  0.00  0.00    +0.000 A 
ATOM      7  C   UNL     1       0.465   9.765  21.086  0.00  0.00    +0.000 A 
ATOM      8  C   UNL     1       0.913  10.180  19.832  0.00  0.00    +0.000 A 
ATOM      9  C   UNL     1       1.634   9.319  18.992  0.00  0.00    +0.000 A 
ATOM     10  C   UNL     1       0.618  11.546  19.376  0.00  0.00    +0.000 A 
ATOM     11  O   UNL     1       1.081  11.928  18.304  0.00  0.00    +0.000 OA
ATOM     12  N   UNL     1      -0.182  12.317  20.202  0.00  0.00    +0.000 N 
ATOM     13  C   UNL     1      -0.567  13.638  19.743  0.00  0.00    +0.000 C 
ATOM     14  C   UNL     1      -0.610  11.947  21.472  0.00  0.00    +0.000 A 
ATOM     15  O   UNL     1      -1.263  12.721  22.177  0.00  0.00    +0.000 OA
ATOM     16  N   UNL     1      -0.263  10.670  21.904  0.00  0.00    +0.000 N 
ATOM     17  C   UNL     1      -0.685  10.260  23.237  0.00  0.00    +0.000 C 
ENDBRANCH   1   4
BRANCH   1  18
ATOM     18  N   UNL     1       3.879   6.184  19.477  0.00  0.00    +0.000 NA
ATOM     19  H   UNL     1       3.763   6.578  20.412  0.00  0.00    +0.000 HD
BRANCH  18  20
ATOM     20  C   UNL     1       5.267   5.836  19.105  0.00  0.00    +0.000 C 
BRANCH  20  21
ATOM     21  C   UNL     1       5.500   4.342  18.986  0.00  0.00    +0.000 C 
BRANCH  21  28
ATOM     22  C   UNL     1       2.048   4.263  21.007  0.00  0.00    +0.000 C 
ATOM     23  C   UNL     1       2.297   2.755  20.901  0.00  0.00    +0.000 C 
ATOM     24  C   UNL     1       1.167   2.042  20.139  0.00  0.00    +0.000 C 
ATOM     25  C   UNL     1       1.192   2.346  18.640  0.00  0.00    +0.000 C 
ATOM     26  C   UNL     1       2.570   2.078  18.045  0.00  0.00    +0.000 C 
ATOM     27  N   UNL     1       3.603   2.778  18.802  0.00  0.00    +0.000 N 
ATOM     28  C   UNL     1       4.426   3.685  18.149  0.00  0.00    +0.000 C 
ATOM     29  O   UNL     1       4.317   3.934  16.949  0.00  0.00    +0.000 OA
ATOM     30  C   UNL     1       3.647   2.464  20.232  0.00  0.00    +0.000 C 
ENDBRANCH  21  28
ENDBRANCH  20  21
ENDBRANCH  18  20
ENDBRANCH   1  18
TORSDOF 5
ENDMDL
MODEL 8
REMARK VINA RESULT:      -7.5      2.511      9.646
REMARK  Name = 
REMARK  8 active torsions:
REMARK  status: ('A' for Active; 'I' for Inactive)
REMARK    1  A    between atoms: C_1  and  C_2
REMARK    2  A    between atoms: C_7  and  C_9
REMARK    3  A    between atoms: C_9  and  C_10
REMARK    4  A    between atoms: C_10  and  N_11
REMARK    5  A    between atoms: N_11  and  S_12
REMARK    6  A    between atoms: S_12  and  C_15
REMARK    7  A    between atoms: N_23  and  C_24
REMARK    8  A    between atoms: N_27  and  C_28
REMARK                            x       y       z     vdW  Elec       q    Type
REMARK                         _______ _______ _______ _____ _____    ______ ____
ROOT
ATOM      1  S   UNL     1       0.466   9.086  21.353  0.00  0.00    +0.000 S 
ATOM      2  O   UNL     1       1.338   9.683  22.337  0.00  0.00    +0.000 OA
ATOM      3  O   UNL     1      -0.693   8.320  21.752  0.00  0.00    +0.000 OA
ENDROOT
BRANCH   1   4
ATOM      4  C   UNL     1       1.453   8.095  20.264  0.00  0.00    +0.000 A 
ATOM      5  C   UNL     1       1.959   8.642  19.084  0.00  0.00    +0.000 A 
ATOM      6  C   UNL     1       2.784   7.868  18.261  0.00  0.00    +0.000 A 
ATOM      7  C   UNL     1       3.093   6.539  18.596  0.00  0.00    +0.000 A 
ATOM      8  C   UNL     1       2.566   6.013  19.776  0.00  0.00    +0.000 A 
ATOM      9  C   UNL     1       1.752   6.783  20.619  0.00  0.00    +0.000 A 
ATOM     10  C   UNL     1       2.864   4.622  20.142  0.00  0.00    +0.000 A 
ATOM     11  O   UNL     1       2.460   4.190  21.220  0.00  0.00    +0.000 OA
ATOM     12  N   UNL     1       3.589   3.880  19.225  0.00  0.00    +0.000 N 
ATOM     13  C   UNL     1       3.825   2.478  19.512  0.00  0.00    +0.000 C 
ATOM     14  C   UNL     1       4.160   4.385  18.063  0.00  0.00    +0.000 A 
ATOM     15  O   UNL     1       4.853   3.673  17.330  0.00  0.00    +0.000 OA
ATOM     16  N   UNL     1       3.913   5.723  17.772  0.00  0.00    +0.000 N 
ATOM     17  C   UNL     1       4.511   6.285  16.566  0.00  0.00    +0.000 C 
ENDBRANCH   1   4
BRANCH   1  18
ATOM     18  N   UNL     1      -0.069  10.326  20.343  0.00  0.00    +0.000 NA
ATOM     19  H   UNL     1       0.351  10.244  19.417  0.00  0.00    +0.000 HD
BRANCH  18  20
ATOM     20  C   UNL     1      -0.216  11.708  20.850  0.00  0.00    +0.000 C 
BRANCH  20  21
ATOM     21  C   UNL     1      -1.662  12.149  20.982  0.00  0.00    +0.000 C 
BRANCH  21  28
ATOM     22  C   UNL     1      -5.649  12.449  21.125  0.00  0.00    +0.000 C 
ATOM     23  C   UNL     1      -5.285  13.720  21.901  0.00  0.00    +0.000 C 
ATOM     24  C   UNL     1      -5.842  13.692  23.334  0.00  0.00    +0.000 C 
ATOM     25  C   UNL     1      -5.098  12.701  24.230  0.00  0.00    +0.000 C 
ATOM     26  C   UNL     1      -3.592  12.937  24.184  0.00  0.00    +0.000 C 
ATOM     27  N   UNL     1      -3.116  12.951  22.803  0.00  0.00    +0.000 N 
ATOM     28  C   UNL     1      -2.136  12.049  22.414  0.00  0.00    +0.000 C 
ATOM     29  O   UNL     1      -1.652  11.222  23.186  0.00  0.00    +0.000 OA
ATOM     30  C   UNL     1      -3.766  13.933  21.931  0.00  0.00    +0.000 C 
ENDBRANCH  21  28
ENDBRANCH  20  21
ENDBRANCH  18  20
ENDBRANCH   1  18
TORSDOF 5
ENDMDL
MODEL 9
REMARK VINA RESULT:      -7.4      3.337      4.677
REMARK  Name = 
REMARK  8 active torsions:
REMARK  status: ('A' for Active; 'I' for Inactive)
REMARK    1  A    between atoms: C_1  and  C_2
REMARK    2  A    between atoms: C_7  and  C_9
REMARK    3  A    between atoms: C_9  and  C_10
REMARK    4  A    between atoms: C_10  and  N_11
REMARK    5  A    between atoms: N_11  and  S_12
REMARK    6  A    between atoms: S_12  and  C_15
REMARK    7  A    between atoms: N_23  and  C_24
REMARK    8  A    between atoms: N_27  and  C_28
REMARK                            x       y       z     vdW  Elec       q    Type
REMARK                         _______ _______ _______ _____ _____    ______ ____
ROOT
ATOM      1  S   UNL     1       1.204  10.353  18.813  0.00  0.00    +0.000 S 
ATOM      2  O   UNL     1       1.376   9.651  20.063  0.00  0.00    +0.000 OA
ATOM      3  O   UNL     1       2.012  11.507  18.489  0.00  0.00    +0.000 OA
ENDROOT
BRANCH   1   4
ATOM      4  C   UNL     1      -0.505  10.795  18.655  0.00  0.00    +0.000 A 
ATOM      5  C   UNL     1      -1.274  10.265  17.619  0.00  0.00    +0.000 A 
ATOM      6  C   UNL     1      -2.636  10.576  17.538  0.00  0.00    +0.000 A 
ATOM      7  C   UNL     1      -3.236  11.433  18.475  0.00  0.00    +0.000 A 
ATOM      8  C   UNL     1      -2.442  11.958  19.496  0.00  0.00    +0.000 A 
ATOM      9  C   UNL     1      -1.081  11.641  19.599  0.00  0.00    +0.000 A 
ATOM     10  C   UNL     1      -3.044  12.867  20.482  0.00  0.00    +0.000 A 
ATOM     11  O   UNL     1      -2.358  13.264  21.421  0.00  0.00    +0.000 OA
ATOM     12  N   UNL     1      -4.365  13.223  20.273  0.00  0.00    +0.000 N 
ATOM     13  C   UNL     1      -4.965  14.188  21.175  0.00  0.00    +0.000 C 
ATOM     14  C   UNL     1      -5.191  12.688  19.291  0.00  0.00    +0.000 A 
ATOM     15  O   UNL     1      -6.381  13.006  19.214  0.00  0.00    +0.000 OA
ATOM     16  N   UNL     1      -4.611  11.781  18.409  0.00  0.00    +0.000 N 
ATOM     17  C   UNL     1      -5.456  11.192  17.377  0.00  0.00    +0.000 C 
ENDBRANCH   1   4
BRANCH   1  18
ATOM     18  N   UNL     1       1.411   9.226  17.576  0.00  0.00    +0.000 NA
ATOM     19  H   UNL     1       0.508   8.875  17.252  0.00  0.00    +0.000 HD
BRANCH  18  20
ATOM     20  C   UNL     1       2.494   8.221  17.638  0.00  0.00    +0.000 C 
BRANCH  20  21
ATOM     21  C   UNL     1       2.037   6.877  18.173  0.00  0.00    +0.000 C 
BRANCH  21  28
ATOM     22  C   UNL     1       0.799   3.422  19.765  0.00  0.00    +0.000 C 
ATOM     23  C   UNL     1       1.850   3.805  20.813  0.00  0.00    +0.000 C 
ATOM     24  C   UNL     1       2.967   2.752  20.914  0.00  0.00    +0.000 C 
ATOM     25  C   UNL     1       3.894   2.767  19.698  0.00  0.00    +0.000 C 
ATOM     26  C   UNL     1       4.426   4.171  19.426  0.00  0.00    +0.000 C 
ATOM     27  N   UNL     1       3.327   5.129  19.337  0.00  0.00    +0.000 N 
ATOM     28  C   UNL     1       3.170   5.876  18.178  0.00  0.00    +0.000 C 
ATOM     29  O   UNL     1       3.918   5.760  17.208  0.00  0.00    +0.000 OA
ATOM     30  C   UNL     1       2.453   5.183  20.512  0.00  0.00    +0.000 C 
ENDBRANCH  21  28
ENDBRANCH  20  21
ENDBRANCH  18  20
ENDBRANCH   1  18
TORSDOF 5
ENDMDL
