MODEL 1
REMARK VINA RESULT:      -8.0      0.000      0.000
REMARK  Name = 
REMARK  5 active torsions:
REMARK  status: ('A' for Active; 'I' for Inactive)
REMARK    1  A    between atoms: C_1  and  C_2
REMARK    2  A    between atoms: C_5  and  N_6
REMARK    3  A    between atoms: C_8  and  C_9
REMARK    4  A    between atoms: C_9  and  O_10
REMARK    5  A    between atoms: O_10  and  C_11
REMARK                            x       y       z     vdW  Elec       q    Type
REMARK                         _______ _______ _______ _____ _____    ______ ____
ROOT
ATOM      1  N   UNL     1       8.503   8.856  18.371  0.00  0.00    +0.000 N 
ATOM      2  C   UNL     1       8.408   7.639  19.002  0.00  0.00    +0.000 A 
ATOM      3  C   UNL     1       7.655   6.857  18.158  0.00  0.00    +0.000 A 
ATOM      4  N   UNL     1       7.305   7.597  17.061  0.00  0.00    +0.000 NA
ATOM      5  N   UNL     1       7.824   8.809  17.199  0.00  0.00    +0.000 NA
ENDROOT
BRANCH   1  10
ATOM      6  C   UNL     1      11.273  13.544  20.144  0.00  0.00    +0.000 C 
ATOM      7  C   UNL     1      10.525  12.328  19.683  0.00  0.00    +0.000 A 
ATOM      8  C   UNL     1       9.866  11.506  20.601  0.00  0.00    +0.000 A 
ATOM      9  C   UNL     1       9.190  10.363  20.173  0.00  0.00    +0.000 A 
ATOM     10  C   UNL     1       9.167  10.028  18.813  0.00  0.00    +0.000 A 
ATOM     11  C   UNL     1       9.812  10.859  17.885  0.00  0.00    +0.000 A 
ATOM     12  C   UNL     1      10.485  12.002  18.322  0.00  0.00    +0.000 A 
ENDBRANCH   1  10
BRANCH   3  13
ATOM     13  C   UNL     1       7.189   5.458  18.326  0.00  0.00    +0.000 C 
BRANCH  13  14
ATOM     14  O   UNL     1       6.180   5.357  19.332  0.00  0.00    +0.000 OA
BRANCH  14  15
ATOM     15  C   UNL     1       4.868   5.376  18.901  0.00  0.00    +0.000 A 
ATOM     16  C   UNL     1       4.247   6.527  18.393  0.00  0.00    +0.000 A 
ATOM     17  C   UNL     1       2.935   6.478  17.936  0.00  0.00    +0.000 A 
ATOM     18  C   UNL     1       2.238   5.280  17.975  0.00  0.00    +0.000 A 
ATOM     19  C   UNL     1       2.850   4.119  18.474  0.00  0.00    +0.000 A 
ATOM     20  C   UNL     1       2.146   2.908  18.504  0.00  0.00    +0.000 A 
ATOM     21  C   UNL     1       2.754   1.764  18.998  0.00  0.00    +0.000 A 
ATOM     22  C   UNL     1       4.051   1.871  19.452  0.00  0.00    +0.000 A 
ATOM     23  N   UNL     1       4.761   3.021  19.439  0.00  0.00    +0.000 NA
ATOM     24  C   UNL     1       4.182   4.145  18.950  0.00  0.00    +0.000 A 
ENDBRANCH  14  15
ENDBRANCH  13  14
ENDBRANCH   3  13
TORSDOF 4
ENDMDL
MODEL 2
REMARK VINA RESULT:      -7.9      3.530      6.608
REMARK  Name = 
REMARK  5 active torsions:
REMARK  status: ('A' for Active; 'I' for Inactive)
REMARK    1  A    between atoms: C_1  and  C_2
REMARK    2  A    between atoms: C_5  and  N_6
REMARK    3  A    between atoms: C_8  and  C_9
REMARK    4  A    between atoms: C_9  and  O_10
REMARK    5  A    between atoms: O_10  and  C_11
REMARK                            x       y       z     vdW  Elec       q    Type
REMARK                         _______ _______ _______ _____ _____    ______ ____
ROOT
ATOM      1  N   UNL     1       2.035   6.538  19.738  0.00  0.00    +0.000 N 
ATOM      2  C   UNL     1       2.572   5.640  18.848  0.00  0.00    +0.000 A 
ATOM      3  C   UNL     1       2.653   4.454  19.540  0.00  0.00    +0.000 A 
ATOM      4  N   UNL     1       2.185   4.650  20.811  0.00  0.00    +0.000 NA
ATOM      5  N   UNL     1       1.812   5.917  20.923  0.00  0.00    +0.000 NA
ENDROOT
BRANCH   1  10
ATOM      6  C   UNL     1       0.773  12.063  18.926  0.00  0.00    +0.000 C 
ATOM      7  C   UNL     1       1.128  10.622  19.141  0.00  0.00    +0.000 A 
ATOM      8  C   UNL     1       1.686   9.865  18.107  0.00  0.00    +0.000 A 
ATOM      9  C   UNL     1       1.995   8.518  18.301  0.00  0.00    +0.000 A 
ATOM     10  C   UNL     1       1.746   7.911  19.539  0.00  0.00    +0.000 A 
ATOM     11  C   UNL     1       1.202   8.671  20.585  0.00  0.00    +0.000 A 
ATOM     12  C   UNL     1       0.897  10.018  20.383  0.00  0.00    +0.000 A 
ENDBRANCH   1  10
BRANCH   3  13
ATOM     13  C   UNL     1       3.189   3.139  19.109  0.00  0.00    +0.000 C 
BRANCH  13  14
ATOM     14  O   UNL     1       4.606   3.180  18.941  0.00  0.00    +0.000 OA
BRANCH  14  15
ATOM     15  C   UNL     1       5.084   3.890  17.857  0.00  0.00    +0.000 A 
ATOM     16  C   UNL     1       4.582   3.727  16.556  0.00  0.00    +0.000 A 
ATOM     17  C   UNL     1       5.073   4.498  15.508  0.00  0.00    +0.000 A 
ATOM     18  C   UNL     1       6.061   5.440  15.754  0.00  0.00    +0.000 A 
ATOM     19  C   UNL     1       6.568   5.618  17.050  0.00  0.00    +0.000 A 
ATOM     20  C   UNL     1       7.559   6.577  17.296  0.00  0.00    +0.000 A 
ATOM     21  C   UNL     1       8.056   6.748  18.578  0.00  0.00    +0.000 A 
ATOM     22  C   UNL     1       7.545   5.948  19.578  0.00  0.00    +0.000 A 
ATOM     23  N   UNL     1       6.589   5.013  19.379  0.00  0.00    +0.000 NA
ATOM     24  C   UNL     1       6.087   4.842  18.131  0.00  0.00    +0.000 A 
ENDBRANCH  14  15
ENDBRANCH  13  14
ENDBRANCH   3  13
TORSDOF 4
ENDMDL
MODEL 3
REMARK VINA RESULT:      -7.9      1.373      1.916
REMARK  Name = 
REMARK  5 active torsions:
REMARK  status: ('A' for Active; 'I' for Inactive)
REMARK    1  A    between atoms: C_1  and  C_2
REMARK    2  A    between atoms: C_5  and  N_6
REMARK    3  A    between atoms: C_8  and  C_9
REMARK    4  A    between atoms: C_9  and  O_10
REMARK    5  A    between atoms: O_10  and  C_11
REMARK                            x       y       z     vdW  Elec       q    Type
REMARK                         _______ _______ _______ _____ _____    ______ ____
ROOT
ATOM      1  N   UNL     1       8.141   8.445  18.115  0.00  0.00    +0.000 N 
ATOM      2  C   UNL     1       8.188   7.302  18.876  0.00  0.00    +0.000 A 
ATOM      3  C   UNL     1       7.537   6.348  18.129  0.00  0.00    +0.000 A 
ATOM      4  N   UNL     1       7.106   6.917  16.961  0.00  0.00    +0.000 NA
ATOM      5  N   UNL     1       7.476   8.189  16.961  0.00  0.00    +0.000 NA
ENDROOT
BRANCH   1  10
ATOM      6  C   UNL     1      10.161  13.643  19.414  0.00  0.00    +0.000 C 
ATOM      7  C   UNL     1       9.651  12.279  19.057  0.00  0.00    +0.000 A 
ATOM      8  C   UNL     1       8.920  12.077  17.882  0.00  0.00    +0.000 A 
ATOM      9  C   UNL     1       8.426  10.812  17.562  0.00  0.00    +0.000 A 
ATOM     10  C   UNL     1       8.659   9.729  18.420  0.00  0.00    +0.000 A 
ATOM     11  C   UNL     1       9.405   9.922  19.592  0.00  0.00    +0.000 A 
ATOM     12  C   UNL     1       9.897  11.191  19.904  0.00  0.00    +0.000 A 
ENDBRANCH   1  10
BRANCH   3  13
ATOM     13  C   UNL     1       7.240   4.930  18.453  0.00  0.00    +0.000 C 
BRANCH  13  14
ATOM     14  O   UNL     1       6.002   4.800  19.154  0.00  0.00    +0.000 OA
BRANCH  14  15
ATOM     15  C   UNL     1       4.916   4.364  18.421  0.00  0.00    +0.000 A 
ATOM     16  C   UNL     1       5.017   3.923  17.093  0.00  0.00    +0.000 A 
ATOM     17  C   UNL     1       3.896   3.456  16.416  0.00  0.00    +0.000 A 
ATOM     18  C   UNL     1       2.669   3.421  17.063  0.00  0.00    +0.000 A 
ATOM     19  C   UNL     1       2.555   3.854  18.393  0.00  0.00    +0.000 A 
ATOM     20  C   UNL     1       1.316   3.809  19.045  0.00  0.00    +0.000 A 
ATOM     21  C   UNL     1       1.207   4.237  20.359  0.00  0.00    +0.000 A 
ATOM     22  C   UNL     1       2.347   4.704  20.979  0.00  0.00    +0.000 A 
ATOM     23  N   UNL     1       3.558   4.762  20.382  0.00  0.00    +0.000 NA
ATOM     24  C   UNL     1       3.681   4.337  19.100  0.00  0.00    +0.000 A 
ENDBRANCH  14  15
ENDBRANCH  13  14
ENDBRANCH   3  13
TORSDOF 4
ENDMDL
MODEL 4
REMARK VINA RESULT:      -7.8      0.841      1.296
REMARK  Name = 
REMARK  5 active torsions:
REMARK  status: ('A' for Active; 'I' for Inactive)
REMARK    1  A    between atoms: C_1  and  C_2
REMARK    2  A    between atoms: C_5  and  N_6
REMARK    3  A    between atoms: C_8  and  C_9
REMARK    4  A    between atoms: C_9  and  O_10
REMARK    5  A    between atoms: O_10  and  C_11
REMARK                            x       y       z     vdW  Elec       q    Type
REMARK                         _______ _______ _______ _____ _____    ______ ____
ROOT
ATOM      1  N   UNL     1       8.541   8.966  18.365  0.00  0.00    +0.000 N 
ATOM      2  C   UNL     1       8.468   7.737  18.974  0.00  0.00    +0.000 A 
ATOM      3  C   UNL     1       7.706   6.964  18.129  0.00  0.00    +0.000 A 
ATOM      4  N   UNL     1       7.329   7.721  17.053  0.00  0.00    +0.000 NA
ATOM      5  N   UNL     1       7.840   8.935  17.204  0.00  0.00    +0.000 NA
ENDROOT
BRANCH   1  10
ATOM      6  C   UNL     1      11.126  13.733  20.205  0.00  0.00    +0.000 C 
ATOM      7  C   UNL     1      10.472  12.474  19.719  0.00  0.00    +0.000 A 
ATOM      8  C   UNL     1      10.408  12.186  18.352  0.00  0.00    +0.000 A 
ATOM      9  C   UNL     1       9.779  11.025  17.900  0.00  0.00    +0.000 A 
ATOM     10  C   UNL     1       9.203  10.136  18.816  0.00  0.00    +0.000 A 
ATOM     11  C   UNL     1       9.278  10.411  20.189  0.00  0.00    +0.000 A 
ATOM     12  C   UNL     1       9.911  11.574  20.633  0.00  0.00    +0.000 A 
ENDBRANCH   1  10
BRANCH   3  13
ATOM     13  C   UNL     1       7.255   5.558  18.279  0.00  0.00    +0.000 C 
BRANCH  13  14
ATOM     14  O   UNL     1       6.130   5.275  17.446  0.00  0.00    +0.000 OA
BRANCH  14  15
ATOM     15  C   UNL     1       4.883   5.550  17.971  0.00  0.00    +0.000 A 
ATOM     16  C   UNL     1       4.157   6.708  17.650  0.00  0.00    +0.000 A 
ATOM     17  C   UNL     1       2.887   6.913  18.177  0.00  0.00    +0.000 A 
ATOM     18  C   UNL     1       2.332   5.964  19.022  0.00  0.00    +0.000 A 
ATOM     19  C   UNL     1       3.044   4.799  19.346  0.00  0.00    +0.000 A 
ATOM     20  C   UNL     1       2.477   3.837  20.193  0.00  0.00    +0.000 A 
ATOM     21  C   UNL     1       3.184   2.689  20.511  0.00  0.00    +0.000 A 
ATOM     22  C   UNL     1       4.445   2.541  19.972  0.00  0.00    +0.000 A 
ATOM     23  N   UNL     1       5.024   3.446  19.154  0.00  0.00    +0.000 NA
ATOM     24  C   UNL     1       4.340   4.570  18.826  0.00  0.00    +0.000 A 
ENDBRANCH  14  15
ENDBRANCH  13  14
ENDBRANCH   3  13
TORSDOF 4
ENDMDL
MODEL 5
REMARK VINA RESULT:      -7.8      0.803      1.220
REMARK  Name = 
REMARK  5 active torsions:
REMARK  status: ('A' for Active; 'I' for Inactive)
REMARK    1  A    between atoms: C_1  and  C_2
REMARK    2  A    between atoms: C_5  and  N_6
REMARK    3  A    between atoms: C_8  and  C_9
REMARK    4  A    between atoms: C_9  and  O_10
REMARK    5  A    between atoms: O_10  and  C_11
REMARK                            x       y       z     vdW  Elec       q    Type
REMARK                         _______ _______ _______ _____ _____    ______ ____
ROOT
ATOM      1  N   UNL     1       8.172   8.268  18.043  0.00  0.00    +0.000 N 
ATOM      2  C   UNL     1       8.048   7.148  18.831  0.00  0.00    +0.000 A 
ATOM      3  C   UNL     1       7.541   6.179  17.996  0.00  0.00    +0.000 A 
ATOM      4  N   UNL     1       7.360   6.716  16.751  0.00  0.00    +0.000 NA
ATOM      5  N   UNL     1       7.745   7.984  16.788  0.00  0.00    +0.000 NA
ENDROOT
BRANCH   1  10
ATOM      6  C   UNL     1       9.989  13.475  19.583  0.00  0.00    +0.000 C 
ATOM      7  C   UNL     1       9.533  12.109  19.164  0.00  0.00    +0.000 A 
ATOM      8  C   UNL     1       8.878  11.920  17.943  0.00  0.00    +0.000 A 
ATOM      9  C   UNL     1       8.434  10.653  17.564  0.00  0.00    +0.000 A 
ATOM     10  C   UNL     1       8.641   9.555  18.409  0.00  0.00    +0.000 A 
ATOM     11  C   UNL     1       9.312   9.735  19.627  0.00  0.00    +0.000 A 
ATOM     12  C   UNL     1       9.754  11.007  19.998  0.00  0.00    +0.000 A 
ENDBRANCH   1  10
BRANCH   3  13
ATOM     13  C   UNL     1       7.162   4.775  18.295  0.00  0.00    +0.000 C 
BRANCH  13  14
ATOM     14  O   UNL     1       6.139   4.708  19.288  0.00  0.00    +0.000 OA
BRANCH  14  15
ATOM     15  C   UNL     1       4.856   5.023  18.882  0.00  0.00    +0.000 A 
ATOM     16  C   UNL     1       4.445   6.335  18.602  0.00  0.00    +0.000 A 
ATOM     17  C   UNL     1       3.152   6.590  18.158  0.00  0.00    +0.000 A 
ATOM     18  C   UNL     1       2.266   5.537  17.985  0.00  0.00    +0.000 A 
ATOM     19  C   UNL     1       2.666   4.219  18.256  0.00  0.00    +0.000 A 
ATOM     20  C   UNL     1       1.771   3.157  18.071  0.00  0.00    +0.000 A 
ATOM     21  C   UNL     1       2.171   1.858  18.341  0.00  0.00    +0.000 A 
ATOM     22  C   UNL     1       3.459   1.663  18.792  0.00  0.00    +0.000 A 
ATOM     23  N   UNL     1       4.349   2.661  18.982  0.00  0.00    +0.000 NA
ATOM     24  C   UNL     1       3.975   3.936  18.713  0.00  0.00    +0.000 A 
ENDBRANCH  14  15
ENDBRANCH  13  14
ENDBRANCH   3  13
TORSDOF 4
ENDMDL
MODEL 6
REMARK VINA RESULT:      -7.7      5.360      7.142
REMARK  Name = 
REMARK  5 active torsions:
REMARK  status: ('A' for Active; 'I' for Inactive)
REMARK    1  A    between atoms: C_1  and  C_2
REMARK    2  A    between atoms: C_5  and  N_6
REMARK    3  A    between atoms: C_8  and  C_9
REMARK    4  A    between atoms: C_9  and  O_10
REMARK    5  A    between atoms: O_10  and  C_11
REMARK                            x       y       z     vdW  Elec       q    Type
REMARK                         _______ _______ _______ _____ _____    ______ ____
ROOT
ATOM      1  N   UNL     1       0.970   9.522  19.428  0.00  0.00    +0.000 N 
ATOM      2  C   UNL     1       1.891   8.513  19.579  0.00  0.00    +0.000 A 
ATOM      3  C   UNL     1       2.366   8.269  18.312  0.00  0.00    +0.000 A 
ATOM      4  N   UNL     1       1.734   9.106  17.432  0.00  0.00    +0.000 NA
ATOM      5  N   UNL     1       0.889   9.863  18.118  0.00  0.00    +0.000 NA
ENDROOT
BRANCH   1  10
ATOM      6  C   UNL     1      -2.300  11.984  23.431  0.00  0.00    +0.000 C 
ATOM      7  C   UNL     1      -1.426  11.357  22.387  0.00  0.00    +0.000 A 
ATOM      8  C   UNL     1      -1.333  11.914  21.108  0.00  0.00    +0.000 A 
ATOM      9  C   UNL     1      -0.537  11.318  20.129  0.00  0.00    +0.000 A 
ATOM     10  C   UNL     1       0.178  10.149  20.422  0.00  0.00    +0.000 A 
ATOM     11  C   UNL     1       0.102   9.595  21.708  0.00  0.00    +0.000 A 
ATOM     12  C   UNL     1      -0.696  10.200  22.682  0.00  0.00    +0.000 A 
ENDBRANCH   1  10
BRANCH   3  13
ATOM     13  C   UNL     1       3.350   7.260  17.846  0.00  0.00    +0.000 C 
BRANCH  13  14
ATOM     14  O   UNL     1       3.556   6.239  18.823  0.00  0.00    +0.000 OA
BRANCH  14  15
ATOM     15  C   UNL     1       3.144   4.964  18.486  0.00  0.00    +0.000 A 
ATOM     16  C   UNL     1       3.255   4.444  17.187  0.00  0.00    +0.000 A 
ATOM     17  C   UNL     1       2.862   3.139  16.914  0.00  0.00    +0.000 A 
ATOM     18  C   UNL     1       2.363   2.344  17.935  0.00  0.00    +0.000 A 
ATOM     19  C   UNL     1       2.253   2.849  19.240  0.00  0.00    +0.000 A 
ATOM     20  C   UNL     1       1.757   2.041  20.270  0.00  0.00    +0.000 A 
ATOM     21  C   UNL     1       1.649   2.544  21.557  0.00  0.00    +0.000 A 
ATOM     22  C   UNL     1       2.040   3.849  21.771  0.00  0.00    +0.000 A 
ATOM     23  N   UNL     1       2.522   4.658  20.803  0.00  0.00    +0.000 NA
ATOM     24  C   UNL     1       2.642   4.176  19.541  0.00  0.00    +0.000 A 
ENDBRANCH  14  15
ENDBRANCH  13  14
ENDBRANCH   3  13
TORSDOF 4
ENDMDL
MODEL 7
REMARK VINA RESULT:      -7.7      4.538      7.263
REMARK  Name = 
REMARK  5 active torsions:
REMARK  status: ('A' for Active; 'I' for Inactive)
REMARK    1  A    between atoms: C_1  and  C_2
REMARK    2  A    between atoms: C_5  and  N_6
REMARK    3  A    between atoms: C_8  and  C_9
REMARK    4  A    between atoms: C_9  and  O_10
REMARK    5  A    between atoms: O_10  and  C_11
REMARK                            x       y       z     vdW  Elec       q    Type
REMARK                         _______ _______ _______ _____ _____    ______ ____
ROOT
ATOM      1  N   UNL     1       1.411   8.148  20.337  0.00  0.00    +0.000 N 
ATOM      2  C   UNL     1       1.688   6.872  20.764  0.00  0.00    +0.000 A 
ATOM      3  C   UNL     1       2.400   6.298  19.737  0.00  0.00    +0.000 A 
ATOM      4  N   UNL     1       2.531   7.209  18.724  0.00  0.00    +0.000 NA
ATOM      5  N   UNL     1       1.927   8.329  19.097  0.00  0.00    +0.000 NA
ENDROOT
BRANCH   1  10
ATOM      6  C   UNL     1      -1.578  12.206  23.055  0.00  0.00    +0.000 C 
ATOM      7  C   UNL     1      -0.774  11.157  22.346  0.00  0.00    +0.000 A 
ATOM      8  C   UNL     1      -0.409  11.325  21.007  0.00  0.00    +0.000 A 
ATOM      9  C   UNL     1       0.320  10.339  20.341  0.00  0.00    +0.000 A 
ATOM     10  C   UNL     1       0.691   9.166  21.012  0.00  0.00    +0.000 A 
ATOM     11  C   UNL     1       0.341   9.000  22.360  0.00  0.00    +0.000 A 
ATOM     12  C   UNL     1      -0.386   9.993  23.019  0.00  0.00    +0.000 A 
ENDBRANCH   1  10
BRANCH   3  13
ATOM     13  C   UNL     1       2.936   4.920  19.609  0.00  0.00    +0.000 C 
BRANCH  13  14
ATOM     14  O   UNL     1       3.545   4.710  18.334  0.00  0.00    +0.000 OA
BRANCH  14  15
ATOM     15  C   UNL     1       4.901   4.957  18.244  0.00  0.00    +0.000 A 
ATOM     16  C   UNL     1       5.690   5.303  19.353  0.00  0.00    +0.000 A 
ATOM     17  C   UNL     1       7.058   5.501  19.211  0.00  0.00    +0.000 A 
ATOM     18  C   UNL     1       7.649   5.349  17.965  0.00  0.00    +0.000 A 
ATOM     19  C   UNL     1       6.873   4.997  16.849  0.00  0.00    +0.000 A 
ATOM     20  C   UNL     1       7.474   4.836  15.594  0.00  0.00    +0.000 A 
ATOM     21  C   UNL     1       6.704   4.489  14.495  0.00  0.00    +0.000 A 
ATOM     22  C   UNL     1       5.349   4.318  14.688  0.00  0.00    +0.000 A 
ATOM     23  N   UNL     1       4.735   4.466  15.883  0.00  0.00    +0.000 NA
ATOM     24  C   UNL     1       5.477   4.795  16.968  0.00  0.00    +0.000 A 
ENDBRANCH  14  15
ENDBRANCH  13  14
ENDBRANCH   3  13
TORSDOF 4
ENDMDL
MODEL 8
REMARK VINA RESULT:      -7.6      5.316      8.223
REMARK  Name = 
REMARK  5 active torsions:
REMARK  status: ('A' for Active; 'I' for Inactive)
REMARK    1  A    between atoms: C_1  and  C_2
REMARK    2  A    between atoms: C_5  and  N_6
REMARK    3  A    between atoms: C_8  and  C_9
REMARK    4  A    between atoms: C_9  and  O_10
REMARK    5  A    between atoms: O_10  and  C_11
REMARK                            x       y       z     vdW  Elec       q    Type
REMARK                         _______ _______ _______ _____ _____    ______ ____
ROOT
ATOM      1  N   UNL     1       3.506   5.502  18.595  0.00  0.00    +0.000 N 
ATOM      2  C   UNL     1       2.769   6.619  18.906  0.00  0.00    +0.000 A 
ATOM      3  C   UNL     1       2.195   6.341  20.125  0.00  0.00    +0.000 A 
ATOM      4  N   UNL     1       2.575   5.086  20.518  0.00  0.00    +0.000 NA
ATOM      5  N   UNL     1       3.370   4.584  19.584  0.00  0.00    +0.000 NA
ENDROOT
BRANCH   1  10
ATOM      6  C   UNL     1       6.601   4.532  13.876  0.00  0.00    +0.000 C 
ATOM      7  C   UNL     1       5.812   4.783  15.126  0.00  0.00    +0.000 A 
ATOM      8  C   UNL     1       5.413   3.719  15.942  0.00  0.00    +0.000 A 
ATOM      9  C   UNL     1       4.659   3.952  17.093  0.00  0.00    +0.000 A 
ATOM     10  C   UNL     1       4.292   5.258  17.441  0.00  0.00    +0.000 A 
ATOM     11  C   UNL     1       4.703   6.330  16.635  0.00  0.00    +0.000 A 
ATOM     12  C   UNL     1       5.459   6.089  15.486  0.00  0.00    +0.000 A 
ENDBRANCH   1  10
BRANCH   3  13
ATOM     13  C   UNL     1       1.262   7.156  20.942  0.00  0.00    +0.000 C 
BRANCH  13  14
ATOM     14  O   UNL     1       1.213   8.509  20.487  0.00  0.00    +0.000 OA
BRANCH  14  15
ATOM     15  C   UNL     1       0.399   9.373  21.194  0.00  0.00    +0.000 A 
ATOM     16  C   UNL     1       0.216   9.287  22.582  0.00  0.00    +0.000 A 
ATOM     17  C   UNL     1      -0.584  10.209  23.248  0.00  0.00    +0.000 A 
ATOM     18  C   UNL     1      -1.200  11.225  22.533  0.00  0.00    +0.000 A 
ATOM     19  C   UNL     1      -1.020  11.328  21.145  0.00  0.00    +0.000 A 
ATOM     20  C   UNL     1      -1.636  12.361  20.428  0.00  0.00    +0.000 A 
ATOM     21  C   UNL     1      -1.457  12.458  19.057  0.00  0.00    +0.000 A 
ATOM     22  C   UNL     1      -0.665  11.510  18.445  0.00  0.00    +0.000 A 
ATOM     23  N   UNL     1      -0.056  10.499  19.103  0.00  0.00    +0.000 NA
ATOM     24  C   UNL     1      -0.215  10.398  20.445  0.00  0.00    +0.000 A 
ENDBRANCH  14  15
ENDBRANCH  13  14
ENDBRANCH   3  13
TORSDOF 4
ENDMDL
MODEL 9
REMARK VINA RESULT:      -7.6      5.550      8.565
REMARK  Name = 
REMARK  5 active torsions:
REMARK  status: ('A' for Active; 'I' for Inactive)
REMARK    1  A    between atoms: C_1  and  C_2
REMARK    2  A    between atoms: C_5  and  N_6
REMARK    3  A    between atoms: C_8  and  C_9
REMARK    4  A    between atoms: C_9  and  O_10
REMARK    5  A    between atoms: O_10  and  C_11
REMARK                            x       y       z     vdW  Elec       q    Type
REMARK                         _______ _______ _______ _____ _____    ______ ____
ROOT
ATOM      1  N   UNL     1       2.834   6.596  18.862  0.00  0.00    +0.000 N 
ATOM      2  C   UNL     1       2.299   7.862  18.882  0.00  0.00    +0.000 A 
ATOM      3  C   UNL     1       1.640   7.953  20.085  0.00  0.00    +0.000 A 
ATOM      4  N   UNL     1       1.772   6.766  20.755  0.00  0.00    +0.000 NA
ATOM      5  N   UNL     1       2.498   5.949  20.005  0.00  0.00    +0.000 NA
ENDROOT
BRANCH   1  10
ATOM      6  C   UNL     1       6.016   4.080  14.822  0.00  0.00    +0.000 C 
ATOM      7  C   UNL     1       5.167   4.747  15.862  0.00  0.00    +0.000 A 
ATOM      8  C   UNL     1       5.218   6.132  16.042  0.00  0.00    +0.000 A 
ATOM      9  C   UNL     1       4.444   6.749  17.025  0.00  0.00    +0.000 A 
ATOM     10  C   UNL     1       3.606   5.981  17.844  0.00  0.00    +0.000 A 
ATOM     11  C   UNL     1       3.538   4.593  17.657  0.00  0.00    +0.000 A 
ATOM     12  C   UNL     1       4.315   3.984  16.669  0.00  0.00    +0.000 A 
ENDBRANCH   1  10
BRANCH   3  13
ATOM     13  C   UNL     1       0.840   9.070  20.646  0.00  0.00    +0.000 C 
BRANCH  13  14
ATOM     14  O   UNL     1       0.683  10.129  19.700  0.00  0.00    +0.000 OA
BRANCH  14  15
ATOM     15  C   UNL     1      -0.463  10.893  19.806  0.00  0.00    +0.000 A 
ATOM     16  C   UNL     1      -0.700  11.770  20.875  0.00  0.00    +0.000 A 
ATOM     17  C   UNL     1      -1.853  12.545  20.910  0.00  0.00    +0.000 A 
ATOM     18  C   UNL     1      -2.773  12.455  19.876  0.00  0.00    +0.000 A 
ATOM     19  C   UNL     1      -2.546  11.586  18.798  0.00  0.00    +0.000 A 
ATOM     20  C   UNL     1      -3.472  11.503  17.750  0.00  0.00    +0.000 A 
ATOM     21  C   UNL     1      -3.244  10.643  16.687  0.00  0.00    +0.000 A 
ATOM     22  C   UNL     1      -2.092   9.887  16.710  0.00  0.00    +0.000 A 
ATOM     23  N   UNL     1      -1.176   9.939  17.702  0.00  0.00    +0.000 NA
ATOM     24  C   UNL     1      -1.382  10.783  18.743  0.00  0.00    +0.000 A 
ENDBRANCH  14  15
ENDBRANCH  13  14
ENDBRANCH   3  13
TORSDOF 4
ENDMDL
