MODEL 1
REMARK VINA RESULT:      -7.4      0.000      0.000
REMARK  Name = 
REMARK  14 active torsions:
REMARK  status: ('A' for Active; 'I' for Inactive)
REMARK    1  A    between atoms: C_1  and  C_2
REMARK    2  A    between atoms: C_2  and  C_3
REMARK    3  A    between atoms: C_3  and  O_4
REMARK    4  A    between atoms: C_3  and  C_5
REMARK    5  A    between atoms: C_3  and  C_7
REMARK    6  A    between atoms: C_5  and  C_6
REMARK    7  A    between atoms: C_7  and  S_8
REMARK    8  A    between atoms: S_8  and  C_9
REMARK    9  A    between atoms: C_9  and  C_10
REMARK   10  A    between atoms: C_9  and  C_11
REMARK   11  A    between atoms: C_16  and  C_17
REMARK   12  A    between atoms: C_20  and  O_21
REMARK   13  A    between atoms: C_23  and  O_24
REMARK   14  A    between atoms: C_29  and  C_30
REMARK                            x       y       z     vdW  Elec       q    Type
REMARK                         _______ _______ _______ _____ _____    ______ ____
ROOT
ATOM      1  C   UNL     1       3.845   4.954  17.833  0.00  0.00    +0.000 C 
ATOM      2  C   UNL     1       4.337   5.767  16.872  0.00  0.00    +0.000 C 
ATOM      3  C   UNL     1       3.628   7.092  16.830  0.00  0.00    +0.000 C 
ATOM      4  C   UNL     1       3.052   7.111  18.250  0.00  0.00    +0.000 C 
ATOM      5  C   UNL     1       1.985   8.077  18.715  0.00  0.00    +0.000 C 
ATOM      6  C   UNL     1       1.357   8.941  17.896  0.00  0.00    +0.000 C 
ATOM      7  C   UNL     1       1.734   7.921  20.206  0.00  0.00    +0.000 C 
ATOM      8  C   UNL     1       1.475   6.460  20.614  0.00  0.00    +0.000 C 
ATOM      9  C   UNL     1       2.494   5.460  20.034  0.00  0.00    +0.000 C 
ATOM     10  C   UNL     1       2.655   5.631  18.512  0.00  0.00    +0.000 C 
ATOM     11  C   UNL     1       1.350   5.216  17.786  0.00  0.00    +0.000 C 
ENDROOT
BRANCH   6  12
ATOM     12  C   UNL     1       0.395   9.936  18.312  0.00  0.00    +0.000 C 
ATOM     13  C   UNL     1       0.675  11.125  18.880  0.00  0.00    +0.000 C 
ATOM     14  C   UNL     1      -0.442  12.040  19.329  0.00  0.00    +0.000 C 
ATOM     15  C   UNL     1      -0.306  13.446  18.733  0.00  0.00    +0.000 C 
ATOM     16  C   UNL     1       1.079  14.036  19.000  0.00  0.00    +0.000 C 
ATOM     17  C   UNL     1       2.197  13.113  18.517  0.00  0.00    +0.000 C 
ATOM     18  C   UNL     1       2.068  11.692  19.091  0.00  0.00    +0.000 C 
BRANCH  15  19
ATOM     19  O   UNL     1      -1.307  14.301  19.286  0.00  0.00    +0.000 OA
ATOM     20  H   UNL     1      -1.549  13.959  20.162  0.00  0.00    +0.000 HD
ENDBRANCH  15  19
BRANCH  17  21
ATOM     21  O   UNL     1       2.216  13.084  17.089  0.00  0.00    +0.000 OA
ATOM     22  H   UNL     1       2.542  13.944  16.767  0.00  0.00    +0.000 HD
ENDBRANCH  17  21
ENDBRANCH   6  12
BRANCH   1  23
ATOM     23  C   UNL     1       4.351   3.585  18.222  0.00  0.00    +0.000 C 
ATOM     24  C   UNL     1       3.237   2.681  18.755  0.00  0.00    +0.000 C 
BRANCH  23  25
ATOM     25  S   UNL     1       5.679   3.813  19.458  0.00  0.00    +0.000 S 
BRANCH  25  26
ATOM     26  C   UNL     1       6.073   5.593  19.236  0.00  0.00    +0.000 C 
BRANCH  26  27
ATOM     27  C   UNL     1       7.421   5.836  18.495  0.00  0.00    +0.000 C 
BRANCH  27  29
ATOM     28  C   UNL     1       7.403   4.558  16.237  0.00  0.00    +0.000 C 
ATOM     29  C   UNL     1       7.795   4.548  17.714  0.00  0.00    +0.000 C 
ENDBRANCH  27  29
BRANCH  27  30
ATOM     30  O   UNL     1       8.435   5.994  19.508  0.00  0.00    +0.000 OA
ATOM     31  H   UNL     1       8.450   5.193  20.057  0.00  0.00    +0.000 HD
ENDBRANCH  27  30
BRANCH  27  32
ATOM     32  C   UNL     1       7.415   7.099  17.599  0.00  0.00    +0.000 C 
ATOM     33  C   UNL     1       8.233   8.270  18.124  0.00  0.00    +0.000 C 
ENDBRANCH  27  32
ENDBRANCH  26  27
ENDBRANCH  25  26
ENDBRANCH  23  25
ENDBRANCH   1  23
TORSDOF 10
ENDMDL
MODEL 2
REMARK VINA RESULT:      -7.1      3.854      9.716
REMARK  Name = 
REMARK  14 active torsions:
REMARK  status: ('A' for Active; 'I' for Inactive)
REMARK    1  A    between atoms: C_1  and  C_2
REMARK    2  A    between atoms: C_2  and  C_3
REMARK    3  A    between atoms: C_3  and  O_4
REMARK    4  A    between atoms: C_3  and  C_5
REMARK    5  A    between atoms: C_3  and  C_7
REMARK    6  A    between atoms: C_5  and  C_6
REMARK    7  A    between atoms: C_7  and  S_8
REMARK    8  A    between atoms: S_8  and  C_9
REMARK    9  A    between atoms: C_9  and  C_10
REMARK   10  A    between atoms: C_9  and  C_11
REMARK   11  A    between atoms: C_16  and  C_17
REMARK   12  A    between atoms: C_20  and  O_21
REMARK   13  A    between atoms: C_23  and  O_24
REMARK   14  A    between atoms: C_29  and  C_30
REMARK                            x       y       z     vdW  Elec       q    Type
REMARK                         _______ _______ _______ _____ _____    ______ ____
ROOT
ATOM      1  C   UNL     1      -1.284  11.437  19.645  0.00  0.00    +0.000 C 
ATOM      2  C   UNL     1      -1.539  10.958  18.407  0.00  0.00    +0.000 C 
ATOM      3  C   UNL     1      -0.569   9.882  18.002  0.00  0.00    +0.000 C 
ATOM      4  C   UNL     1      -0.087   9.447  19.390  0.00  0.00    +0.000 C 
ATOM      5  C   UNL     1       1.128   8.578  19.626  0.00  0.00    +0.000 C 
ATOM      6  C   UNL     1       1.968   8.193  18.648  0.00  0.00    +0.000 C 
ATOM      7  C   UNL     1       1.253   8.220  21.099  0.00  0.00    +0.000 C 
ATOM      8  C   UNL     1       1.179   9.454  22.016  0.00  0.00    +0.000 C 
ATOM      9  C   UNL     1       0.010  10.404  21.691  0.00  0.00    +0.000 C 
ATOM     10  C   UNL     1      -0.022  10.775  20.196  0.00  0.00    +0.000 C 
ATOM     11  C   UNL     1       1.209  11.644  19.834  0.00  0.00    +0.000 C 
ENDROOT
BRANCH   6  12
ATOM     12  C   UNL     1       3.089   7.297  18.815  0.00  0.00    +0.000 C 
ATOM     13  C   UNL     1       3.027   6.012  19.214  0.00  0.00    +0.000 C 
ATOM     14  C   UNL     1       4.295   5.210  19.413  0.00  0.00    +0.000 C 
ATOM     15  C   UNL     1       4.274   3.898  18.620  0.00  0.00    +0.000 C 
ATOM     16  C   UNL     1       3.014   3.085  18.917  0.00  0.00    +0.000 C 
ATOM     17  C   UNL     1       1.741   3.899  18.686  0.00  0.00    +0.000 C 
ATOM     18  C   UNL     1       1.750   5.228  19.460  0.00  0.00    +0.000 C 
BRANCH  15  19
ATOM     19  O   UNL     1       5.430   3.125  18.940  0.00  0.00    +0.000 OA
ATOM     20  H   UNL     1       6.212   3.586  18.593  0.00  0.00    +0.000 HD
ENDBRANCH  15  19
BRANCH  17  21
ATOM     21  O   UNL     1       1.560   4.126  17.287  0.00  0.00    +0.000 OA
ATOM     22  H   UNL     1       2.431   4.299  16.887  0.00  0.00    +0.000 HD
ENDBRANCH  17  21
ENDBRANCH   6  12
BRANCH   1  23
ATOM     23  C   UNL     1      -2.084  12.461  20.414  0.00  0.00    +0.000 C 
ATOM     24  C   UNL     1      -3.522  12.582  19.902  0.00  0.00    +0.000 C 
BRANCH  23  25
ATOM     25  S   UNL     1      -1.198  14.057  20.305  0.00  0.00    +0.000 S 
BRANCH  25  26
ATOM     26  C   UNL     1      -0.391  14.129  21.954  0.00  0.00    +0.000 C 
BRANCH  26  27
ATOM     27  C   UNL     1      -1.404  14.274  23.127  0.00  0.00    +0.000 C 
BRANCH  27  29
ATOM     28  C   UNL     1      -2.534  16.575  23.521  0.00  0.00    +0.000 C 
ATOM     29  C   UNL     1      -2.506  15.283  22.708  0.00  0.00    +0.000 C 
ENDBRANCH  27  29
BRANCH  27  30
ATOM     30  O   UNL     1      -0.695  14.891  24.221  0.00  0.00    +0.000 OA
ATOM     31  H   UNL     1      -0.129  15.595  23.864  0.00  0.00    +0.000 HD
ENDBRANCH  27  30
BRANCH  27  32
ATOM     32  C   UNL     1      -1.984  12.922  23.613  0.00  0.00    +0.000 C 
ATOM     33  C   UNL     1      -3.489  12.905  23.835  0.00  0.00    +0.000 C 
ENDBRANCH  27  32
ENDBRANCH  26  27
ENDBRANCH  25  26
ENDBRANCH  23  25
ENDBRANCH   1  23
TORSDOF 10
ENDMDL
MODEL 3
REMARK VINA RESULT:      -7.1      1.184      1.410
REMARK  Name = 
REMARK  14 active torsions:
REMARK  status: ('A' for Active; 'I' for Inactive)
REMARK    1  A    between atoms: C_1  and  C_2
REMARK    2  A    between atoms: C_2  and  C_3
REMARK    3  A    between atoms: C_3  and  O_4
REMARK    4  A    between atoms: C_3  and  C_5
REMARK    5  A    between atoms: C_3  and  C_7
REMARK    6  A    between atoms: C_5  and  C_6
REMARK    7  A    between atoms: C_7  and  S_8
REMARK    8  A    between atoms: S_8  and  C_9
REMARK    9  A    between atoms: C_9  and  C_10
REMARK   10  A    between atoms: C_9  and  C_11
REMARK   11  A    between atoms: C_16  and  C_17
REMARK   12  A    between atoms: C_20  and  O_21
REMARK   13  A    between atoms: C_23  and  O_24
REMARK   14  A    between atoms: C_29  and  C_30
REMARK                            x       y       z     vdW  Elec       q    Type
REMARK                         _______ _______ _______ _____ _____    ______ ____
ROOT
ATOM      1  C   UNL     1       3.663   5.693  17.631  0.00  0.00    +0.000 C 
ATOM      2  C   UNL     1       4.028   6.815  16.973  0.00  0.00    +0.000 C 
ATOM      3  C   UNL     1       3.237   8.016  17.413  0.00  0.00    +0.000 C 
ATOM      4  C   UNL     1       2.772   7.518  18.785  0.00  0.00    +0.000 C 
ATOM      5  C   UNL     1       1.686   8.184  19.601  0.00  0.00    +0.000 C 
ATOM      6  C   UNL     1       0.944   9.213  19.151  0.00  0.00    +0.000 C 
ATOM      7  C   UNL     1       1.560   7.525  20.966  0.00  0.00    +0.000 C 
ATOM      8  C   UNL     1       1.424   5.995  20.874  0.00  0.00    +0.000 C 
ATOM      9  C   UNL     1       2.456   5.331  19.942  0.00  0.00    +0.000 C 
ATOM     10  C   UNL     1       2.489   6.007  18.558  0.00  0.00    +0.000 C 
ATOM     11  C   UNL     1       1.161   5.745  17.804  0.00  0.00    +0.000 C 
ENDROOT
BRANCH   6  12
ATOM     12  C   UNL     1      -0.043   9.931  19.925  0.00  0.00    +0.000 C 
ATOM     13  C   UNL     1      -0.155  11.269  20.026  0.00  0.00    +0.000 C 
ATOM     14  C   UNL     1      -1.199  11.884  20.932  0.00  0.00    +0.000 C 
ATOM     15  C   UNL     1      -2.084  12.890  20.187  0.00  0.00    +0.000 C 
ATOM     16  C   UNL     1      -1.245  13.943  19.462  0.00  0.00    +0.000 C 
ATOM     17  C   UNL     1      -0.212  13.308  18.530  0.00  0.00    +0.000 C 
ATOM     18  C   UNL     1       0.674  12.282  19.255  0.00  0.00    +0.000 C 
BRANCH  15  19
ATOM     19  O   UNL     1      -2.964  13.531  21.111  0.00  0.00    +0.000 OA
ATOM     20  H   UNL     1      -3.662  13.981  20.605  0.00  0.00    +0.000 HD
ENDBRANCH  15  19
BRANCH  17  21
ATOM     21  O   UNL     1      -0.873  12.711  17.413  0.00  0.00    +0.000 OA
ATOM     22  H   UNL     1      -1.333  13.411  16.915  0.00  0.00    +0.000 HD
ENDBRANCH  17  21
ENDBRANCH   6  12
BRANCH   1  23
ATOM     23  C   UNL     1       4.281   4.321  17.514  0.00  0.00    +0.000 C 
ATOM     24  C   UNL     1       3.232   3.221  17.327  0.00  0.00    +0.000 C 
BRANCH  23  25
ATOM     25  S   UNL     1       5.291   4.035  19.012  0.00  0.00    +0.000 S 
BRANCH  25  26
ATOM     26  C   UNL     1       6.100   5.671  19.215  0.00  0.00    +0.000 C 
BRANCH  26  27
ATOM     27  C   UNL     1       7.623   5.647  18.892  0.00  0.00    +0.000 C 
BRANCH  27  29
ATOM     28  C   UNL     1       7.447   4.870  16.423  0.00  0.00    +0.000 C 
ATOM     29  C   UNL     1       7.889   4.533  17.845  0.00  0.00    +0.000 C 
ENDBRANCH  27  29
BRANCH  27  30
ATOM     30  O   UNL     1       8.302   5.232  20.094  0.00  0.00    +0.000 OA
ATOM     31  H   UNL     1       9.049   4.664  19.846  0.00  0.00    +0.000 HD
ENDBRANCH  27  30
BRANCH  27  32
ATOM     32  C   UNL     1       8.184   7.023  18.456  0.00  0.00    +0.000 C 
ATOM     33  C   UNL     1       7.251   7.860  17.592  0.00  0.00    +0.000 C 
ENDBRANCH  27  32
ENDBRANCH  26  27
ENDBRANCH  25  26
ENDBRANCH  23  25
ENDBRANCH   1  23
TORSDOF 10
ENDMDL
MODEL 4
REMARK VINA RESULT:      -7.0      1.943      3.459
REMARK  Name = 
REMARK  14 active torsions:
REMARK  status: ('A' for Active; 'I' for Inactive)
REMARK    1  A    between atoms: C_1  and  C_2
REMARK    2  A    between atoms: C_2  and  C_3
REMARK    3  A    between atoms: C_3  and  O_4
REMARK    4  A    between atoms: C_3  and  C_5
REMARK    5  A    between atoms: C_3  and  C_7
REMARK    6  A    between atoms: C_5  and  C_6
REMARK    7  A    between atoms: C_7  and  S_8
REMARK    8  A    between atoms: S_8  and  C_9
REMARK    9  A    between atoms: C_9  and  C_10
REMARK   10  A    between atoms: C_9  and  C_11
REMARK   11  A    between atoms: C_16  and  C_17
REMARK   12  A    between atoms: C_20  and  O_21
REMARK   13  A    between atoms: C_23  and  O_24
REMARK   14  A    between atoms: C_29  and  C_30
REMARK                            x       y       z     vdW  Elec       q    Type
REMARK                         _______ _______ _______ _____ _____    ______ ____
ROOT
ATOM      1  C   UNL     1       4.314   6.004  18.004  0.00  0.00    +0.000 C 
ATOM      2  C   UNL     1       4.629   6.960  17.102  0.00  0.00    +0.000 C 
ATOM      3  C   UNL     1       3.629   8.084  17.093  0.00  0.00    +0.000 C 
ATOM      4  C   UNL     1       3.026   7.891  18.488  0.00  0.00    +0.000 C 
ATOM      5  C   UNL     1       1.749   8.555  18.953  0.00  0.00    +0.000 C 
ATOM      6  C   UNL     1       0.959   9.293  18.150  0.00  0.00    +0.000 C 
ATOM      7  C   UNL     1       1.499   8.265  20.425  0.00  0.00    +0.000 C 
ATOM      8  C   UNL     1       1.579   6.763  20.753  0.00  0.00    +0.000 C 
ATOM      9  C   UNL     1       2.821   6.062  20.170  0.00  0.00    +0.000 C 
ATOM     10  C   UNL     1       2.980   6.348  18.665  0.00  0.00    +0.000 C 
ATOM     11  C   UNL     1       1.830   5.679  17.869  0.00  0.00    +0.000 C 
ENDROOT
BRANCH   6  12
ATOM     12  C   UNL     1      -0.221  10.011  18.573  0.00  0.00    +0.000 C 
ATOM     13  C   UNL     1      -0.251  11.078  19.394  0.00  0.00    +0.000 C 
ATOM     14  C   UNL     1      -1.572  11.690  19.807  0.00  0.00    +0.000 C 
ATOM     15  C   UNL     1      -1.622  13.195  19.520  0.00  0.00    +0.000 C 
ATOM     16  C   UNL     1      -0.423  13.921  20.131  0.00  0.00    +0.000 C 
ATOM     17  C   UNL     1       0.905  13.310  19.684  0.00  0.00    +0.000 C 
ATOM     18  C   UNL     1       0.968  11.796  19.948  0.00  0.00    +0.000 C 
BRANCH  15  19
ATOM     19  O   UNL     1      -2.832  13.743  20.041  0.00  0.00    +0.000 OA
ATOM     20  H   UNL     1      -2.624  14.209  20.868  0.00  0.00    +0.000 HD
ENDBRANCH  15  19
BRANCH  17  21
ATOM     21  O   UNL     1       1.126  13.594  18.301  0.00  0.00    +0.000 OA
ATOM     22  H   UNL     1       0.288  13.468  17.821  0.00  0.00    +0.000 HD
ENDBRANCH  17  21
ENDBRANCH   6  12
BRANCH   1  23
ATOM     23  C   UNL     1       5.116   4.772  18.349  0.00  0.00    +0.000 C 
ATOM     24  C   UNL     1       6.598   5.085  18.576  0.00  0.00    +0.000 C 
BRANCH  23  25
ATOM     25  S   UNL     1       4.887   3.561  16.998  0.00  0.00    +0.000 S 
BRANCH  25  26
ATOM     26  C   UNL     1       3.197   2.938  17.360  0.00  0.00    +0.000 C 
BRANCH  26  27
ATOM     27  C   UNL     1       3.132   2.045  18.634  0.00  0.00    +0.000 C 
BRANCH  27  29
ATOM     28  C   UNL     1       4.837   1.701  20.559  0.00  0.00    +0.000 C 
ATOM     29  C   UNL     1       4.014   2.690  19.736  0.00  0.00    +0.000 C 
ENDBRANCH  27  29
BRANCH  27  30
ATOM     30  O   UNL     1       3.766   0.792  18.301  0.00  0.00    +0.000 OA
ATOM     31  H   UNL     1       3.078   0.114  18.209  0.00  0.00    +0.000 HD
ENDBRANCH  27  30
BRANCH  27  32
ATOM     32  C   UNL     1       1.688   1.757  19.114  0.00  0.00    +0.000 C 
ATOM     33  C   UNL     1       1.118   2.769  20.097  0.00  0.00    +0.000 C 
ENDBRANCH  27  32
ENDBRANCH  26  27
ENDBRANCH  25  26
ENDBRANCH  23  25
ENDBRANCH   1  23
TORSDOF 10
ENDMDL
MODEL 5
REMARK VINA RESULT:      -7.0      4.109      6.757
REMARK  Name = 
REMARK  14 active torsions:
REMARK  status: ('A' for Active; 'I' for Inactive)
REMARK    1  A    between atoms: C_1  and  C_2
REMARK    2  A    between atoms: C_2  and  C_3
REMARK    3  A    between atoms: C_3  and  O_4
REMARK    4  A    between atoms: C_3  and  C_5
REMARK    5  A    between atoms: C_3  and  C_7
REMARK    6  A    between atoms: C_5  and  C_6
REMARK    7  A    between atoms: C_7  and  S_8
REMARK    8  A    between atoms: S_8  and  C_9
REMARK    9  A    between atoms: C_9  and  C_10
REMARK   10  A    between atoms: C_9  and  C_11
REMARK   11  A    between atoms: C_16  and  C_17
REMARK   12  A    between atoms: C_20  and  O_21
REMARK   13  A    between atoms: C_23  and  O_24
REMARK   14  A    between atoms: C_29  and  C_30
REMARK                            x       y       z     vdW  Elec       q    Type
REMARK                         _______ _______ _______ _____ _____    ______ ____
ROOT
ATOM      1  C   UNL     1       1.057   9.359  20.230  0.00  0.00    +0.000 C 
ATOM      2  C   UNL     1       0.653   8.888  21.430  0.00  0.00    +0.000 C 
ATOM      3  C   UNL     1      -0.260   9.849  22.140  0.00  0.00    +0.000 C 
ATOM      4  C   UNL     1      -0.744  10.666  20.938  0.00  0.00    +0.000 C 
ATOM      5  C   UNL     1      -1.476  11.985  21.054  0.00  0.00    +0.000 C 
ATOM      6  C   UNL     1      -1.674  12.625  22.221  0.00  0.00    +0.000 C 
ATOM      7  C   UNL     1      -1.934  12.466  19.686  0.00  0.00    +0.000 C 
ATOM      8  C   UNL     1      -0.796  12.471  18.649  0.00  0.00    +0.000 C 
ATOM      9  C   UNL     1       0.028  11.169  18.620  0.00  0.00    +0.000 C 
ATOM     10  C   UNL     1       0.511  10.772  20.028  0.00  0.00    +0.000 C 
ATOM     11  C   UNL     1       1.551  11.798  20.545  0.00  0.00    +0.000 C 
ENDROOT
BRANCH   6  12
ATOM     12  C   UNL     1      -2.438  13.840  22.387  0.00  0.00    +0.000 C 
ATOM     13  C   UNL     1      -3.778  13.931  22.483  0.00  0.00    +0.000 C 
ATOM     14  C   UNL     1      -4.449  15.283  22.585  0.00  0.00    +0.000 C 
ATOM     15  C   UNL     1      -5.378  15.372  23.800  0.00  0.00    +0.000 C 
ATOM     16  C   UNL     1      -6.381  14.217  23.824  0.00  0.00    +0.000 C 
ATOM     17  C   UNL     1      -5.688  12.857  23.747  0.00  0.00    +0.000 C 
ATOM     18  C   UNL     1      -4.737  12.754  22.543  0.00  0.00    +0.000 C 
BRANCH  15  19
ATOM     19  O   UNL     1      -6.079  16.615  23.779  0.00  0.00    +0.000 OA
ATOM     20  H   UNL     1      -5.471  17.313  24.072  0.00  0.00    +0.000 HD
ENDBRANCH  15  19
BRANCH  17  21
ATOM     21  O   UNL     1      -4.992  12.600  24.968  0.00  0.00    +0.000 OA
ATOM     22  H   UNL     1      -5.163  13.337  25.582  0.00  0.00    +0.000 HD
ENDBRANCH  17  21
ENDBRANCH   6  12
BRANCH   1  23
ATOM     23  C   UNL     1       1.910   8.647  19.207  0.00  0.00    +0.000 C 
ATOM     24  C   UNL     1       1.270   8.639  17.817  0.00  0.00    +0.000 C 
BRANCH  23  25
ATOM     25  S   UNL     1       2.209   6.948  19.817  0.00  0.00    +0.000 S 
BRANCH  25  26
ATOM     26  C   UNL     1       2.387   6.028  18.237  0.00  0.00    +0.000 C 
BRANCH  26  27
ATOM     27  C   UNL     1       2.010   4.523  18.358  0.00  0.00    +0.000 C 
BRANCH  27  29
ATOM     28  C   UNL     1       4.328   4.337  17.209  0.00  0.00    +0.000 C 
ATOM     29  C   UNL     1       3.281   3.671  18.099  0.00  0.00    +0.000 C 
ENDBRANCH  27  29
BRANCH  27  30
ATOM     30  O   UNL     1       1.106   4.227  17.273  0.00  0.00    +0.000 OA
ATOM     31  H   UNL     1       0.387   4.879  17.284  0.00  0.00    +0.000 HD
ENDBRANCH  27  30
BRANCH  27  32
ATOM     32  C   UNL     1       1.313   4.166  19.694  0.00  0.00    +0.000 C 
ATOM     33  C   UNL     1       1.446   2.714  20.128  0.00  0.00    +0.000 C 
ENDBRANCH  27  32
ENDBRANCH  26  27
ENDBRANCH  25  26
ENDBRANCH  23  25
ENDBRANCH   1  23
TORSDOF 10
ENDMDL
MODEL 6
REMARK VINA RESULT:      -7.0      4.468     10.458
REMARK  Name = 
REMARK  14 active torsions:
REMARK  status: ('A' for Active; 'I' for Inactive)
REMARK    1  A    between atoms: C_1  and  C_2
REMARK    2  A    between atoms: C_2  and  C_3
REMARK    3  A    between atoms: C_3  and  O_4
REMARK    4  A    between atoms: C_3  and  C_5
REMARK    5  A    between atoms: C_3  and  C_7
REMARK    6  A    between atoms: C_5  and  C_6
REMARK    7  A    between atoms: C_7  and  S_8
REMARK    8  A    between atoms: S_8  and  C_9
REMARK    9  A    between atoms: C_9  and  C_10
REMARK   10  A    between atoms: C_9  and  C_11
REMARK   11  A    between atoms: C_16  and  C_17
REMARK   12  A    between atoms: C_20  and  O_21
REMARK   13  A    between atoms: C_23  and  O_24
REMARK   14  A    between atoms: C_29  and  C_30
REMARK                            x       y       z     vdW  Elec       q    Type
REMARK                         _______ _______ _______ _____ _____    ______ ____
ROOT
ATOM      1  C   UNL     1      -1.164  12.319  19.957  0.00  0.00    +0.000 C 
ATOM      2  C   UNL     1      -1.055  11.976  18.654  0.00  0.00    +0.000 C 
ATOM      3  C   UNL     1      -0.265  10.710  18.463  0.00  0.00    +0.000 C 
ATOM      4  C   UNL     1      -0.423  10.105  19.862  0.00  0.00    +0.000 C 
ATOM      5  C   UNL     1       0.403   8.949  20.379  0.00  0.00    +0.000 C 
ATOM      6  C   UNL     1       1.433   8.409  19.701  0.00  0.00    +0.000 C 
ATOM      7  C   UNL     1      -0.093   8.505  21.747  0.00  0.00    +0.000 C 
ATOM      8  C   UNL     1      -0.219   9.675  22.739  0.00  0.00    +0.000 C 
ATOM      9  C   UNL     1      -0.954  10.902  22.165  0.00  0.00    +0.000 C 
ATOM     10  C   UNL     1      -0.363  11.336  20.810  0.00  0.00    +0.000 C 
ATOM     11  C   UNL     1       1.074  11.883  21.004  0.00  0.00    +0.000 C 
ENDROOT
BRANCH   6  12
ATOM     12  C   UNL     1       2.192   7.254  20.119  0.00  0.00    +0.000 C 
ATOM     13  C   UNL     1       2.683   6.291  19.315  0.00  0.00    +0.000 C 
ATOM     14  C   UNL     1       3.404   5.097  19.901  0.00  0.00    +0.000 C 
ATOM     15  C   UNL     1       4.790   4.901  19.277  0.00  0.00    +0.000 C 
ATOM     16  C   UNL     1       4.715   4.848  17.751  0.00  0.00    +0.000 C 
ATOM     17  C   UNL     1       4.008   6.074  17.171  0.00  0.00    +0.000 C 
ATOM     18  C   UNL     1       2.622   6.298  17.797  0.00  0.00    +0.000 C 
BRANCH  15  19
ATOM     19  O   UNL     1       5.372   3.694  19.770  0.00  0.00    +0.000 OA
ATOM     20  H   UNL     1       5.054   2.957  19.224  0.00  0.00    +0.000 HD
ENDBRANCH  15  19
BRANCH  17  21
ATOM     21  O   UNL     1       4.833   7.229  17.334  0.00  0.00    +0.000 OA
ATOM     22  H   UNL     1       4.622   7.862  16.624  0.00  0.00    +0.000 HD
ENDBRANCH  17  21
ENDBRANCH   6  12
BRANCH   1  23
ATOM     23  C   UNL     1      -1.943  13.475  20.537  0.00  0.00    +0.000 C 
ATOM     24  C   UNL     1      -1.428  13.892  21.917  0.00  0.00    +0.000 C 
BRANCH  23  25
ATOM     25  S   UNL     1      -3.704  12.985  20.599  0.00  0.00    +0.000 S 
BRANCH  25  26
ATOM     26  C   UNL     1      -4.241  13.782  22.164  0.00  0.00    +0.000 C 
BRANCH  26  27
ATOM     27  C   UNL     1      -5.645  13.308  22.644  0.00  0.00    +0.000 C 
BRANCH  27  29
ATOM     28  C   UNL     1      -4.184  12.372  24.573  0.00  0.00    +0.000 C 
ATOM     29  C   UNL     1      -5.547  12.907  24.140  0.00  0.00    +0.000 C 
ENDBRANCH  27  29
BRANCH  27  30
ATOM     30  O   UNL     1      -5.947  12.094  21.926  0.00  0.00    +0.000 OA
ATOM     31  H   UNL     1      -6.152  12.323  21.005  0.00  0.00    +0.000 HD
ENDBRANCH  27  30
BRANCH  27  32
ATOM     32  C   UNL     1      -6.770  14.337  22.372  0.00  0.00    +0.000 C 
ATOM     33  C   UNL     1      -7.741  14.554  23.523  0.00  0.00    +0.000 C 
ENDBRANCH  27  32
ENDBRANCH  26  27
ENDBRANCH  25  26
ENDBRANCH  23  25
ENDBRANCH   1  23
TORSDOF 10
ENDMDL
MODEL 7
REMARK VINA RESULT:      -6.9      3.571      9.075
REMARK  Name = 
REMARK  14 active torsions:
REMARK  status: ('A' for Active; 'I' for Inactive)
REMARK    1  A    between atoms: C_1  and  C_2
REMARK    2  A    between atoms: C_2  and  C_3
REMARK    3  A    between atoms: C_3  and  O_4
REMARK    4  A    between atoms: C_3  and  C_5
REMARK    5  A    between atoms: C_3  and  C_7
REMARK    6  A    between atoms: C_5  and  C_6
REMARK    7  A    between atoms: C_7  and  S_8
REMARK    8  A    between atoms: S_8  and  C_9
REMARK    9  A    between atoms: C_9  and  C_10
REMARK   10  A    between atoms: C_9  and  C_11
REMARK   11  A    between atoms: C_16  and  C_17
REMARK   12  A    between atoms: C_20  and  O_21
REMARK   13  A    between atoms: C_23  and  O_24
REMARK   14  A    between atoms: C_29  and  C_30
REMARK                            x       y       z     vdW  Elec       q    Type
REMARK                         _______ _______ _______ _____ _____    ______ ____
ROOT
ATOM      1  C   UNL     1       0.784  10.427  19.255  0.00  0.00    +0.000 C 
ATOM      2  C   UNL     1       0.294  10.271  20.504  0.00  0.00    +0.000 C 
ATOM      3  C   UNL     1       0.536   8.887  21.041  0.00  0.00    +0.000 C 
ATOM      4  C   UNL     1       1.704   8.472  20.141  0.00  0.00    +0.000 C 
ATOM      5  C   UNL     1       2.205   7.050  20.010  0.00  0.00    +0.000 C 
ATOM      6  C   UNL     1       1.601   5.994  20.585  0.00  0.00    +0.000 C 
ATOM      7  C   UNL     1       3.456   7.000  19.147  0.00  0.00    +0.000 C 
ATOM      8  C   UNL     1       3.277   7.726  17.802  0.00  0.00    +0.000 C 
ATOM      9  C   UNL     1       2.650   9.128  17.929  0.00  0.00    +0.000 C 
ATOM     10  C   UNL     1       1.355   9.098  18.762  0.00  0.00    +0.000 C 
ATOM     11  C   UNL     1       0.249   8.319  18.005  0.00  0.00    +0.000 C 
ENDROOT
BRANCH   6  12
ATOM     12  C   UNL     1       2.091   4.635  20.555  0.00  0.00    +0.000 C 
ATOM     13  C   UNL     1       2.010   3.783  19.515  0.00  0.00    +0.000 C 
ATOM     14  C   UNL     1       2.506   2.360  19.651  0.00  0.00    +0.000 C 
ATOM     15  C   UNL     1       3.513   1.997  18.553  0.00  0.00    +0.000 C 
ATOM     16  C   UNL     1       2.953   2.292  17.161  0.00  0.00    +0.000 C 
ATOM     17  C   UNL     1       2.480   3.740  17.030  0.00  0.00    +0.000 C 
ATOM     18  C   UNL     1       1.483   4.129  18.134  0.00  0.00    +0.000 C 
BRANCH  15  19
ATOM     19  O   UNL     1       3.851   0.614  18.650  0.00  0.00    +0.000 OA
ATOM     20  H   UNL     1       3.489   0.156  17.873  0.00  0.00    +0.000 HD
ENDBRANCH  15  19
BRANCH  17  21
ATOM     21  O   UNL     1       3.607   4.618  17.030  0.00  0.00    +0.000 OA
ATOM     22  H   UNL     1       3.770   4.912  17.945  0.00  0.00    +0.000 HD
ENDBRANCH  17  21
ENDBRANCH   6  12
BRANCH   1  23
ATOM     23  C   UNL     1       0.798  11.691  18.429  0.00  0.00    +0.000 C 
ATOM     24  C   UNL     1       1.895  12.664  18.868  0.00  0.00    +0.000 C 
BRANCH  23  25
ATOM     25  S   UNL     1      -0.861  12.453  18.549  0.00  0.00    +0.000 S 
BRANCH  25  26
ATOM     26  C   UNL     1      -1.920  10.969  18.769  0.00  0.00    +0.000 C 
BRANCH  26  27
ATOM     27  C   UNL     1      -2.984  10.802  17.645  0.00  0.00    +0.000 C 
BRANCH  27  29
ATOM     28  C   UNL     1      -5.562  10.972  17.872  0.00  0.00    +0.000 C 
ATOM     29  C   UNL     1      -4.215  11.680  17.993  0.00  0.00    +0.000 C 
ENDBRANCH  27  29
BRANCH  27  30
ATOM     30  O   UNL     1      -3.443   9.436  17.700  0.00  0.00    +0.000 OA
ATOM     31  H   UNL     1      -4.412   9.434  17.647  0.00  0.00    +0.000 HD
ENDBRANCH  27  30
BRANCH  27  32
ATOM     32  C   UNL     1      -2.431  11.082  16.225  0.00  0.00    +0.000 C 
ATOM     33  C   UNL     1      -2.976  10.180  15.127  0.00  0.00    +0.000 C 
ENDBRANCH  27  32
ENDBRANCH  26  27
ENDBRANCH  25  26
ENDBRANCH  23  25
ENDBRANCH   1  23
TORSDOF 10
ENDMDL
MODEL 8
REMARK VINA RESULT:      -6.9      3.441      9.099
REMARK  Name = 
REMARK  14 active torsions:
REMARK  status: ('A' for Active; 'I' for Inactive)
REMARK    1  A    between atoms: C_1  and  C_2
REMARK    2  A    between atoms: C_2  and  C_3
REMARK    3  A    between atoms: C_3  and  O_4
REMARK    4  A    between atoms: C_3  and  C_5
REMARK    5  A    between atoms: C_3  and  C_7
REMARK    6  A    between atoms: C_5  and  C_6
REMARK    7  A    between atoms: C_7  and  S_8
REMARK    8  A    between atoms: S_8  and  C_9
REMARK    9  A    between atoms: C_9  and  C_10
REMARK   10  A    between atoms: C_9  and  C_11
REMARK   11  A    between atoms: C_16  and  C_17
REMARK   12  A    between atoms: C_20  and  O_21
REMARK   13  A    between atoms: C_23  and  O_24
REMARK   14  A    between atoms: C_29  and  C_30
REMARK                            x       y       z     vdW  Elec       q    Type
REMARK                         _______ _______ _______ _____ _____    ______ ____
ROOT
ATOM      1  C   UNL     1       0.667  10.331  19.387  0.00  0.00    +0.000 C 
ATOM      2  C   UNL     1       0.171  10.136  20.629  0.00  0.00    +0.000 C 
ATOM      3  C   UNL     1       0.456   8.753  21.145  0.00  0.00    +0.000 C 
ATOM      4  C   UNL     1       1.648   8.395  20.250  0.00  0.00    +0.000 C 
ATOM      5  C   UNL     1       2.199   6.995  20.101  0.00  0.00    +0.000 C 
ATOM      6  C   UNL     1       1.629   5.908  20.653  0.00  0.00    +0.000 C 
ATOM      7  C   UNL     1       3.460   7.003  19.250  0.00  0.00    +0.000 C 
ATOM      8  C   UNL     1       3.268   7.745  17.915  0.00  0.00    +0.000 C 
ATOM      9  C   UNL     1       2.590   9.122  18.059  0.00  0.00    +0.000 C 
ATOM     10  C   UNL     1       1.289   9.031  18.878  0.00  0.00    +0.000 C 
ATOM     11  C   UNL     1       0.219   8.226  18.097  0.00  0.00    +0.000 C 
ENDROOT
BRANCH   6  12
ATOM     12  C   UNL     1       2.167   4.568  20.606  0.00  0.00    +0.000 C 
ATOM     13  C   UNL     1       2.051   3.700  19.583  0.00  0.00    +0.000 C 
ATOM     14  C   UNL     1       2.609   2.299  19.700  0.00  0.00    +0.000 C 
ATOM     15  C   UNL     1       3.555   1.959  18.543  0.00  0.00    +0.000 C 
ATOM     16  C   UNL     1       2.896   2.215  17.188  0.00  0.00    +0.000 C 
ATOM     17  C   UNL     1       2.361   3.642  17.072  0.00  0.00    +0.000 C 
ATOM     18  C   UNL     1       1.423   4.009  18.235  0.00  0.00    +0.000 C 
BRANCH  15  19
ATOM     19  O   UNL     1       3.951   0.590  18.633  0.00  0.00    +0.000 OA
ATOM     20  H   UNL     1       3.782   0.167  17.775  0.00  0.00    +0.000 HD
ENDBRANCH  15  19
BRANCH  17  21
ATOM     21  O   UNL     1       3.451   4.561  16.990  0.00  0.00    +0.000 OA
ATOM     22  H   UNL     1       3.598   4.783  16.053  0.00  0.00    +0.000 HD
ENDBRANCH  17  21
ENDBRANCH   6  12
BRANCH   1  23
ATOM     23  C   UNL     1       0.643  11.609  18.582  0.00  0.00    +0.000 C 
ATOM     24  C   UNL     1       1.531  12.698  19.188  0.00  0.00    +0.000 C 
BRANCH  23  25
ATOM     25  S   UNL     1      -1.098  12.156  18.456  0.00  0.00    +0.000 S 
BRANCH  25  26
ATOM     26  C   UNL     1      -1.952  10.561  18.141  0.00  0.00    +0.000 C 
BRANCH  26  27
ATOM     27  C   UNL     1      -3.235  10.713  17.273  0.00  0.00    +0.000 C 
BRANCH  27  29
ATOM     28  C   UNL     1      -2.866  10.159  14.766  0.00  0.00    +0.000 C 
ATOM     29  C   UNL     1      -3.210   9.634  16.158  0.00  0.00    +0.000 C 
ENDBRANCH  27  29
BRANCH  27  30
ATOM     30  O   UNL     1      -3.139  11.984  16.598  0.00  0.00    +0.000 OA
ATOM     31  H   UNL     1      -2.687  12.611  17.185  0.00  0.00    +0.000 HD
ENDBRANCH  27  30
BRANCH  27  32
ATOM     32  C   UNL     1      -4.546  10.690  18.099  0.00  0.00    +0.000 C 
ATOM     33  C   UNL     1      -5.004  12.041  18.626  0.00  0.00    +0.000 C 
ENDBRANCH  27  32
ENDBRANCH  26  27
ENDBRANCH  25  26
ENDBRANCH  23  25
ENDBRANCH   1  23
TORSDOF 10
ENDMDL
MODEL 9
REMARK VINA RESULT:      -6.9      3.680      6.288
REMARK  Name = 
REMARK  14 active torsions:
REMARK  status: ('A' for Active; 'I' for Inactive)
REMARK    1  A    between atoms: C_1  and  C_2
REMARK    2  A    between atoms: C_2  and  C_3
REMARK    3  A    between atoms: C_3  and  O_4
REMARK    4  A    between atoms: C_3  and  C_5
REMARK    5  A    between atoms: C_3  and  C_7
REMARK    6  A    between atoms: C_5  and  C_6
REMARK    7  A    between atoms: C_7  and  S_8
REMARK    8  A    between atoms: S_8  and  C_9
REMARK    9  A    between atoms: C_9  and  C_10
REMARK   10  A    between atoms: C_9  and  C_11
REMARK   11  A    between atoms: C_16  and  C_17
REMARK   12  A    between atoms: C_20  and  O_21
REMARK   13  A    between atoms: C_23  and  O_24
REMARK   14  A    between atoms: C_29  and  C_30
REMARK                            x       y       z     vdW  Elec       q    Type
REMARK                         _______ _______ _______ _____ _____    ______ ____
ROOT
ATOM      1  C   UNL     1       0.577   9.785  18.899  0.00  0.00    +0.000 C 
ATOM      2  C   UNL     1      -0.413   9.573  18.004  0.00  0.00    +0.000 C 
ATOM      3  C   UNL     1      -1.604  10.457  18.252  0.00  0.00    +0.000 C 
ATOM      4  C   UNL     1      -0.924  11.568  19.060  0.00  0.00    +0.000 C 
ATOM      5  C   UNL     1      -1.674  12.616  19.850  0.00  0.00    +0.000 C 
ATOM      6  C   UNL     1      -3.011  12.610  20.012  0.00  0.00    +0.000 C 
ATOM      7  C   UNL     1      -0.713  13.646  20.423  0.00  0.00    +0.000 C 
ATOM      8  C   UNL     1       0.455  13.002  21.191  0.00  0.00    +0.000 C 
ATOM      9  C   UNL     1       1.140  11.848  20.432  0.00  0.00    +0.000 C 
ATOM     10  C   UNL     1       0.116  10.811  19.933  0.00  0.00    +0.000 C 
ATOM     11  C   UNL     1      -0.524  10.071  21.134  0.00  0.00    +0.000 C 
ENDROOT
BRANCH   6  12
ATOM     12  C   UNL     1      -3.774  13.635  20.686  0.00  0.00    +0.000 C 
ATOM     13  C   UNL     1      -4.025  13.700  22.007  0.00  0.00    +0.000 C 
ATOM     14  C   UNL     1      -4.902  14.798  22.567  0.00  0.00    +0.000 C 
ATOM     15  C   UNL     1      -4.209  15.566  23.698  0.00  0.00    +0.000 C 
ATOM     16  C   UNL     1      -3.692  14.620  24.782  0.00  0.00    +0.000 C 
ATOM     17  C   UNL     1      -2.786  13.531  24.206  0.00  0.00    +0.000 C 
ATOM     18  C   UNL     1      -3.458  12.761  23.058  0.00  0.00    +0.000 C 
BRANCH  15  19
ATOM     19  O   UNL     1      -5.121  16.502  24.273  0.00  0.00    +0.000 OA
ATOM     20  H   UNL     1      -6.023  16.243  24.020  0.00  0.00    +0.000 HD
ENDBRANCH  15  19
BRANCH  17  21
ATOM     21  O   UNL     1      -1.551  14.108  23.778  0.00  0.00    +0.000 OA
ATOM     22  H   UNL     1      -1.459  13.965  22.819  0.00  0.00    +0.000 HD
ENDBRANCH  17  21
ENDBRANCH   6  12
BRANCH   1  23
ATOM     23  C   UNL     1       1.944   9.144  18.921  0.00  0.00    +0.000 C 
ATOM     24  C   UNL     1       2.419   8.733  17.524  0.00  0.00    +0.000 C 
BRANCH  23  25
ATOM     25  S   UNL     1       1.867   7.708  20.051  0.00  0.00    +0.000 S 
BRANCH  25  26
ATOM     26  C   UNL     1       2.453   6.357  18.953  0.00  0.00    +0.000 C 
BRANCH  26  27
ATOM     27  C   UNL     1       2.682   5.012  19.703  0.00  0.00    +0.000 C 
BRANCH  27  29
ATOM     28  C   UNL     1       1.018   3.208  20.544  0.00  0.00    +0.000 C 
ATOM     29  C   UNL     1       1.506   4.055  19.371  0.00  0.00    +0.000 C 
ENDBRANCH  27  29
BRANCH  27  30
ATOM     30  O   UNL     1       2.578   5.294  21.113  0.00  0.00    +0.000 OA
ATOM     31  H   UNL     1       1.639   5.398  21.339  0.00  0.00    +0.000 HD
ENDBRANCH  27  30
BRANCH  27  32
ATOM     32  C   UNL     1       4.067   4.377  19.425  0.00  0.00    +0.000 C 
ATOM     33  C   UNL     1       4.335   4.015  17.972  0.00  0.00    +0.000 C 
ENDBRANCH  27  32
ENDBRANCH  26  27
ENDBRANCH  25  26
ENDBRANCH  23  25
ENDBRANCH   1  23
TORSDOF 10
ENDMDL
