MODEL 1
REMARK VINA RESULT:      -7.7      0.000      0.000
REMARK  Name = 
REMARK  4 active torsions:
REMARK  status: ('A' for Active; 'I' for Inactive)
REMARK    1  A    between atoms: C_1  and  C_2
REMARK    2  A    between atoms: C_10  and  C_11
REMARK    3  A    between atoms: C_13  and  N_14
REMARK    4  A    between atoms: C_15  and  C_17
REMARK                            x       y       z     vdW  Elec       q    Type
REMARK                         _______ _______ _______ _____ _____    ______ ____
ROOT
ATOM      1  C   UNL     1      -0.152   9.138  22.189  0.00  0.00    +0.000 C 
ATOM      2  C   UNL     1       0.680   8.642  21.040  0.00  0.00    +0.000 A 
ATOM      3  C   UNL     1       0.918   9.418  19.906  0.00  0.00    +0.000 A 
ATOM      4  C   UNL     1       1.716   8.922  18.865  0.00  0.00    +0.000 A 
ATOM      5  C   UNL     1       2.294   7.629  18.937  0.00  0.00    +0.000 A 
ATOM      6  C   UNL     1       2.052   6.851  20.079  0.00  0.00    +0.000 A 
ATOM      7  C   UNL     1       1.254   7.370  21.122  0.00  0.00    +0.000 A 
ATOM      8  N   UNL     1       2.622   5.569  20.188  0.00  0.00    +0.000 N 
ATOM      9  O   UNL     1       2.410   4.884  21.241  0.00  0.00    +0.000 OA
ATOM     10  C   UNL     1       3.420   5.062  19.167  0.00  0.00    +0.000 A 
ATOM     11  C   UNL     1       3.640   5.800  17.994  0.00  0.00    +0.000 A 
ATOM     12  N   UNL     1       3.098   7.098  17.910  0.00  0.00    +0.000 N 
ATOM     13  O   UNL     1       3.369   7.770  16.847  0.00  0.00    +0.000 OA
ENDROOT
BRANCH  11  14
ATOM     14  N   UNL     1       4.370   5.462  16.864  0.00  0.00    +0.000 N 
ATOM     15  C   UNL     1       5.787   5.496  16.708  0.00  0.00    +0.000 C 
ATOM     16  O   UNL     1       6.482   5.814  17.656  0.00  0.00    +0.000 OA
ATOM     17  H   UNL     1       3.824   4.928  16.180  0.00  0.00    +0.000 HD
BRANCH  15  18
ATOM     18  C   UNL     1       6.274   5.037  15.434  0.00  0.00    +0.000 A 
ATOM     19  C   UNL     1       5.746   4.118  14.546  0.00  0.00    +0.000 A 
ATOM     20  C   UNL     1       6.577   4.133  13.401  0.00  0.00    +0.000 A 
ATOM     21  C   UNL     1       7.577   5.039  13.668  0.00  0.00    +0.000 A 
ATOM     22  O   UNL     1       7.415   5.583  14.908  0.00  0.00    +0.000 OA
ENDBRANCH  15  18
ENDBRANCH  11  14
BRANCH  10  23
ATOM     23  C   UNL     1       4.076   3.842  19.492  0.00  0.00    +0.000 C 
ATOM     24  N   UNL     1       4.622   2.840  19.683  0.00  0.00    +0.000 NA
ENDBRANCH  10  23
TORSDOF 3
ENDMDL
MODEL 2
REMARK VINA RESULT:      -6.3      2.914      7.271
REMARK  Name = 
REMARK  4 active torsions:
REMARK  status: ('A' for Active; 'I' for Inactive)
REMARK    1  A    between atoms: C_1  and  C_2
REMARK    2  A    between atoms: C_10  and  C_11
REMARK    3  A    between atoms: C_13  and  N_14
REMARK    4  A    between atoms: C_15  and  C_17
REMARK                            x       y       z     vdW  Elec       q    Type
REMARK                         _______ _______ _______ _____ _____    ______ ____
ROOT
ATOM      1  C   UNL     1       7.810   5.310  11.773  0.00  0.00    +0.000 C 
ATOM      2  C   UNL     1       7.014   4.879  12.973  0.00  0.00    +0.000 A 
ATOM      3  C   UNL     1       5.958   3.972  12.876  0.00  0.00    +0.000 A 
ATOM      4  C   UNL     1       5.254   3.583  14.025  0.00  0.00    +0.000 A 
ATOM      5  C   UNL     1       5.593   4.100  15.302  0.00  0.00    +0.000 A 
ATOM      6  C   UNL     1       6.654   5.011  15.394  0.00  0.00    +0.000 A 
ATOM      7  C   UNL     1       7.359   5.385  14.229  0.00  0.00    +0.000 A 
ATOM      8  N   UNL     1       7.024   5.531  16.649  0.00  0.00    +0.000 N 
ATOM      9  O   UNL     1       8.005   6.343  16.718  0.00  0.00    +0.000 OA
ATOM     10  C   UNL     1       6.340   5.154  17.800  0.00  0.00    +0.000 A 
ATOM     11  C   UNL     1       5.245   4.279  17.729  0.00  0.00    +0.000 A 
ATOM     12  N   UNL     1       4.906   3.733  16.476  0.00  0.00    +0.000 N 
ATOM     13  O   UNL     1       3.935   2.889  16.456  0.00  0.00    +0.000 OA
ENDROOT
BRANCH  11  14
ATOM     14  N   UNL     1       4.424   3.811  18.745  0.00  0.00    +0.000 N 
ATOM     15  C   UNL     1       3.378   4.518  19.406  0.00  0.00    +0.000 C 
ATOM     16  O   UNL     1       3.107   5.650  19.049  0.00  0.00    +0.000 OA
ATOM     17  H   UNL     1       4.452   2.791  18.844  0.00  0.00    +0.000 HD
BRANCH  15  18
ATOM     18  C   UNL     1       2.653   3.759  20.392  0.00  0.00    +0.000 A 
ATOM     19  C   UNL     1       1.386   3.941  20.915  0.00  0.00    +0.000 A 
ATOM     20  C   UNL     1       1.135   2.840  21.767  0.00  0.00    +0.000 A 
ATOM     21  C   UNL     1       2.272   2.066  21.734  0.00  0.00    +0.000 A 
ATOM     22  O   UNL     1       3.209   2.622  20.916  0.00  0.00    +0.000 OA
ENDBRANCH  15  18
ENDBRANCH  11  14
BRANCH  10  23
ATOM     23  C   UNL     1       6.937   5.609  19.009  0.00  0.00    +0.000 C 
ATOM     24  N   UNL     1       7.409   5.911  20.021  0.00  0.00    +0.000 NA
ENDBRANCH  10  23
TORSDOF 3
ENDMDL
MODEL 3
REMARK VINA RESULT:      -6.2      7.178     10.797
REMARK  Name = 
REMARK  4 active torsions:
REMARK  status: ('A' for Active; 'I' for Inactive)
REMARK    1  A    between atoms: C_1  and  C_2
REMARK    2  A    between atoms: C_10  and  C_11
REMARK    3  A    between atoms: C_13  and  N_14
REMARK    4  A    between atoms: C_15  and  C_17
REMARK                            x       y       z     vdW  Elec       q    Type
REMARK                         _______ _______ _______ _____ _____    ______ ____
ROOT
ATOM      1  C   UNL     1      -3.099   9.414  14.803  0.00  0.00    +0.000 C 
ATOM      2  C   UNL     1      -3.093  10.232  16.064  0.00  0.00    +0.000 A 
ATOM      3  C   UNL     1      -4.162  11.056  16.420  0.00  0.00    +0.000 A 
ATOM      4  C   UNL     1      -4.122  11.786  17.617  0.00  0.00    +0.000 A 
ATOM      5  C   UNL     1      -3.004  11.709  18.485  0.00  0.00    +0.000 A 
ATOM      6  C   UNL     1      -1.932  10.880  18.125  0.00  0.00    +0.000 A 
ATOM      7  C   UNL     1      -1.993  10.143  16.921  0.00  0.00    +0.000 A 
ATOM      8  N   UNL     1      -0.814  10.770  18.973  0.00  0.00    +0.000 N 
ATOM      9  O   UNL     1       0.142   9.996  18.639  0.00  0.00    +0.000 OA
ATOM     10  C   UNL     1      -0.759  11.484  20.165  0.00  0.00    +0.000 A 
ATOM     11  C   UNL     1      -1.797  12.356  20.527  0.00  0.00    +0.000 A 
ATOM     12  N   UNL     1      -2.930  12.430  19.693  0.00  0.00    +0.000 N 
ATOM     13  O   UNL     1      -3.888  13.194  20.086  0.00  0.00    +0.000 OA
ENDROOT
BRANCH  11  14
ATOM     14  N   UNL     1      -1.914  13.169  21.646  0.00  0.00    +0.000 N 
ATOM     15  C   UNL     1      -2.210  12.765  22.980  0.00  0.00    +0.000 C 
ATOM     16  O   UNL     1      -2.345  11.580  23.227  0.00  0.00    +0.000 OA
ATOM     17  H   UNL     1      -1.523  14.106  21.503  0.00  0.00    +0.000 HD
BRANCH  15  18
ATOM     18  C   UNL     1      -2.218  13.826  23.954  0.00  0.00    +0.000 A 
ATOM     19  C   UNL     1      -3.244  14.324  24.734  0.00  0.00    +0.000 A 
ATOM     20  C   UNL     1      -2.671  15.289  25.596  0.00  0.00    +0.000 A 
ATOM     21  C   UNL     1      -1.335  15.341  25.273  0.00  0.00    +0.000 A 
ATOM     22  O   UNL     1      -1.049  14.469  24.265  0.00  0.00    +0.000 OA
ENDBRANCH  15  18
ENDBRANCH  11  14
BRANCH  10  23
ATOM     23  C   UNL     1       0.337  11.135  21.003  0.00  0.00    +0.000 C 
ATOM     24  N   UNL     1       1.178  10.842  21.741  0.00  0.00    +0.000 NA
ENDBRANCH  10  23
TORSDOF 3
ENDMDL
MODEL 4
REMARK VINA RESULT:      -6.2      2.529      3.936
REMARK  Name = 
REMARK  4 active torsions:
REMARK  status: ('A' for Active; 'I' for Inactive)
REMARK    1  A    between atoms: C_1  and  C_2
REMARK    2  A    between atoms: C_10  and  C_11
REMARK    3  A    between atoms: C_13  and  N_14
REMARK    4  A    between atoms: C_15  and  C_17
REMARK                            x       y       z     vdW  Elec       q    Type
REMARK                         _______ _______ _______ _____ _____    ______ ____
ROOT
ATOM      1  C   UNL     1       1.031   2.519  22.370  0.00  0.00    +0.000 C 
ATOM      2  C   UNL     1       1.813   2.713  21.101  0.00  0.00    +0.000 A 
ATOM      3  C   UNL     1       2.271   1.637  20.339  0.00  0.00    +0.000 A 
ATOM      4  C   UNL     1       2.982   1.865  19.152  0.00  0.00    +0.000 A 
ATOM      5  C   UNL     1       3.252   3.181  18.701  0.00  0.00    +0.000 A 
ATOM      6  C   UNL     1       2.791   4.260  19.468  0.00  0.00    +0.000 A 
ATOM      7  C   UNL     1       2.068   4.013  20.657  0.00  0.00    +0.000 A 
ATOM      8  N   UNL     1       3.031   5.579  19.040  0.00  0.00    +0.000 N 
ATOM      9  O   UNL     1       2.586   6.548  19.739  0.00  0.00    +0.000 OA
ATOM     10  C   UNL     1       3.730   5.823  17.863  0.00  0.00    +0.000 A 
ATOM     11  C   UNL     1       4.243   4.763  17.100  0.00  0.00    +0.000 A 
ATOM     12  N   UNL     1       3.964   3.446  17.514  0.00  0.00    +0.000 N 
ATOM     13  O   UNL     1       4.399   2.498  16.760  0.00  0.00    +0.000 OA
ENDROOT
BRANCH  11  14
ATOM     14  N   UNL     1       4.983   4.799  15.927  0.00  0.00    +0.000 N 
ATOM     15  C   UNL     1       6.402   4.762  15.799  0.00  0.00    +0.000 C 
ATOM     16  O   UNL     1       7.087   4.647  16.799  0.00  0.00    +0.000 OA
ATOM     17  H   UNL     1       4.419   4.605  15.092  0.00  0.00    +0.000 HD
BRANCH  15  18
ATOM     18  C   UNL     1       6.895   4.761  14.446  0.00  0.00    +0.000 A 
ATOM     19  C   UNL     1       6.472   4.056  13.334  0.00  0.00    +0.000 A 
ATOM     20  C   UNL     1       7.239   4.522  12.239  0.00  0.00    +0.000 A 
ATOM     21  C   UNL     1       8.101   5.463  12.752  0.00  0.00    +0.000 A 
ATOM     22  O   UNL     1       7.915   5.606  14.095  0.00  0.00    +0.000 OA
ENDBRANCH  15  18
ENDBRANCH  11  14
BRANCH  10  23
ATOM     23  C   UNL     1       3.735   7.188  17.461  0.00  0.00    +0.000 C 
ATOM     24  N   UNL     1       3.814   8.294  17.129  0.00  0.00    +0.000 NA
ENDBRANCH  10  23
TORSDOF 3
ENDMDL
MODEL 5
REMARK VINA RESULT:      -6.1      7.134     10.839
REMARK  Name = 
REMARK  4 active torsions:
REMARK  status: ('A' for Active; 'I' for Inactive)
REMARK    1  A    between atoms: C_1  and  C_2
REMARK    2  A    between atoms: C_10  and  C_11
REMARK    3  A    between atoms: C_13  and  N_14
REMARK    4  A    between atoms: C_15  and  C_17
REMARK                            x       y       z     vdW  Elec       q    Type
REMARK                         _______ _______ _______ _____ _____    ______ ____
ROOT
ATOM      1  C   UNL     1      -3.141   9.906  14.587  0.00  0.00    +0.000 C 
ATOM      2  C   UNL     1      -3.159  10.538  15.951  0.00  0.00    +0.000 A 
ATOM      3  C   UNL     1      -4.257  11.259  16.421  0.00  0.00    +0.000 A 
ATOM      4  C   UNL     1      -4.238  11.815  17.708  0.00  0.00    +0.000 A 
ATOM      5  C   UNL     1      -3.112  11.662  18.556  0.00  0.00    +0.000 A 
ATOM      6  C   UNL     1      -2.011  10.937  18.081  0.00  0.00    +0.000 A 
ATOM      7  C   UNL     1      -2.050  10.375  16.785  0.00  0.00    +0.000 A 
ATOM      8  N   UNL     1      -0.883  10.755  18.903  0.00  0.00    +0.000 N 
ATOM      9  O   UNL     1       0.102  10.075  18.463  0.00  0.00    +0.000 OA
ATOM     10  C   UNL     1      -0.848  11.296  20.184  0.00  0.00    +0.000 A 
ATOM     11  C   UNL     1      -1.917  12.065  20.667  0.00  0.00    +0.000 A 
ATOM     12  N   UNL     1      -3.058  12.209  19.853  0.00  0.00    +0.000 N 
ATOM     13  O   UNL     1      -4.044  12.870  20.350  0.00  0.00    +0.000 OA
ENDROOT
BRANCH  11  14
ATOM     14  N   UNL     1      -2.060  12.707  21.889  0.00  0.00    +0.000 N 
ATOM     15  C   UNL     1      -1.410  13.901  22.319  0.00  0.00    +0.000 C 
ATOM     16  O   UNL     1      -0.667  14.483  21.551  0.00  0.00    +0.000 OA
ATOM     17  H   UNL     1      -2.883  12.392  22.413  0.00  0.00    +0.000 HD
BRANCH  15  18
ATOM     18  C   UNL     1      -1.792  14.369  23.626  0.00  0.00    +0.000 A 
ATOM     19  C   UNL     1      -1.087  15.105  24.560  0.00  0.00    +0.000 A 
ATOM     20  C   UNL     1      -1.980  15.381  25.622  0.00  0.00    +0.000 A 
ATOM     21  C   UNL     1      -3.168  14.775  25.286  0.00  0.00    +0.000 A 
ATOM     22  O   UNL     1      -3.063  14.141  24.083  0.00  0.00    +0.000 OA
ENDBRANCH  15  18
ENDBRANCH  11  14
BRANCH  10  23
ATOM     23  C   UNL     1       0.267  10.877  20.963  0.00  0.00    +0.000 C 
ATOM     24  N   UNL     1       1.126  10.529  21.655  0.00  0.00    +0.000 NA
ENDBRANCH  10  23
TORSDOF 3
ENDMDL
MODEL 6
REMARK VINA RESULT:      -6.0      2.023      7.018
REMARK  Name = 
REMARK  4 active torsions:
REMARK  status: ('A' for Active; 'I' for Inactive)
REMARK    1  A    between atoms: C_1  and  C_2
REMARK    2  A    between atoms: C_10  and  C_11
REMARK    3  A    between atoms: C_13  and  N_14
REMARK    4  A    between atoms: C_15  and  C_17
REMARK                            x       y       z     vdW  Elec       q    Type
REMARK                         _______ _______ _______ _____ _____    ______ ____
ROOT
ATOM      1  C   UNL     1       6.471   3.747  14.384  0.00  0.00    +0.000 C 
ATOM      2  C   UNL     1       5.712   4.591  15.370  0.00  0.00    +0.000 A 
ATOM      3  C   UNL     1       5.414   5.932  15.124  0.00  0.00    +0.000 A 
ATOM      4  C   UNL     1       4.687   6.677  16.064  0.00  0.00    +0.000 A 
ATOM      5  C   UNL     1       4.242   6.092  17.277  0.00  0.00    +0.000 A 
ATOM      6  C   UNL     1       4.543   4.745  17.519  0.00  0.00    +0.000 A 
ATOM      7  C   UNL     1       5.268   4.006  16.558  0.00  0.00    +0.000 A 
ATOM      8  N   UNL     1       4.103   4.131  18.707  0.00  0.00    +0.000 N 
ATOM      9  O   UNL     1       4.367   2.899  18.902  0.00  0.00    +0.000 OA
ATOM     10  C   UNL     1       3.377   4.853  19.649  0.00  0.00    +0.000 A 
ATOM     11  C   UNL     1       3.103   6.215  19.452  0.00  0.00    +0.000 A 
ATOM     12  N   UNL     1       3.512   6.811  18.243  0.00  0.00    +0.000 N 
ATOM     13  O   UNL     1       3.192   8.046  18.070  0.00  0.00    +0.000 OA
ENDROOT
BRANCH  11  14
ATOM     14  N   UNL     1       2.428   7.105  20.275  0.00  0.00    +0.000 N 
ATOM     15  C   UNL     1       1.095   6.990  20.764  0.00  0.00    +0.000 C 
ATOM     16  O   UNL     1       0.444   5.998  20.490  0.00  0.00    +0.000 OA
ATOM     17  H   UNL     1       3.053   7.777  20.735  0.00  0.00    +0.000 HD
BRANCH  15  18
ATOM     18  C   UNL     1       0.673   8.045  21.649  0.00  0.00    +0.000 A 
ATOM     19  C   UNL     1       1.395   9.059  22.250  0.00  0.00    +0.000 A 
ATOM     20  C   UNL     1       0.462   9.880  22.926  0.00  0.00    +0.000 A 
ATOM     21  C   UNL     1      -0.770   9.304  22.720  0.00  0.00    +0.000 A 
ATOM     22  O   UNL     1      -0.655   8.179  21.960  0.00  0.00    +0.000 OA
ENDBRANCH  15  18
ENDBRANCH  11  14
BRANCH  10  23
ATOM     23  C   UNL     1       2.842   4.062  20.704  0.00  0.00    +0.000 C 
ATOM     24  N   UNL     1       2.413   3.359  21.516  0.00  0.00    +0.000 NA
ENDBRANCH  10  23
TORSDOF 3
ENDMDL
MODEL 7
REMARK VINA RESULT:      -6.0      3.442      7.257
REMARK  Name = 
REMARK  4 active torsions:
REMARK  status: ('A' for Active; 'I' for Inactive)
REMARK    1  A    between atoms: C_1  and  C_2
REMARK    2  A    between atoms: C_10  and  C_11
REMARK    3  A    between atoms: C_13  and  N_14
REMARK    4  A    between atoms: C_15  and  C_17
REMARK                            x       y       z     vdW  Elec       q    Type
REMARK                         _______ _______ _______ _____ _____    ______ ____
ROOT
ATOM      1  C   UNL     1       8.106   5.253  11.962  0.00  0.00    +0.000 C 
ATOM      2  C   UNL     1       7.151   4.898  13.066  0.00  0.00    +0.000 A 
ATOM      3  C   UNL     1       5.983   4.170  12.832  0.00  0.00    +0.000 A 
ATOM      4  C   UNL     1       5.130   3.844  13.896  0.00  0.00    +0.000 A 
ATOM      5  C   UNL     1       5.427   4.244  15.223  0.00  0.00    +0.000 A 
ATOM      6  C   UNL     1       6.600   4.975  15.454  0.00  0.00    +0.000 A 
ATOM      7  C   UNL     1       7.454   5.287  14.374  0.00  0.00    +0.000 A 
ATOM      8  N   UNL     1       6.931   5.376  16.763  0.00  0.00    +0.000 N 
ATOM      9  O   UNL     1       8.013   6.022  16.958  0.00  0.00    +0.000 OA
ATOM     10  C   UNL     1       6.098   5.058  17.831  0.00  0.00    +0.000 A 
ATOM     11  C   UNL     1       4.895   4.367  17.621  0.00  0.00    +0.000 A 
ATOM     12  N   UNL     1       4.591   3.936  16.314  0.00  0.00    +0.000 N 
ATOM     13  O   UNL     1       3.509   3.254  16.167  0.00  0.00    +0.000 OA
ENDROOT
BRANCH  11  14
ATOM     14  N   UNL     1       3.926   3.987  18.538  0.00  0.00    +0.000 N 
ATOM     15  C   UNL     1       4.024   2.963  19.524  0.00  0.00    +0.000 C 
ATOM     16  O   UNL     1       5.069   2.349  19.643  0.00  0.00    +0.000 OA
ATOM     17  H   UNL     1       3.174   4.678  18.635  0.00  0.00    +0.000 HD
BRANCH  15  18
ATOM     18  C   UNL     1       2.874   2.823  20.379  0.00  0.00    +0.000 A 
ATOM     19  C   UNL     1       2.780   2.466  21.711  0.00  0.00    +0.000 A 
ATOM     20  C   UNL     1       1.419   2.597  22.075  0.00  0.00    +0.000 A 
ATOM     21  C   UNL     1       0.759   3.000  20.937  0.00  0.00    +0.000 A 
ATOM     22  O   UNL     1       1.628   3.125  19.895  0.00  0.00    +0.000 OA
ENDBRANCH  15  18
ENDBRANCH  11  14
BRANCH  10  23
ATOM     23  C   UNL     1       6.647   5.361  19.108  0.00  0.00    +0.000 C 
ATOM     24  N   UNL     1       7.161   5.589  20.119  0.00  0.00    +0.000 NA
ENDBRANCH  10  23
TORSDOF 3
ENDMDL
MODEL 8
REMARK VINA RESULT:      -5.9      4.354      9.369
REMARK  Name = 
REMARK  4 active torsions:
REMARK  status: ('A' for Active; 'I' for Inactive)
REMARK    1  A    between atoms: C_1  and  C_2
REMARK    2  A    between atoms: C_10  and  C_11
REMARK    3  A    between atoms: C_13  and  N_14
REMARK    4  A    between atoms: C_15  and  C_17
REMARK                            x       y       z     vdW  Elec       q    Type
REMARK                         _______ _______ _______ _____ _____    ______ ____
ROOT
ATOM      1  C   UNL     1       3.408   5.421  17.911  0.00  0.00    +0.000 C 
ATOM      2  C   UNL     1       2.662   6.407  18.766  0.00  0.00    +0.000 A 
ATOM      3  C   UNL     1       2.150   6.066  20.018  0.00  0.00    +0.000 A 
ATOM      4  C   UNL     1       1.477   7.024  20.791  0.00  0.00    +0.000 A 
ATOM      5  C   UNL     1       1.298   8.349  20.321  0.00  0.00    +0.000 A 
ATOM      6  C   UNL     1       1.814   8.689  19.063  0.00  0.00    +0.000 A 
ATOM      7  C   UNL     1       2.498   7.715  18.302  0.00  0.00    +0.000 A 
ATOM      8  N   UNL     1       1.666  10.001  18.574  0.00  0.00    +0.000 N 
ATOM      9  O   UNL     1       2.159  10.298  17.437  0.00  0.00    +0.000 OA
ATOM     10  C   UNL     1       1.004  10.965  19.328  0.00  0.00    +0.000 A 
ATOM     11  C   UNL     1       0.438  10.639  20.571  0.00  0.00    +0.000 A 
ATOM     12  N   UNL     1       0.626   9.335  21.069  0.00  0.00    +0.000 N 
ATOM     13  O   UNL     1       0.145   9.089  22.238  0.00  0.00    +0.000 OA
ENDROOT
BRANCH  11  14
ATOM     14  N   UNL     1      -0.277  11.440  21.449  0.00  0.00    +0.000 N 
ATOM     15  C   UNL     1      -1.548  12.045  21.227  0.00  0.00    +0.000 C 
ATOM     16  O   UNL     1      -2.133  11.835  20.180  0.00  0.00    +0.000 OA
ATOM     17  H   UNL     1       0.065  11.381  22.414  0.00  0.00    +0.000 HD
BRANCH  15  18
ATOM     18  C   UNL     1      -2.078  12.785  22.343  0.00  0.00    +0.000 A 
ATOM     19  C   UNL     1      -3.140  12.509  23.184  0.00  0.00    +0.000 A 
ATOM     20  C   UNL     1      -3.148  13.517  24.177  0.00  0.00    +0.000 A 
ATOM     21  C   UNL     1      -2.107  14.363  23.868  0.00  0.00    +0.000 A 
ATOM     22  O   UNL     1      -1.459  13.939  22.746  0.00  0.00    +0.000 OA
ENDBRANCH  15  18
ENDBRANCH  11  14
BRANCH  10  23
ATOM     23  C   UNL     1       1.093  12.282  18.797  0.00  0.00    +0.000 C 
ATOM     24  N   UNL     1       1.231  13.360  18.402  0.00  0.00    +0.000 NA
ENDBRANCH  10  23
TORSDOF 3
ENDMDL
MODEL 9
REMARK VINA RESULT:      -5.8      4.825      8.353
REMARK  Name = 
REMARK  4 active torsions:
REMARK  status: ('A' for Active; 'I' for Inactive)
REMARK    1  A    between atoms: C_1  and  C_2
REMARK    2  A    between atoms: C_10  and  C_11
REMARK    3  A    between atoms: C_13  and  N_14
REMARK    4  A    between atoms: C_15  and  C_17
REMARK                            x       y       z     vdW  Elec       q    Type
REMARK                         _______ _______ _______ _____ _____    ______ ____
ROOT
ATOM      1  C   UNL     1       2.016   4.858  20.739  0.00  0.00    +0.000 C 
ATOM      2  C   UNL     1       1.851   6.296  20.335  0.00  0.00    +0.000 A 
ATOM      3  C   UNL     1       2.333   6.786  19.120  0.00  0.00    +0.000 A 
ATOM      4  C   UNL     1       2.140   8.131  18.775  0.00  0.00    +0.000 A 
ATOM      5  C   UNL     1       1.459   9.020  19.645  0.00  0.00    +0.000 A 
ATOM      6  C   UNL     1       0.976   8.525  20.864  0.00  0.00    +0.000 A 
ATOM      7  C   UNL     1       1.170   7.165  21.192  0.00  0.00    +0.000 A 
ATOM      8  N   UNL     1       0.283   9.378  21.743  0.00  0.00    +0.000 N 
ATOM      9  O   UNL     1      -0.167   8.906  22.838  0.00  0.00    +0.000 OA
ATOM     10  C   UNL     1       0.079  10.715  21.416  0.00  0.00    +0.000 A 
ATOM     11  C   UNL     1       0.592  11.247  20.223  0.00  0.00    +0.000 A 
ATOM     12  N   UNL     1       1.249  10.377  19.331  0.00  0.00    +0.000 N 
ATOM     13  O   UNL     1       1.655  10.886  18.221  0.00  0.00    +0.000 OA
ENDROOT
BRANCH  11  14
ATOM     14  N   UNL     1       0.522  12.544  19.736  0.00  0.00    +0.000 N 
ATOM     15  C   UNL     1       1.259  13.678  20.186  0.00  0.00    +0.000 C 
ATOM     16  O   UNL     1       2.085  13.538  21.070  0.00  0.00    +0.000 OA
ATOM     17  H   UNL     1       0.057  12.605  18.824  0.00  0.00    +0.000 HD
BRANCH  15  18
ATOM     18  C   UNL     1       1.019  14.895  19.456  0.00  0.00    +0.000 A 
ATOM     19  C   UNL     1      -0.157  15.435  18.969  0.00  0.00    +0.000 A 
ATOM     20  C   UNL     1       0.168  16.702  18.429  0.00  0.00    +0.000 A 
ATOM     21  C   UNL     1       1.526  16.848  18.595  0.00  0.00    +0.000 A 
ATOM     22  O   UNL     1       2.058  15.750  19.202  0.00  0.00    +0.000 OA
ENDBRANCH  15  18
ENDBRANCH  11  14
BRANCH  10  23
ATOM     23  C   UNL     1      -0.792  11.405  22.304  0.00  0.00    +0.000 C 
ATOM     24  N   UNL     1      -1.485  12.030  22.987  0.00  0.00    +0.000 NA
ENDBRANCH  10  23
TORSDOF 3
ENDMDL
