MODEL 1
REMARK VINA RESULT:      -7.9      0.000      0.000
REMARK  Name = 
REMARK  6 active torsions:
REMARK  status: ('A' for Active; 'I' for Inactive)
REMARK    1  A    between atoms: C_1  and  O_2
REMARK    2  A    between atoms: O_2  and  C_3
REMARK    3  A    between atoms: C_8  and  C_9
REMARK    4  A    between atoms: C_15  and  S_16
REMARK    5  A    between atoms: S_16  and  C_17
REMARK    6  A    between atoms: C_17  and  C_18
REMARK                            x       y       z     vdW  Elec       q    Type
REMARK                         _______ _______ _______ _____ _____    ______ ____
ROOT
ATOM      1  C   UNL     1       8.928  10.290  18.332  0.00  0.00    +0.000 C 
ATOM      2  O   UNL     1       8.266  10.733  17.397  0.00  0.00    +0.000 OA
ATOM      3  N   UNL     1       8.867   8.993  18.780  0.00  0.00    +0.000 N 
ATOM      4  C   UNL     1       7.981   8.106  18.224  0.00  0.00    +0.000 A 
ATOM      5  N   UNL     1       7.051   8.314  17.320  0.00  0.00    +0.000 NA
ATOM      6  N   UNL     1       6.360   7.166  17.016  0.00  0.00    +0.000 NA
ATOM      7  C   UNL     1       6.837   6.122  17.657  0.00  0.00    +0.000 A 
ATOM      8  S   UNL     1       8.101   6.487  18.760  0.00  0.00    +0.000 S 
ATOM      9  H   UNL     1       9.483   8.677  19.515  0.00  0.00    +0.000 HD
ENDROOT
BRANCH   1  15
ATOM     10  C   UNL     1       9.803  11.656  20.357  0.00  0.00    +0.000 A 
ATOM     11  C   UNL     1      10.766  12.558  20.845  0.00  0.00    +0.000 A 
ATOM     12  C   UNL     1      11.815  13.005  20.036  0.00  0.00    +0.000 A 
ATOM     13  C   UNL     1      11.913  12.569  18.723  0.00  0.00    +0.000 A 
ATOM     14  C   UNL     1      10.955  11.692  18.220  0.00  0.00    +0.000 A 
ATOM     15  C   UNL     1       9.887  11.229  19.018  0.00  0.00    +0.000 A 
BRANCH  10  17
ATOM     16  C   UNL     1       8.470  11.941  22.310  0.00  0.00    +0.000 C 
ATOM     17  O   UNL     1       8.762  11.194  21.128  0.00  0.00    +0.000 OA
ENDBRANCH  10  17
ENDBRANCH   1  15
BRANCH   7  18
ATOM     18  S   UNL     1       6.240   4.512  17.339  0.00  0.00    +0.000 S 
BRANCH  18  19
ATOM     19  C   UNL     1       4.577   4.894  16.694  0.00  0.00    +0.000 C 
BRANCH  19  20
ATOM     20  C   UNL     1       3.690   5.473  17.787  0.00  0.00    +0.000 C 
ATOM     21  O   UNL     1       3.405   4.787  18.768  0.00  0.00    +0.000 OA
ATOM     22  N   UNL     1       3.257   6.762  17.526  0.00  0.00    +0.000 N 
ATOM     23  C   UNL     1       2.493   7.537  18.404  0.00  0.00    +0.000 A 
ATOM     24  C   UNL     1       1.900   8.697  17.907  0.00  0.00    +0.000 A 
ATOM     25  C   UNL     1       1.132   9.488  18.765  0.00  0.00    +0.000 A 
ATOM     26  C   UNL     1       0.992   9.109  20.093  0.00  0.00    +0.000 A 
ATOM     27 CL   UNL     1       0.061  10.047  21.186  0.00  0.00    +0.000 Cl
ATOM     28  C   UNL     1       1.624   7.952  20.509  0.00  0.00    +0.000 A 
ATOM     29  N   UNL     1       2.366   7.168  19.693  0.00  0.00    +0.000 NA
ATOM     30  H   UNL     1       3.377   7.126  16.583  0.00  0.00    +0.000 HD
ENDBRANCH  19  20
ENDBRANCH  18  19
ENDBRANCH   7  18
TORSDOF 5
ENDMDL
MODEL 2
REMARK VINA RESULT:      -7.6      5.048      8.060
REMARK  Name = 
REMARK  6 active torsions:
REMARK  status: ('A' for Active; 'I' for Inactive)
REMARK    1  A    between atoms: C_1  and  O_2
REMARK    2  A    between atoms: O_2  and  C_3
REMARK    3  A    between atoms: C_8  and  C_9
REMARK    4  A    between atoms: C_15  and  S_16
REMARK    5  A    between atoms: S_16  and  C_17
REMARK    6  A    between atoms: C_17  and  C_18
REMARK                            x       y       z     vdW  Elec       q    Type
REMARK                         _______ _______ _______ _____ _____    ______ ____
ROOT
ATOM      1  C   UNL     1       4.176   6.204  18.226  0.00  0.00    +0.000 C 
ATOM      2  O   UNL     1       4.116   5.791  19.381  0.00  0.00    +0.000 OA
ATOM      3  N   UNL     1       3.455   7.271  17.746  0.00  0.00    +0.000 N 
ATOM      4  C   UNL     1       2.548   7.915  18.548  0.00  0.00    +0.000 A 
ATOM      5  N   UNL     1       2.158   7.621  19.768  0.00  0.00    +0.000 NA
ATOM      6  N   UNL     1       1.225   8.512  20.241  0.00  0.00    +0.000 NA
ATOM      7  C   UNL     1       0.993   9.481  19.382  0.00  0.00    +0.000 A 
ATOM      8  S   UNL     1       1.823   9.315  17.889  0.00  0.00    +0.000 S 
ATOM      9  H   UNL     1       3.595   7.598  16.801  0.00  0.00    +0.000 HD
ENDROOT
BRANCH   1  15
ATOM     10  C   UNL     1       6.514   5.695  17.224  0.00  0.00    +0.000 A 
ATOM     11  C   UNL     1       7.257   4.984  16.264  0.00  0.00    +0.000 A 
ATOM     12  C   UNL     1       6.641   4.077  15.398  0.00  0.00    +0.000 A 
ATOM     13  C   UNL     1       5.271   3.872  15.466  0.00  0.00    +0.000 A 
ATOM     14  C   UNL     1       4.519   4.585  16.398  0.00  0.00    +0.000 A 
ATOM     15  C   UNL     1       5.119   5.507  17.281  0.00  0.00    +0.000 A 
BRANCH  10  17
ATOM     16  C   UNL     1       7.563   7.812  17.522  0.00  0.00    +0.000 C 
ATOM     17  O   UNL     1       7.090   6.591  18.094  0.00  0.00    +0.000 OA
ENDBRANCH  10  17
ENDBRANCH   1  15
BRANCH   7  18
ATOM     18  S   UNL     1      -0.037  10.829  19.795  0.00  0.00    +0.000 S 
BRANCH  18  19
ATOM     19  C   UNL     1       0.369  11.032  21.562  0.00  0.00    +0.000 C 
BRANCH  19  20
ATOM     20  C   UNL     1      -0.896  11.161  22.398  0.00  0.00    +0.000 C 
ATOM     21  O   UNL     1      -0.993  10.545  23.458  0.00  0.00    +0.000 OA
ATOM     22  N   UNL     1      -1.859  11.976  21.825  0.00  0.00    +0.000 N 
ATOM     23  C   UNL     1      -3.076  12.311  22.426  0.00  0.00    +0.000 A 
ATOM     24  C   UNL     1      -4.056  12.905  21.632  0.00  0.00    +0.000 A 
ATOM     25  C   UNL     1      -5.281  13.250  22.209  0.00  0.00    +0.000 A 
ATOM     26  C   UNL     1      -5.486  13.007  23.560  0.00  0.00    +0.000 A 
ATOM     27 CL   UNL     1      -6.971  13.412  24.316  0.00  0.00    +0.000 Cl
ATOM     28  C   UNL     1      -4.457  12.426  24.280  0.00  0.00    +0.000 A 
ATOM     29  N   UNL     1      -3.267  12.079  23.738  0.00  0.00    +0.000 NA
ATOM     30  H   UNL     1      -1.744  12.239  20.849  0.00  0.00    +0.000 HD
ENDBRANCH  19  20
ENDBRANCH  18  19
ENDBRANCH   7  18
TORSDOF 5
ENDMDL
MODEL 3
REMARK VINA RESULT:      -7.4      5.957      8.877
REMARK  Name = 
REMARK  6 active torsions:
REMARK  status: ('A' for Active; 'I' for Inactive)
REMARK    1  A    between atoms: C_1  and  O_2
REMARK    2  A    between atoms: O_2  and  C_3
REMARK    3  A    between atoms: C_8  and  C_9
REMARK    4  A    between atoms: C_15  and  S_16
REMARK    5  A    between atoms: S_16  and  C_17
REMARK    6  A    between atoms: C_17  and  C_18
REMARK                            x       y       z     vdW  Elec       q    Type
REMARK                         _______ _______ _______ _____ _____    ______ ____
ROOT
ATOM      1  C   UNL     1       3.294   6.508  18.374  0.00  0.00    +0.000 C 
ATOM      2  O   UNL     1       3.297   6.184  19.559  0.00  0.00    +0.000 OA
ATOM      3  N   UNL     1       2.655   7.617  17.875  0.00  0.00    +0.000 N 
ATOM      4  C   UNL     1       1.905   8.417  18.698  0.00  0.00    +0.000 A 
ATOM      5  N   UNL     1       1.599   8.254  19.966  0.00  0.00    +0.000 NA
ATOM      6  N   UNL     1       0.819   9.279  20.445  0.00  0.00    +0.000 NA
ATOM      7  C   UNL     1       0.618  10.208  19.536  0.00  0.00    +0.000 A 
ATOM      8  S   UNL     1       1.282   9.845  17.995  0.00  0.00    +0.000 S 
ATOM      9  H   UNL     1       2.743   7.861  16.899  0.00  0.00    +0.000 HD
ENDROOT
BRANCH   1  15
ATOM     10  C   UNL     1       4.007   4.236  17.343  0.00  0.00    +0.000 A 
ATOM     11  C   UNL     1       4.806   3.568  16.399  0.00  0.00    +0.000 A 
ATOM     12  C   UNL     1       5.621   4.274  15.511  0.00  0.00    +0.000 A 
ATOM     13  C   UNL     1       5.661   5.660  15.558  0.00  0.00    +0.000 A 
ATOM     14  C   UNL     1       4.891   6.335  16.502  0.00  0.00    +0.000 A 
ATOM     15  C   UNL     1       4.062   5.642  17.410  0.00  0.00    +0.000 A 
BRANCH  10  17
ATOM     16  C   UNL     1       2.689   2.305  17.797  0.00  0.00    +0.000 C 
ATOM     17  O   UNL     1       3.190   3.571  18.228  0.00  0.00    +0.000 OA
ENDBRANCH  10  17
ENDBRANCH   1  15
BRANCH   7  18
ATOM     18  S   UNL     1      -0.212  11.693  19.928  0.00  0.00    +0.000 S 
BRANCH  18  19
ATOM     19  C   UNL     1       0.101  11.789  21.722  0.00  0.00    +0.000 C 
BRANCH  19  20
ATOM     20  C   UNL     1      -1.202  11.712  22.505  0.00  0.00    +0.000 C 
ATOM     21  O   UNL     1      -1.279  10.983  23.493  0.00  0.00    +0.000 OA
ATOM     22  N   UNL     1      -2.217  12.488  21.971  0.00  0.00    +0.000 N 
ATOM     23  C   UNL     1      -3.484  12.644  22.542  0.00  0.00    +0.000 A 
ATOM     24  C   UNL     1      -4.486  13.223  21.765  0.00  0.00    +0.000 A 
ATOM     25  C   UNL     1      -5.760  13.390  22.314  0.00  0.00    +0.000 A 
ATOM     26  C   UNL     1      -5.991  12.990  23.623  0.00  0.00    +0.000 A 
ATOM     27 CL   UNL     1      -7.538  13.175  24.343  0.00  0.00    +0.000 Cl
ATOM     28  C   UNL     1      -4.939  12.438  24.330  0.00  0.00    +0.000 A 
ATOM     29  N   UNL     1      -3.701  12.261  23.815  0.00  0.00    +0.000 NA
ATOM     30  H   UNL     1      -2.091  12.860  21.032  0.00  0.00    +0.000 HD
ENDBRANCH  19  20
ENDBRANCH  18  19
ENDBRANCH   7  18
TORSDOF 5
ENDMDL
MODEL 4
REMARK VINA RESULT:      -7.3      6.310      8.832
REMARK  Name = 
REMARK  6 active torsions:
REMARK  status: ('A' for Active; 'I' for Inactive)
REMARK    1  A    between atoms: C_1  and  O_2
REMARK    2  A    between atoms: O_2  and  C_3
REMARK    3  A    between atoms: C_8  and  C_9
REMARK    4  A    between atoms: C_15  and  S_16
REMARK    5  A    between atoms: S_16  and  C_17
REMARK    6  A    between atoms: C_17  and  C_18
REMARK                            x       y       z     vdW  Elec       q    Type
REMARK                         _______ _______ _______ _____ _____    ______ ____
ROOT
ATOM      1  C   UNL     1       2.114   8.302  19.008  0.00  0.00    +0.000 C 
ATOM      2  O   UNL     1       2.289   9.300  18.314  0.00  0.00    +0.000 OA
ATOM      3  N   UNL     1       1.350   8.276  20.150  0.00  0.00    +0.000 N 
ATOM      4  C   UNL     1       0.772   9.425  20.626  0.00  0.00    +0.000 A 
ATOM      5  N   UNL     1       0.893  10.660  20.194  0.00  0.00    +0.000 NA
ATOM      6  N   UNL     1       0.151  11.544  20.941  0.00  0.00    +0.000 NA
ATOM      7  C   UNL     1      -0.550  10.933  21.870  0.00  0.00    +0.000 A 
ATOM      8  S   UNL     1      -0.274   9.241  21.966  0.00  0.00    +0.000 S 
ATOM      9  H   UNL     1       1.197   7.408  20.643  0.00  0.00    +0.000 HD
ENDROOT
BRANCH   1  15
ATOM     10  C   UNL     1       2.504   5.739  19.096  0.00  0.00    +0.000 A 
ATOM     11  C   UNL     1       3.213   4.635  18.588  0.00  0.00    +0.000 A 
ATOM     12  C   UNL     1       4.137   4.783  17.550  0.00  0.00    +0.000 A 
ATOM     13  C   UNL     1       4.378   6.038  17.009  0.00  0.00    +0.000 A 
ATOM     14  C   UNL     1       3.698   7.143  17.516  0.00  0.00    +0.000 A 
ATOM     15  C   UNL     1       2.763   7.017  18.564  0.00  0.00    +0.000 A 
BRANCH  10  17
ATOM     16  C   UNL     1       1.234   4.298  20.504  0.00  0.00    +0.000 C 
ATOM     17  O   UNL     1       1.585   5.626  20.113  0.00  0.00    +0.000 OA
ENDBRANCH  10  17
ENDBRANCH   1  15
BRANCH   7  18
ATOM     18  S   UNL     1      -1.695  11.803  22.860  0.00  0.00    +0.000 S 
BRANCH  18  19
ATOM     19  C   UNL     1      -2.183  13.136  21.714  0.00  0.00    +0.000 C 
BRANCH  19  20
ATOM     20  C   UNL     1      -2.973  12.578  20.538  0.00  0.00    +0.000 C 
ATOM     21  O   UNL     1      -4.202  12.610  20.559  0.00  0.00    +0.000 OA
ATOM     22  N   UNL     1      -2.178  12.041  19.540  0.00  0.00    +0.000 N 
ATOM     23  C   UNL     1      -2.657  11.533  18.328  0.00  0.00    +0.000 A 
ATOM     24  C   UNL     1      -1.784  10.781  17.544  0.00  0.00    +0.000 A 
ATOM     25  C   UNL     1      -2.239  10.262  16.329  0.00  0.00    +0.000 A 
ATOM     26  C   UNL     1      -3.542  10.520  15.927  0.00  0.00    +0.000 A 
ATOM     27 CL   UNL     1      -4.149   9.907  14.444  0.00  0.00    +0.000 Cl
ATOM     28  C   UNL     1      -4.339  11.287  16.758  0.00  0.00    +0.000 A 
ATOM     29  N   UNL     1      -3.920  11.793  17.941  0.00  0.00    +0.000 NA
ATOM     30  H   UNL     1      -1.196  11.874  19.748  0.00  0.00    +0.000 HD
ENDBRANCH  19  20
ENDBRANCH  18  19
ENDBRANCH   7  18
TORSDOF 5
ENDMDL
MODEL 5
REMARK VINA RESULT:      -7.3      6.459      8.976
REMARK  Name = 
REMARK  6 active torsions:
REMARK  status: ('A' for Active; 'I' for Inactive)
REMARK    1  A    between atoms: C_1  and  O_2
REMARK    2  A    between atoms: O_2  and  C_3
REMARK    3  A    between atoms: C_8  and  C_9
REMARK    4  A    between atoms: C_15  and  S_16
REMARK    5  A    between atoms: S_16  and  C_17
REMARK    6  A    between atoms: C_17  and  C_18
REMARK                            x       y       z     vdW  Elec       q    Type
REMARK                         _______ _______ _______ _____ _____    ______ ____
ROOT
ATOM      1  C   UNL     1       2.068   7.192  20.085  0.00  0.00    +0.000 C 
ATOM      2  O   UNL     1       2.326   7.960  19.162  0.00  0.00    +0.000 OA
ATOM      3  N   UNL     1       1.297   7.520  21.174  0.00  0.00    +0.000 N 
ATOM      4  C   UNL     1       0.809   8.792  21.322  0.00  0.00    +0.000 A 
ATOM      5  N   UNL     1       1.030   9.861  20.591  0.00  0.00    +0.000 NA
ATOM      6  N   UNL     1       0.356  10.961  21.064  0.00  0.00    +0.000 NA
ATOM      7  C   UNL     1      -0.398  10.665  22.100  0.00  0.00    +0.000 A 
ATOM      8  S   UNL     1      -0.258   9.041  22.636  0.00  0.00    +0.000 S 
ATOM      9  H   UNL     1       1.072   6.823  21.869  0.00  0.00    +0.000 HD
ENDROOT
BRANCH   1  15
ATOM     10  C   UNL     1       3.716   5.382  19.226  0.00  0.00    +0.000 A 
ATOM     11  C   UNL     1       4.092   4.026  19.239  0.00  0.00    +0.000 A 
ATOM     12  C   UNL     1       3.417   3.096  20.033  0.00  0.00    +0.000 A 
ATOM     13  C   UNL     1       2.348   3.499  20.818  0.00  0.00    +0.000 A 
ATOM     14  C   UNL     1       1.950   4.834  20.800  0.00  0.00    +0.000 A 
ATOM     15  C   UNL     1       2.616   5.791  20.004  0.00  0.00    +0.000 A 
BRANCH  10  17
ATOM     16  C   UNL     1       4.704   5.931  17.129  0.00  0.00    +0.000 C 
ATOM     17  O   UNL     1       4.362   6.324  18.460  0.00  0.00    +0.000 OA
ENDBRANCH  10  17
ENDBRANCH   1  15
BRANCH   7  18
ATOM     18  S   UNL     1      -1.477  11.846  22.801  0.00  0.00    +0.000 S 
BRANCH  18  19
ATOM     19  C   UNL     1      -1.555  13.071  21.452  0.00  0.00    +0.000 C 
BRANCH  19  20
ATOM     20  C   UNL     1      -2.457  12.583  20.327  0.00  0.00    +0.000 C 
ATOM     21  O   UNL     1      -3.665  12.806  20.373  0.00  0.00    +0.000 OA
ATOM     22  N   UNL     1      -1.784  11.878  19.343  0.00  0.00    +0.000 N 
ATOM     23  C   UNL     1      -2.373  11.388  18.173  0.00  0.00    +0.000 A 
ATOM     24  C   UNL     1      -1.651  10.470  17.412  0.00  0.00    +0.000 A 
ATOM     25  C   UNL     1      -2.218   9.965  16.239  0.00  0.00    +0.000 A 
ATOM     26  C   UNL     1      -3.477  10.402  15.853  0.00  0.00    +0.000 A 
ATOM     27 CL   UNL     1      -4.216   9.815  14.420  0.00  0.00    +0.000 Cl
ATOM     28  C   UNL     1      -4.121  11.326  16.657  0.00  0.00    +0.000 A 
ATOM     29  N   UNL     1      -3.592  11.821  17.800  0.00  0.00    +0.000 NA
ATOM     30  H   UNL     1      -0.834  11.571  19.538  0.00  0.00    +0.000 HD
ENDBRANCH  19  20
ENDBRANCH  18  19
ENDBRANCH   7  18
TORSDOF 5
ENDMDL
MODEL 6
REMARK VINA RESULT:      -7.2      5.431      8.271
REMARK  Name = 
REMARK  6 active torsions:
REMARK  status: ('A' for Active; 'I' for Inactive)
REMARK    1  A    between atoms: C_1  and  O_2
REMARK    2  A    between atoms: O_2  and  C_3
REMARK    3  A    between atoms: C_8  and  C_9
REMARK    4  A    between atoms: C_15  and  S_16
REMARK    5  A    between atoms: S_16  and  C_17
REMARK    6  A    between atoms: C_17  and  C_18
REMARK                            x       y       z     vdW  Elec       q    Type
REMARK                         _______ _______ _______ _____ _____    ______ ____
ROOT
ATOM      1  C   UNL     1       1.203   9.742  18.363  0.00  0.00    +0.000 C 
ATOM      2  O   UNL     1       1.937  10.049  17.428  0.00  0.00    +0.000 OA
ATOM      3  N   UNL     1       1.352   8.609  19.126  0.00  0.00    +0.000 N 
ATOM      4  C   UNL     1       2.329   7.694  18.829  0.00  0.00    +0.000 A 
ATOM      5  N   UNL     1       3.165   7.667  17.816  0.00  0.00    +0.000 NA
ATOM      6  N   UNL     1       4.002   6.578  17.866  0.00  0.00    +0.000 NA
ATOM      7  C   UNL     1       3.806   5.858  18.949  0.00  0.00    +0.000 A 
ATOM      8  S   UNL     1       2.511   6.403  19.935  0.00  0.00    +0.000 S 
ATOM      9  H   UNL     1       0.750   8.445  19.920  0.00  0.00    +0.000 HD
ENDROOT
BRANCH   1  15
ATOM     10  C   UNL     1       0.191  11.839  19.507  0.00  0.00    +0.000 A 
ATOM     11  C   UNL     1      -0.961  12.605  19.760  0.00  0.00    +0.000 A 
ATOM     12  C   UNL     1      -2.197  12.258  19.207  0.00  0.00    +0.000 A 
ATOM     13  C   UNL     1      -2.306  11.134  18.403  0.00  0.00    +0.000 A 
ATOM     14  C   UNL     1      -1.178  10.354  18.161  0.00  0.00    +0.000 A 
ATOM     15  C   UNL     1       0.079  10.684  18.710  0.00  0.00    +0.000 A 
BRANCH  10  17
ATOM     16  C   UNL     1       2.120  13.233  19.404  0.00  0.00    +0.000 C 
ATOM     17  O   UNL     1       1.423  12.156  20.032  0.00  0.00    +0.000 OA
ENDBRANCH  10  17
ENDBRANCH   1  15
BRANCH   7  18
ATOM     18  S   UNL     1       4.838   4.504  19.336  0.00  0.00    +0.000 S 
BRANCH  18  19
ATOM     19  C   UNL     1       6.480   5.289  19.212  0.00  0.00    +0.000 C 
BRANCH  19  20
ATOM     20  C   UNL     1       6.858   5.532  17.758  0.00  0.00    +0.000 C 
ATOM     21  O   UNL     1       7.567   6.492  17.463  0.00  0.00    +0.000 OA
ATOM     22  N   UNL     1       6.304   4.614  16.881  0.00  0.00    +0.000 N 
ATOM     23  C   UNL     1       6.555   4.577  15.505  0.00  0.00    +0.000 A 
ATOM     24  C   UNL     1       5.728   3.786  14.710  0.00  0.00    +0.000 A 
ATOM     25  C   UNL     1       5.958   3.732  13.333  0.00  0.00    +0.000 A 
ATOM     26  C   UNL     1       7.013   4.455  12.794  0.00  0.00    +0.000 A 
ATOM     27 CL   UNL     1       7.339   4.423  11.110  0.00  0.00    +0.000 Cl
ATOM     28  C   UNL     1       7.795   5.205  13.655  0.00  0.00    +0.000 A 
ATOM     29  N   UNL     1       7.584   5.275  14.989  0.00  0.00    +0.000 NA
ATOM     30  H   UNL     1       5.559   4.012  17.225  0.00  0.00    +0.000 HD
ENDBRANCH  19  20
ENDBRANCH  18  19
ENDBRANCH   7  18
TORSDOF 5
ENDMDL
MODEL 7
REMARK VINA RESULT:      -7.2      4.869      7.033
REMARK  Name = 
REMARK  6 active torsions:
REMARK  status: ('A' for Active; 'I' for Inactive)
REMARK    1  A    between atoms: C_1  and  O_2
REMARK    2  A    between atoms: O_2  and  C_3
REMARK    3  A    between atoms: C_8  and  C_9
REMARK    4  A    between atoms: C_15  and  S_16
REMARK    5  A    between atoms: S_16  and  C_17
REMARK    6  A    between atoms: C_17  and  C_18
REMARK                            x       y       z     vdW  Elec       q    Type
REMARK                         _______ _______ _______ _____ _____    ______ ____
ROOT
ATOM      1  C   UNL     1       1.780   8.263  18.678  0.00  0.00    +0.000 C 
ATOM      2  O   UNL     1       2.072   8.119  17.493  0.00  0.00    +0.000 OA
ATOM      3  N   UNL     1       1.616   7.228  19.567  0.00  0.00    +0.000 N 
ATOM      4  C   UNL     1       1.714   5.927  19.146  0.00  0.00    +0.000 A 
ATOM      5  N   UNL     1       1.870   5.454  17.930  0.00  0.00    +0.000 NA
ATOM      6  N   UNL     1       1.923   4.080  17.912  0.00  0.00    +0.000 NA
ATOM      7  C   UNL     1       1.867   3.572  19.124  0.00  0.00    +0.000 A 
ATOM      8  S   UNL     1       1.640   4.733  20.368  0.00  0.00    +0.000 S 
ATOM      9  H   UNL     1       1.435   7.417  20.542  0.00  0.00    +0.000 HD
ENDROOT
BRANCH   1  15
ATOM     10  C   UNL     1       1.136  10.026  20.468  0.00  0.00    +0.000 A 
ATOM     11  C   UNL     1       1.012  11.390  20.791  0.00  0.00    +0.000 A 
ATOM     12  C   UNL     1       1.384  12.385  19.883  0.00  0.00    +0.000 A 
ATOM     13  C   UNL     1       1.873  12.036  18.633  0.00  0.00    +0.000 A 
ATOM     14  C   UNL     1       1.982  10.690  18.292  0.00  0.00    +0.000 A 
ATOM     15  C   UNL     1       1.611   9.669  19.191  0.00  0.00    +0.000 A 
BRANCH  10  17
ATOM     16  C   UNL     1      -0.295   9.308  22.232  0.00  0.00    +0.000 C 
ATOM     17  O   UNL     1       0.784   9.022  21.340  0.00  0.00    +0.000 OA
ENDBRANCH  10  17
ENDBRANCH   1  15
BRANCH   7  18
ATOM     18  S   UNL     1       2.067   1.859  19.398  0.00  0.00    +0.000 S 
BRANCH  18  19
ATOM     19  C   UNL     1       3.709   1.591  18.649  0.00  0.00    +0.000 C 
BRANCH  19  20
ATOM     20  C   UNL     1       4.658   2.728  19.001  0.00  0.00    +0.000 C 
ATOM     21  O   UNL     1       5.192   2.757  20.108  0.00  0.00    +0.000 OA
ATOM     22  N   UNL     1       4.794   3.668  17.993  0.00  0.00    +0.000 N 
ATOM     23  C   UNL     1       5.659   4.766  18.041  0.00  0.00    +0.000 A 
ATOM     24  C   UNL     1       5.495   5.771  17.090  0.00  0.00    +0.000 A 
ATOM     25  C   UNL     1       6.347   6.878  17.118  0.00  0.00    +0.000 A 
ATOM     26  C   UNL     1       7.344   6.942  18.081  0.00  0.00    +0.000 A 
ATOM     27 CL   UNL     1       8.416   8.280  18.157  0.00  0.00    +0.000 Cl
ATOM     28  C   UNL     1       7.448   5.896  18.980  0.00  0.00    +0.000 A 
ATOM     29  N   UNL     1       6.629   4.819  18.974  0.00  0.00    +0.000 NA
ATOM     30  H   UNL     1       4.128   3.646  17.224  0.00  0.00    +0.000 HD
ENDBRANCH  19  20
ENDBRANCH  18  19
ENDBRANCH   7  18
TORSDOF 5
ENDMDL
MODEL 8
REMARK VINA RESULT:      -7.1      5.984      9.033
REMARK  Name = 
REMARK  6 active torsions:
REMARK  status: ('A' for Active; 'I' for Inactive)
REMARK    1  A    between atoms: C_1  and  O_2
REMARK    2  A    between atoms: O_2  and  C_3
REMARK    3  A    between atoms: C_8  and  C_9
REMARK    4  A    between atoms: C_15  and  S_16
REMARK    5  A    between atoms: S_16  and  C_17
REMARK    6  A    between atoms: C_17  and  C_18
REMARK                            x       y       z     vdW  Elec       q    Type
REMARK                         _______ _______ _______ _____ _____    ______ ____
ROOT
ATOM      1  C   UNL     1       3.236   6.332  18.695  0.00  0.00    +0.000 C 
ATOM      2  O   UNL     1       3.290   5.812  19.806  0.00  0.00    +0.000 OA
ATOM      3  N   UNL     1       2.586   7.512  18.422  0.00  0.00    +0.000 N 
ATOM      4  C   UNL     1       1.884   8.163  19.404  0.00  0.00    +0.000 A 
ATOM      5  N   UNL     1       1.636   7.788  20.639  0.00  0.00    +0.000 NA
ATOM      6  N   UNL     1       0.892   8.720  21.322  0.00  0.00    +0.000 NA
ATOM      7  C   UNL     1       0.658   9.790  20.594  0.00  0.00    +0.000 A 
ATOM      8  S   UNL     1       1.245   9.692  18.984  0.00  0.00    +0.000 S 
ATOM      9  H   UNL     1       2.630   7.917  17.498  0.00  0.00    +0.000 HD
ENDROOT
BRANCH   1  15
ATOM     10  C   UNL     1       3.883   4.264  17.269  0.00  0.00    +0.000 A 
ATOM     11  C   UNL     1       4.628   3.763  16.186  0.00  0.00    +0.000 A 
ATOM     12  C   UNL     1       5.398   4.610  15.384  0.00  0.00    +0.000 A 
ATOM     13  C   UNL     1       5.446   5.969  15.656  0.00  0.00    +0.000 A 
ATOM     14  C   UNL     1       4.730   6.476  16.738  0.00  0.00    +0.000 A 
ATOM     15  C   UNL     1       3.948   5.640  17.562  0.00  0.00    +0.000 A 
BRANCH  10  17
ATOM     16  C   UNL     1       3.395   2.059  18.027  0.00  0.00    +0.000 C 
ATOM     17  O   UNL     1       3.112   3.459  18.075  0.00  0.00    +0.000 OA
ENDBRANCH  10  17
ENDBRANCH   1  15
BRANCH   7  18
ATOM     18  S   UNL     1      -0.136  11.190  21.271  0.00  0.00    +0.000 S 
BRANCH  18  19
ATOM     19  C   UNL     1      -1.100  11.757  19.829  0.00  0.00    +0.000 C 
BRANCH  19  20
ATOM     20  C   UNL     1      -2.518  12.128  20.237  0.00  0.00    +0.000 C 
ATOM     21  O   UNL     1      -3.396  12.216  19.380  0.00  0.00    +0.000 OA
ATOM     22  N   UNL     1      -2.661  12.369  21.593  0.00  0.00    +0.000 N 
ATOM     23  C   UNL     1      -3.874  12.656  22.227  0.00  0.00    +0.000 A 
ATOM     24  C   UNL     1      -3.831  13.143  23.532  0.00  0.00    +0.000 A 
ATOM     25  C   UNL     1      -5.030  13.438  24.187  0.00  0.00    +0.000 A 
ATOM     26  C   UNL     1      -6.232  13.224  23.527  0.00  0.00    +0.000 A 
ATOM     27 CL   UNL     1      -7.731  13.568  24.287  0.00  0.00    +0.000 Cl
ATOM     28  C   UNL     1      -6.187  12.724  22.238  0.00  0.00    +0.000 A 
ATOM     29  N   UNL     1      -5.037  12.440  21.584  0.00  0.00    +0.000 NA
ATOM     30  H   UNL     1      -1.817  12.483  22.150  0.00  0.00    +0.000 HD
ENDBRANCH  19  20
ENDBRANCH  18  19
ENDBRANCH   7  18
TORSDOF 5
ENDMDL
MODEL 9
REMARK VINA RESULT:      -7.1      5.930      7.675
REMARK  Name = 
REMARK  6 active torsions:
REMARK  status: ('A' for Active; 'I' for Inactive)
REMARK    1  A    between atoms: C_1  and  O_2
REMARK    2  A    between atoms: O_2  and  C_3
REMARK    3  A    between atoms: C_8  and  C_9
REMARK    4  A    between atoms: C_15  and  S_16
REMARK    5  A    between atoms: S_16  and  C_17
REMARK    6  A    between atoms: C_17  and  C_18
REMARK                            x       y       z     vdW  Elec       q    Type
REMARK                         _______ _______ _______ _____ _____    ______ ____
ROOT
ATOM      1  C   UNL     1       1.525   9.442  19.103  0.00  0.00    +0.000 C 
ATOM      2  O   UNL     1       2.043   9.480  17.990  0.00  0.00    +0.000 OA
ATOM      3  N   UNL     1       1.407   8.305  19.865  0.00  0.00    +0.000 N 
ATOM      4  C   UNL     1       1.822   7.093  19.375  0.00  0.00    +0.000 A 
ATOM      5  N   UNL     1       2.276   6.789  18.180  0.00  0.00    +0.000 NA
ATOM      6  N   UNL     1       2.590   5.455  18.070  0.00  0.00    +0.000 NA
ATOM      7  C   UNL     1       2.419   4.817  19.207  0.00  0.00    +0.000 A 
ATOM      8  S   UNL     1       1.761   5.779  20.467  0.00  0.00    +0.000 S 
ATOM      9  H   UNL     1       1.025   8.353  20.798  0.00  0.00    +0.000 HD
ENDROOT
BRANCH   1  15
ATOM     10  C   UNL     1       0.807  11.004  21.046  0.00  0.00    +0.000 A 
ATOM     11  C   UNL     1       0.290  12.256  21.424  0.00  0.00    +0.000 A 
ATOM     12  C   UNL     1       0.006  13.239  20.473  0.00  0.00    +0.000 A 
ATOM     13  C   UNL     1       0.222  12.985  19.127  0.00  0.00    +0.000 A 
ATOM     14  C   UNL     1       0.714  11.742  18.736  0.00  0.00    +0.000 A 
ATOM     15  C   UNL     1       1.006  10.734  19.678  0.00  0.00    +0.000 A 
BRANCH  10  17
ATOM     16  C   UNL     1       0.071   9.691  22.893  0.00  0.00    +0.000 C 
ATOM     17  O   UNL     1       1.102  10.017  21.958  0.00  0.00    +0.000 OA
ENDBRANCH  10  17
ENDBRANCH   1  15
BRANCH   7  18
ATOM     18  S   UNL     1       2.888   3.144  19.386  0.00  0.00    +0.000 S 
BRANCH  18  19
ATOM     19  C   UNL     1       4.615   3.340  19.942  0.00  0.00    +0.000 C 
BRANCH  19  20
ATOM     20  C   UNL     1       5.459   4.006  18.865  0.00  0.00    +0.000 C 
ATOM     21  O   UNL     1       6.335   4.808  19.185  0.00  0.00    +0.000 OA
ATOM     22  N   UNL     1       5.108   3.638  17.577  0.00  0.00    +0.000 N 
ATOM     23  C   UNL     1       5.775   4.055  16.421  0.00  0.00    +0.000 A 
ATOM     24  C   UNL     1       5.154   3.835  15.192  0.00  0.00    +0.000 A 
ATOM     25  C   UNL     1       5.801   4.242  14.023  0.00  0.00    +0.000 A 
ATOM     26  C   UNL     1       7.050   4.840  14.112  0.00  0.00    +0.000 A 
ATOM     27 CL   UNL     1       7.886   5.356  12.706  0.00  0.00    +0.000 Cl
ATOM     28  C   UNL     1       7.603   5.008  15.369  0.00  0.00    +0.000 A 
ATOM     29  N   UNL     1       6.990   4.627  16.513  0.00  0.00    +0.000 NA
ATOM     30  H   UNL     1       4.226   3.148  17.443  0.00  0.00    +0.000 HD
ENDBRANCH  19  20
ENDBRANCH  18  19
ENDBRANCH   7  18
TORSDOF 5
ENDMDL
