MODEL 1
REMARK VINA RESULT:      -8.8      0.000      0.000
REMARK  Name = 
REMARK  9 active torsions:
REMARK  status: ('A' for Active; 'I' for Inactive)
REMARK    1  A    between atoms: C_2  and  C_3
REMARK    2  A    between atoms: C_2  and  C_14
REMARK    3  A    between atoms: C_3  and  C_4
REMARK    4  A    between atoms: N_16  and  C_17
REMARK    5  A    between atoms: C_17  and  C_18
REMARK    6  A    between atoms: C_18  and  C_19
REMARK    7  A    between atoms: C_22  and  O_23
REMARK    8  A    between atoms: O_23  and  C_24
REMARK    9  A    between atoms: C_24  and  C_25
REMARK                            x       y       z     vdW  Elec       q    Type
REMARK                         _______ _______ _______ _____ _____    ______ ____
ROOT
ATOM      1  C   UNL     1       7.386   6.019  18.355  0.00  0.00    +0.000 C 
ATOM      2  O   UNL     1       7.964   5.596  19.344  0.00  0.00    +0.000 OA
ATOM      3  N   UNL     1       7.583   7.266  17.803  0.00  0.00    +0.000 N 
ATOM      4  H   UNL     1       6.984   7.546  17.031  0.00  0.00    +0.000 HD
ENDROOT
BRANCH   1   6
ATOM      5  O   UNL     1       6.708   4.194  16.981  0.00  0.00    +0.000 OA
ATOM      6  C   UNL     1       6.338   5.156  17.643  0.00  0.00    +0.000 C 
BRANCH   6   7
ATOM      7  C   UNL     1       4.888   5.577  17.798  0.00  0.00    +0.000 C 
BRANCH   7   8
ATOM      8  C   UNL     1       3.942   4.476  18.324  0.00  0.00    +0.000 C 
ATOM      9  C   UNL     1       4.665   3.547  19.332  0.00  0.00    +0.000 C 
ATOM     10  C   UNL     1       3.700   2.481  19.881  0.00  0.00    +0.000 C 
ATOM     11  C   UNL     1       2.528   3.169  20.595  0.00  0.00    +0.000 C 
ATOM     12  C   UNL     1       1.777   4.083  19.612  0.00  0.00    +0.000 C 
ATOM     13  C   UNL     1       1.238   3.239  18.446  0.00  0.00    +0.000 C 
ATOM     14  C   UNL     1       2.401   2.544  17.724  0.00  0.00    +0.000 C 
ATOM     15  C   UNL     1       3.156   1.641  18.713  0.00  0.00    +0.000 C 
ATOM     16  C   UNL     1       3.366   3.607  17.177  0.00  0.00    +0.000 C 
ATOM     17  C   UNL     1       2.749   5.143  19.065  0.00  0.00    +0.000 C 
ENDBRANCH   7   8
ENDBRANCH   6   7
ENDBRANCH   1   6
BRANCH   3  18
ATOM     18  C   UNL     1       8.482   8.204  18.448  0.00  0.00    +0.000 C 
BRANCH  18  19
ATOM     19  C   UNL     1       8.243   9.670  18.069  0.00  0.00    +0.000 C 
BRANCH  19  20
ATOM     20  C   UNL     1       9.281  10.647  18.570  0.00  0.00    +0.000 A 
ATOM     21  C   UNL     1       9.442  10.902  19.935  0.00  0.00    +0.000 A 
ATOM     22  C   UNL     1      10.409  11.794  20.384  0.00  0.00    +0.000 A 
ATOM     23  C   UNL     1      11.287  12.395  19.484  0.00  0.00    +0.000 A 
ATOM     24  C   UNL     1      11.133  12.162  18.119  0.00  0.00    +0.000 A 
ATOM     25  C   UNL     1      10.141  11.287  17.663  0.00  0.00    +0.000 A 
BRANCH  23  26
ATOM     26  O   UNL     1      12.333  13.197  19.857  0.00  0.00    +0.000 OA
BRANCH  26  27
ATOM     27  C   UNL     1      11.928  14.495  20.305  0.00  0.00    +0.000 C 
BRANCH  27  28
ATOM     28  C   UNL     1      11.373  15.330  19.181  0.00  0.00    +0.000 A 
ATOM     29  C   UNL     1      10.033  15.729  19.150  0.00  0.00    +0.000 A 
ATOM     30  C   UNL     1       9.562  16.514  18.100  0.00  0.00    +0.000 A 
ATOM     31  C   UNL     1      10.427  16.918  17.082  0.00  0.00    +0.000 A 
ATOM     32  C   UNL     1      11.769  16.547  17.118  0.00  0.00    +0.000 A 
ATOM     33  C   UNL     1      12.242  15.763  18.165  0.00  0.00    +0.000 A 
ENDBRANCH  27  28
ENDBRANCH  26  27
ENDBRANCH  23  26
ENDBRANCH  19  20
ENDBRANCH  18  19
ENDBRANCH   3  18
TORSDOF 9
ENDMDL
MODEL 2
REMARK VINA RESULT:      -8.5      1.051      1.605
REMARK  Name = 
REMARK  9 active torsions:
REMARK  status: ('A' for Active; 'I' for Inactive)
REMARK    1  A    between atoms: C_2  and  C_3
REMARK    2  A    between atoms: C_2  and  C_14
REMARK    3  A    between atoms: C_3  and  C_4
REMARK    4  A    between atoms: N_16  and  C_17
REMARK    5  A    between atoms: C_17  and  C_18
REMARK    6  A    between atoms: C_18  and  C_19
REMARK    7  A    between atoms: C_22  and  O_23
REMARK    8  A    between atoms: O_23  and  C_24
REMARK    9  A    between atoms: C_24  and  C_25
REMARK                            x       y       z     vdW  Elec       q    Type
REMARK                         _______ _______ _______ _____ _____    ______ ____
ROOT
ATOM      1  C   UNL     1       7.189   5.719  18.836  0.00  0.00    +0.000 C 
ATOM      2  O   UNL     1       7.512   5.570  20.004  0.00  0.00    +0.000 OA
ATOM      3  N   UNL     1       7.577   6.777  18.043  0.00  0.00    +0.000 N 
ATOM      4  H   UNL     1       7.178   6.846  17.111  0.00  0.00    +0.000 HD
ENDROOT
BRANCH   1   6
ATOM      5  O   UNL     1       6.155   4.727  16.932  0.00  0.00    +0.000 OA
ATOM      6  C   UNL     1       6.269   4.702  18.151  0.00  0.00    +0.000 C 
BRANCH   6   7
ATOM      7  C   UNL     1       5.536   3.727  19.055  0.00  0.00    +0.000 C 
BRANCH   7   8
ATOM      8  C   UNL     1       3.998   3.861  19.047  0.00  0.00    +0.000 C 
ATOM      9  C   UNL     1       3.356   3.048  20.200  0.00  0.00    +0.000 C 
ATOM     10  C   UNL     1       1.827   3.225  20.205  0.00  0.00    +0.000 C 
ATOM     11  C   UNL     1       1.482   4.709  20.395  0.00  0.00    +0.000 C 
ATOM     12  C   UNL     1       2.090   5.540  19.252  0.00  0.00    +0.000 C 
ATOM     13  C   UNL     1       1.518   5.052  17.912  0.00  0.00    +0.000 C 
ATOM     14  C   UNL     1       1.854   3.567  17.710  0.00  0.00    +0.000 C 
ATOM     15  C   UNL     1       1.256   2.742  18.862  0.00  0.00    +0.000 C 
ATOM     16  C   UNL     1       3.381   3.389  17.706  0.00  0.00    +0.000 C 
ATOM     17  C   UNL     1       3.618   5.354  19.250  0.00  0.00    +0.000 C 
ENDBRANCH   7   8
ENDBRANCH   6   7
ENDBRANCH   1   6
BRANCH   3  18
ATOM     18  C   UNL     1       8.370   7.849  18.612  0.00  0.00    +0.000 C 
BRANCH  18  19
ATOM     19  C   UNL     1       8.162   9.212  17.943  0.00  0.00    +0.000 C 
BRANCH  19  20
ATOM     20  C   UNL     1       8.989  10.345  18.506  0.00  0.00    +0.000 A 
ATOM     21  C   UNL     1       9.302  11.470  17.736  0.00  0.00    +0.000 A 
ATOM     22  C   UNL     1      10.053  12.511  18.269  0.00  0.00    +0.000 A 
ATOM     23  C   UNL     1      10.444  12.487  19.606  0.00  0.00    +0.000 A 
ATOM     24  C   UNL     1      10.151  11.369  20.385  0.00  0.00    +0.000 A 
ATOM     25  C   UNL     1       9.420  10.306  19.841  0.00  0.00    +0.000 A 
BRANCH  23  26
ATOM     26  O   UNL     1      11.088  13.521  20.233  0.00  0.00    +0.000 OA
BRANCH  26  27
ATOM     27  C   UNL     1      12.225  14.009  19.511  0.00  0.00    +0.000 C 
BRANCH  27  28
ATOM     28  C   UNL     1      12.072  15.459  19.135  0.00  0.00    +0.000 A 
ATOM     29  C   UNL     1      12.188  16.482  20.082  0.00  0.00    +0.000 A 
ATOM     30  C   UNL     1      12.054  17.813  19.692  0.00  0.00    +0.000 A 
ATOM     31  C   UNL     1      11.820  18.133  18.354  0.00  0.00    +0.000 A 
ATOM     32  C   UNL     1      11.729  17.122  17.401  0.00  0.00    +0.000 A 
ATOM     33  C   UNL     1      11.861  15.793  17.787  0.00  0.00    +0.000 A 
ENDBRANCH  27  28
ENDBRANCH  26  27
ENDBRANCH  23  26
ENDBRANCH  19  20
ENDBRANCH  18  19
ENDBRANCH   3  18
TORSDOF 9
ENDMDL
MODEL 3
REMARK VINA RESULT:      -8.5      6.281      9.377
REMARK  Name = 
REMARK  9 active torsions:
REMARK  status: ('A' for Active; 'I' for Inactive)
REMARK    1  A    between atoms: C_2  and  C_3
REMARK    2  A    between atoms: C_2  and  C_14
REMARK    3  A    between atoms: C_3  and  C_4
REMARK    4  A    between atoms: N_16  and  C_17
REMARK    5  A    between atoms: C_17  and  C_18
REMARK    6  A    between atoms: C_18  and  C_19
REMARK    7  A    between atoms: C_22  and  O_23
REMARK    8  A    between atoms: O_23  and  C_24
REMARK    9  A    between atoms: C_24  and  C_25
REMARK                            x       y       z     vdW  Elec       q    Type
REMARK                         _______ _______ _______ _____ _____    ______ ____
ROOT
ATOM      1  C   UNL     1       2.091   3.999  18.713  0.00  0.00    +0.000 C 
ATOM      2  O   UNL     1       1.266   4.478  17.951  0.00  0.00    +0.000 OA
ATOM      3  N   UNL     1       2.213   4.328  20.046  0.00  0.00    +0.000 N 
ATOM      4  H   UNL     1       2.992   3.933  20.566  0.00  0.00    +0.000 HD
ENDROOT
BRANCH   1   6
ATOM      5  O   UNL     1       2.705   1.985  17.597  0.00  0.00    +0.000 OA
ATOM      6  C   UNL     1       3.107   2.969  18.207  0.00  0.00    +0.000 C 
BRANCH   6   7
ATOM      7  C   UNL     1       4.567   3.238  18.522  0.00  0.00    +0.000 C 
BRANCH   7   8
ATOM      8  C   UNL     1       5.223   4.349  17.675  0.00  0.00    +0.000 C 
ATOM      9  C   UNL     1       6.765   4.337  17.826  0.00  0.00    +0.000 C 
ATOM     10  C   UNL     1       7.408   5.422  16.944  0.00  0.00    +0.000 C 
ATOM     11  C   UNL     1       7.053   5.163  15.472  0.00  0.00    +0.000 C 
ATOM     12  C   UNL     1       5.527   5.190  15.287  0.00  0.00    +0.000 C 
ATOM     13  C   UNL     1       4.990   6.568  15.706  0.00  0.00    +0.000 C 
ATOM     14  C   UNL     1       5.340   6.841  17.176  0.00  0.00    +0.000 C 
ATOM     15  C   UNL     1       6.866   6.799  17.359  0.00  0.00    +0.000 C 
ATOM     16  C   UNL     1       4.700   5.758  18.058  0.00  0.00    +0.000 C 
ATOM     17  C   UNL     1       4.891   4.106  16.176  0.00  0.00    +0.000 C 
ENDBRANCH   7   8
ENDBRANCH   6   7
ENDBRANCH   1   6
BRANCH   3  18
ATOM     18  C   UNL     1       1.368   5.361  20.612  0.00  0.00    +0.000 C 
BRANCH  18  19
ATOM     19  C   UNL     1       2.093   6.677  20.913  0.00  0.00    +0.000 C 
BRANCH  19  20
ATOM     20  C   UNL     1       1.499   7.909  20.269  0.00  0.00    +0.000 A 
ATOM     21  C   UNL     1       0.629   8.748  20.971  0.00  0.00    +0.000 A 
ATOM     22  C   UNL     1       0.099   9.885  20.373  0.00  0.00    +0.000 A 
ATOM     23  C   UNL     1       0.486  10.251  19.085  0.00  0.00    +0.000 A 
ATOM     24  C   UNL     1       1.344   9.420  18.367  0.00  0.00    +0.000 A 
ATOM     25  C   UNL     1       1.855   8.259  18.958  0.00  0.00    +0.000 A 
BRANCH  23  26
ATOM     26  O   UNL     1       0.095  11.411  18.470  0.00  0.00    +0.000 OA
BRANCH  26  27
ATOM     27  C   UNL     1      -1.026  12.043  19.098  0.00  0.00    +0.000 C 
BRANCH  27  28
ATOM     28  C   UNL     1      -2.316  11.742  18.380  0.00  0.00    +0.000 A 
ATOM     29  C   UNL     1      -3.560  11.964  18.977  0.00  0.00    +0.000 A 
ATOM     30  C   UNL     1      -4.731  11.687  18.274  0.00  0.00    +0.000 A 
ATOM     31  C   UNL     1      -4.667  11.201  16.967  0.00  0.00    +0.000 A 
ATOM     32  C   UNL     1      -3.432  11.001  16.357  0.00  0.00    +0.000 A 
ATOM     33  C   UNL     1      -2.262  11.276  17.056  0.00  0.00    +0.000 A 
ENDBRANCH  27  28
ENDBRANCH  26  27
ENDBRANCH  23  26
ENDBRANCH  19  20
ENDBRANCH  18  19
ENDBRANCH   3  18
TORSDOF 9
ENDMDL
MODEL 4
REMARK VINA RESULT:      -8.5      1.986      2.690
REMARK  Name = 
REMARK  9 active torsions:
REMARK  status: ('A' for Active; 'I' for Inactive)
REMARK    1  A    between atoms: C_2  and  C_3
REMARK    2  A    between atoms: C_2  and  C_14
REMARK    3  A    between atoms: C_3  and  C_4
REMARK    4  A    between atoms: N_16  and  C_17
REMARK    5  A    between atoms: C_17  and  C_18
REMARK    6  A    between atoms: C_18  and  C_19
REMARK    7  A    between atoms: C_22  and  O_23
REMARK    8  A    between atoms: O_23  and  C_24
REMARK    9  A    between atoms: C_24  and  C_25
REMARK                            x       y       z     vdW  Elec       q    Type
REMARK                         _______ _______ _______ _____ _____    ______ ____
ROOT
ATOM      1  C   UNL     1       6.559   6.654  17.453  0.00  0.00    +0.000 C 
ATOM      2  O   UNL     1       5.587   7.361  17.240  0.00  0.00    +0.000 OA
ATOM      3  N   UNL     1       7.818   7.121  17.765  0.00  0.00    +0.000 N 
ATOM      4  H   UNL     1       8.573   6.446  17.836  0.00  0.00    +0.000 HD
ENDROOT
BRANCH   1   6
ATOM      5  O   UNL     1       6.709   4.572  16.305  0.00  0.00    +0.000 OA
ATOM      6  C   UNL     1       6.441   5.129  17.362  0.00  0.00    +0.000 C 
BRANCH   6   7
ATOM      7  C   UNL     1       5.972   4.404  18.611  0.00  0.00    +0.000 C 
BRANCH   7   8
ATOM      8  C   UNL     1       4.467   4.060  18.639  0.00  0.00    +0.000 C 
ATOM      9  C   UNL     1       4.200   2.768  19.451  0.00  0.00    +0.000 C 
ATOM     10  C   UNL     1       2.692   2.461  19.506  0.00  0.00    +0.000 C 
ATOM     11  C   UNL     1       1.955   3.629  20.178  0.00  0.00    +0.000 C 
ATOM     12  C   UNL     1       2.185   4.923  19.380  0.00  0.00    +0.000 C 
ATOM     13  C   UNL     1       1.653   4.739  17.950  0.00  0.00    +0.000 C 
ATOM     14  C   UNL     1       2.381   3.572  17.268  0.00  0.00    +0.000 C 
ATOM     15  C   UNL     1       2.159   2.283  18.075  0.00  0.00    +0.000 C 
ATOM     16  C   UNL     1       3.886   3.877  17.213  0.00  0.00    +0.000 C 
ATOM     17  C   UNL     1       3.694   5.221  19.325  0.00  0.00    +0.000 C 
ENDBRANCH   7   8
ENDBRANCH   6   7
ENDBRANCH   1   6
BRANCH   3  18
ATOM     18  C   UNL     1       8.070   8.549  17.785  0.00  0.00    +0.000 C 
BRANCH  18  19
ATOM     19  C   UNL     1       8.828   9.039  19.023  0.00  0.00    +0.000 C 
BRANCH  19  20
ATOM     20  C   UNL     1       9.218  10.499  19.010  0.00  0.00    +0.000 A 
ATOM     21  C   UNL     1       9.469  11.175  17.812  0.00  0.00    +0.000 A 
ATOM     22  C   UNL     1       9.814  12.521  17.813  0.00  0.00    +0.000 A 
ATOM     23  C   UNL     1       9.845  13.242  19.005  0.00  0.00    +0.000 A 
ATOM     24  C   UNL     1       9.609  12.582  20.210  0.00  0.00    +0.000 A 
ATOM     25  C   UNL     1       9.290  11.219  20.213  0.00  0.00    +0.000 A 
BRANCH  23  26
ATOM     26  O   UNL     1      10.068  14.592  19.077  0.00  0.00    +0.000 OA
BRANCH  26  27
ATOM     27  C   UNL     1       9.234  15.357  18.200  0.00  0.00    +0.000 C 
BRANCH  27  28
ATOM     28  C   UNL     1       7.780  15.264  18.583  0.00  0.00    +0.000 A 
ATOM     29  C   UNL     1       7.315  15.708  19.824  0.00  0.00    +0.000 A 
ATOM     30  C   UNL     1       5.960  15.619  20.135  0.00  0.00    +0.000 A 
ATOM     31  C   UNL     1       5.058  15.100  19.204  0.00  0.00    +0.000 A 
ATOM     32  C   UNL     1       5.510  14.680  17.956  0.00  0.00    +0.000 A 
ATOM     33  C   UNL     1       6.861  14.767  17.643  0.00  0.00    +0.000 A 
ENDBRANCH  27  28
ENDBRANCH  26  27
ENDBRANCH  23  26
ENDBRANCH  19  20
ENDBRANCH  18  19
ENDBRANCH   3  18
TORSDOF 9
ENDMDL
MODEL 5
REMARK VINA RESULT:      -8.4      6.187      9.238
REMARK  Name = 
REMARK  9 active torsions:
REMARK  status: ('A' for Active; 'I' for Inactive)
REMARK    1  A    between atoms: C_2  and  C_3
REMARK    2  A    between atoms: C_2  and  C_14
REMARK    3  A    between atoms: C_3  and  C_4
REMARK    4  A    between atoms: N_16  and  C_17
REMARK    5  A    between atoms: C_17  and  C_18
REMARK    6  A    between atoms: C_18  and  C_19
REMARK    7  A    between atoms: C_22  and  O_23
REMARK    8  A    between atoms: O_23  and  C_24
REMARK    9  A    between atoms: C_24  and  C_25
REMARK                            x       y       z     vdW  Elec       q    Type
REMARK                         _______ _______ _______ _____ _____    ______ ____
ROOT
ATOM      1  C   UNL     1       2.335   3.226  18.948  0.00  0.00    +0.000 C 
ATOM      2  O   UNL     1       1.269   2.847  18.489  0.00  0.00    +0.000 OA
ATOM      3  N   UNL     1       2.474   4.214  19.899  0.00  0.00    +0.000 N 
ATOM      4  H   UNL     1       3.414   4.510  20.145  0.00  0.00    +0.000 HD
ENDROOT
BRANCH   1   6
ATOM      5  O   UNL     1       3.620   1.577  17.805  0.00  0.00    +0.000 OA
ATOM      6  C   UNL     1       3.651   2.613  18.457  0.00  0.00    +0.000 C 
BRANCH   6   7
ATOM      7  C   UNL     1       4.927   3.341  18.840  0.00  0.00    +0.000 C 
BRANCH   7   8
ATOM      8  C   UNL     1       5.406   4.397  17.821  0.00  0.00    +0.000 C 
ATOM      9  C   UNL     1       5.006   5.828  18.265  0.00  0.00    +0.000 C 
ATOM     10  C   UNL     1       5.526   6.874  17.262  0.00  0.00    +0.000 C 
ATOM     11  C   UNL     1       7.057   6.791  17.181  0.00  0.00    +0.000 C 
ATOM     12  C   UNL     1       7.483   5.386  16.723  0.00  0.00    +0.000 C 
ATOM     13  C   UNL     1       6.884   5.102  15.336  0.00  0.00    +0.000 C 
ATOM     14  C   UNL     1       5.352   5.184  15.403  0.00  0.00    +0.000 C 
ATOM     15  C   UNL     1       4.931   6.585  15.874  0.00  0.00    +0.000 C 
ATOM     16  C   UNL     1       4.832   4.141  16.404  0.00  0.00    +0.000 C 
ATOM     17  C   UNL     1       6.956   4.345  17.727  0.00  0.00    +0.000 C 
ENDBRANCH   7   8
ENDBRANCH   6   7
ENDBRANCH   1   6
BRANCH   3  18
ATOM     18  C   UNL     1       1.303   4.930  20.368  0.00  0.00    +0.000 C 
BRANCH  18  19
ATOM     19  C   UNL     1       1.617   6.172  21.209  0.00  0.00    +0.000 C 
BRANCH  19  20
ATOM     20  C   UNL     1       1.469   7.496  20.495  0.00  0.00    +0.000 A 
ATOM     21  C   UNL     1       1.967   7.684  19.202  0.00  0.00    +0.000 A 
ATOM     22  C   UNL     1       1.814   8.902  18.550  0.00  0.00    +0.000 A 
ATOM     23  C   UNL     1       1.093   9.936  19.146  0.00  0.00    +0.000 A 
ATOM     24  C   UNL     1       0.600   9.769  20.438  0.00  0.00    +0.000 A 
ATOM     25  C   UNL     1       0.779   8.553  21.108  0.00  0.00    +0.000 A 
BRANCH  23  26
ATOM     26  O   UNL     1       0.805  11.123  18.526  0.00  0.00    +0.000 OA
BRANCH  26  27
ATOM     27  C   UNL     1      -0.359  11.773  19.049  0.00  0.00    +0.000 C 
BRANCH  27  28
ATOM     28  C   UNL     1      -1.615  11.325  18.349  0.00  0.00    +0.000 A 
ATOM     29  C   UNL     1      -1.601  10.311  17.386  0.00  0.00    +0.000 A 
ATOM     30  C   UNL     1      -2.788   9.914  16.772  0.00  0.00    +0.000 A 
ATOM     31  C   UNL     1      -3.996  10.516  17.124  0.00  0.00    +0.000 A 
ATOM     32  C   UNL     1      -4.023  11.509  18.100  0.00  0.00    +0.000 A 
ATOM     33  C   UNL     1      -2.841  11.908  18.714  0.00  0.00    +0.000 A 
ENDBRANCH  27  28
ENDBRANCH  26  27
ENDBRANCH  23  26
ENDBRANCH  19  20
ENDBRANCH  18  19
ENDBRANCH   3  18
TORSDOF 9
ENDMDL
MODEL 6
REMARK VINA RESULT:      -8.4      6.591      9.944
REMARK  Name = 
REMARK  9 active torsions:
REMARK  status: ('A' for Active; 'I' for Inactive)
REMARK    1  A    between atoms: C_2  and  C_3
REMARK    2  A    between atoms: C_2  and  C_14
REMARK    3  A    between atoms: C_3  and  C_4
REMARK    4  A    between atoms: N_16  and  C_17
REMARK    5  A    between atoms: C_17  and  C_18
REMARK    6  A    between atoms: C_18  and  C_19
REMARK    7  A    between atoms: C_22  and  O_23
REMARK    8  A    between atoms: O_23  and  C_24
REMARK    9  A    between atoms: C_24  and  C_25
REMARK                            x       y       z     vdW  Elec       q    Type
REMARK                         _______ _______ _______ _____ _____    ______ ____
ROOT
ATOM      1  C   UNL     1       2.259   4.094  19.917  0.00  0.00    +0.000 C 
ATOM      2  O   UNL     1       1.117   3.859  19.554  0.00  0.00    +0.000 OA
ATOM      3  N   UNL     1       2.648   5.224  20.604  0.00  0.00    +0.000 N 
ATOM      4  H   UNL     1       3.640   5.357  20.778  0.00  0.00    +0.000 HD
ENDROOT
BRANCH   1   6
ATOM      5  O   UNL     1       3.966   2.544  20.517  0.00  0.00    +0.000 OA
ATOM      6  C   UNL     1       3.390   3.111  19.596  0.00  0.00    +0.000 C 
BRANCH   6   7
ATOM      7  C   UNL     1       3.735   2.921  18.130  0.00  0.00    +0.000 C 
BRANCH   7   8
ATOM      8  C   UNL     1       4.638   4.018  17.526  0.00  0.00    +0.000 C 
ATOM      9  C   UNL     1       3.835   5.311  17.233  0.00  0.00    +0.000 C 
ATOM     10  C   UNL     1       4.756   6.409  16.671  0.00  0.00    +0.000 C 
ATOM     11  C   UNL     1       5.856   6.729  17.694  0.00  0.00    +0.000 C 
ATOM     12  C   UNL     1       6.684   5.467  17.989  0.00  0.00    +0.000 C 
ATOM     13  C   UNL     1       7.330   4.970  16.686  0.00  0.00    +0.000 C 
ATOM     14  C   UNL     1       6.240   4.647  15.653  0.00  0.00    +0.000 C 
ATOM     15  C   UNL     1       5.407   5.908  15.371  0.00  0.00    +0.000 C 
ATOM     16  C   UNL     1       5.320   3.552  16.213  0.00  0.00    +0.000 C 
ATOM     17  C   UNL     1       5.756   4.373  18.545  0.00  0.00    +0.000 C 
ENDBRANCH   7   8
ENDBRANCH   6   7
ENDBRANCH   1   6
BRANCH   3  18
ATOM     18  C   UNL     1       1.680   6.267  20.878  0.00  0.00    +0.000 C 
BRANCH  18  19
ATOM     19  C   UNL     1       1.888   7.551  20.068  0.00  0.00    +0.000 C 
BRANCH  19  20
ATOM     20  C   UNL     1       1.204   8.783  20.614  0.00  0.00    +0.000 A 
ATOM     21  C   UNL     1       0.913   9.878  19.794  0.00  0.00    +0.000 A 
ATOM     22  C   UNL     1       0.272  11.000  20.305  0.00  0.00    +0.000 A 
ATOM     23  C   UNL     1      -0.160  11.024  21.630  0.00  0.00    +0.000 A 
ATOM     24  C   UNL     1       0.131   9.946  22.464  0.00  0.00    +0.000 A 
ATOM     25  C   UNL     1       0.803   8.827  21.958  0.00  0.00    +0.000 A 
BRANCH  23  26
ATOM     26  O   UNL     1      -0.894  12.044  22.177  0.00  0.00    +0.000 OA
BRANCH  26  27
ATOM     27  C   UNL     1      -2.093  12.338  21.452  0.00  0.00    +0.000 C 
BRANCH  27  28
ATOM     28  C   UNL     1      -3.274  12.520  22.370  0.00  0.00    +0.000 A 
ATOM     29  C   UNL     1      -3.203  12.211  23.732  0.00  0.00    +0.000 A 
ATOM     30  C   UNL     1      -4.313  12.408  24.552  0.00  0.00    +0.000 A 
ATOM     31  C   UNL     1      -5.495  12.928  24.020  0.00  0.00    +0.000 A 
ATOM     32  C   UNL     1      -5.565  13.262  22.670  0.00  0.00    +0.000 A 
ATOM     33  C   UNL     1      -4.460  13.066  21.850  0.00  0.00    +0.000 A 
ENDBRANCH  27  28
ENDBRANCH  26  27
ENDBRANCH  23  26
ENDBRANCH  19  20
ENDBRANCH  18  19
ENDBRANCH   3  18
TORSDOF 9
ENDMDL
MODEL 7
REMARK VINA RESULT:      -8.3      1.896      2.621
REMARK  Name = 
REMARK  9 active torsions:
REMARK  status: ('A' for Active; 'I' for Inactive)
REMARK    1  A    between atoms: C_2  and  C_3
REMARK    2  A    between atoms: C_2  and  C_14
REMARK    3  A    between atoms: C_3  and  C_4
REMARK    4  A    between atoms: N_16  and  C_17
REMARK    5  A    between atoms: C_17  and  C_18
REMARK    6  A    between atoms: C_18  and  C_19
REMARK    7  A    between atoms: C_22  and  O_23
REMARK    8  A    between atoms: O_23  and  C_24
REMARK    9  A    between atoms: C_24  and  C_25
REMARK                            x       y       z     vdW  Elec       q    Type
REMARK                         _______ _______ _______ _____ _____    ______ ____
ROOT
ATOM      1  C   UNL     1       7.157   5.655  18.865  0.00  0.00    +0.000 C 
ATOM      2  O   UNL     1       7.466   5.563  20.043  0.00  0.00    +0.000 OA
ATOM      3  N   UNL     1       7.533   6.687  18.033  0.00  0.00    +0.000 N 
ATOM      4  H   UNL     1       7.146   6.707  17.094  0.00  0.00    +0.000 HD
ENDROOT
BRANCH   1   6
ATOM      5  O   UNL     1       6.222   4.521  16.990  0.00  0.00    +0.000 OA
ATOM      6  C   UNL     1       6.272   4.588  18.212  0.00  0.00    +0.000 C 
BRANCH   6   7
ATOM      7  C   UNL     1       5.490   3.683  19.147  0.00  0.00    +0.000 C 
BRANCH   7   8
ATOM      8  C   UNL     1       3.959   3.879  19.114  0.00  0.00    +0.000 C 
ATOM      9  C   UNL     1       3.264   3.070  20.238  0.00  0.00    +0.000 C 
ATOM     10  C   UNL     1       1.742   3.307  20.220  0.00  0.00    +0.000 C 
ATOM     11  C   UNL     1       1.454   4.801  20.434  0.00  0.00    +0.000 C 
ATOM     12  C   UNL     1       2.116   5.629  19.320  0.00  0.00    +0.000 C 
ATOM     13  C   UNL     1       1.550   5.191  17.959  0.00  0.00    +0.000 C 
ATOM     14  C   UNL     1       1.830   3.698  17.733  0.00  0.00    +0.000 C 
ATOM     15  C   UNL     1       1.179   2.875  18.856  0.00  0.00    +0.000 C 
ATOM     16  C   UNL     1       3.348   3.459  17.753  0.00  0.00    +0.000 C 
ATOM     17  C   UNL     1       3.635   5.382  19.341  0.00  0.00    +0.000 C 
ENDBRANCH   7   8
ENDBRANCH   6   7
ENDBRANCH   1   6
BRANCH   3  18
ATOM     18  C   UNL     1       8.292   7.801  18.567  0.00  0.00    +0.000 C 
BRANCH  18  19
ATOM     19  C   UNL     1       8.117   9.113  17.794  0.00  0.00    +0.000 C 
BRANCH  19  20
ATOM     20  C   UNL     1       8.812  10.316  18.388  0.00  0.00    +0.000 A 
ATOM     21  C   UNL     1       8.778  11.562  17.756  0.00  0.00    +0.000 A 
ATOM     22  C   UNL     1       9.410  12.664  18.320  0.00  0.00    +0.000 A 
ATOM     23  C   UNL     1      10.028  12.563  19.565  0.00  0.00    +0.000 A 
ATOM     24  C   UNL     1      10.082  11.326  20.204  0.00  0.00    +0.000 A 
ATOM     25  C   UNL     1       9.471  10.208  19.623  0.00  0.00    +0.000 A 
BRANCH  23  26
ATOM     26  O   UNL     1      10.576  13.626  20.235  0.00  0.00    +0.000 OA
BRANCH  26  27
ATOM     27  C   UNL     1       9.966  13.875  21.507  0.00  0.00    +0.000 C 
BRANCH  27  28
ATOM     28  C   UNL     1       8.599  14.490  21.364  0.00  0.00    +0.000 A 
ATOM     29  C   UNL     1       7.462  13.897  21.922  0.00  0.00    +0.000 A 
ATOM     30  C   UNL     1       6.216  14.505  21.781  0.00  0.00    +0.000 A 
ATOM     31  C   UNL     1       6.099  15.715  21.094  0.00  0.00    +0.000 A 
ATOM     32  C   UNL     1       7.230  16.324  20.557  0.00  0.00    +0.000 A 
ATOM     33  C   UNL     1       8.474  15.720  20.696  0.00  0.00    +0.000 A 
ENDBRANCH  27  28
ENDBRANCH  26  27
ENDBRANCH  23  26
ENDBRANCH  19  20
ENDBRANCH  18  19
ENDBRANCH   3  18
TORSDOF 9
ENDMDL
MODEL 8
REMARK VINA RESULT:      -8.3      1.216      2.289
REMARK  Name = 
REMARK  9 active torsions:
REMARK  status: ('A' for Active; 'I' for Inactive)
REMARK    1  A    between atoms: C_2  and  C_3
REMARK    2  A    between atoms: C_2  and  C_14
REMARK    3  A    between atoms: C_3  and  C_4
REMARK    4  A    between atoms: N_16  and  C_17
REMARK    5  A    between atoms: C_17  and  C_18
REMARK    6  A    between atoms: C_18  and  C_19
REMARK    7  A    between atoms: C_22  and  O_23
REMARK    8  A    between atoms: O_23  and  C_24
REMARK    9  A    between atoms: C_24  and  C_25
REMARK                            x       y       z     vdW  Elec       q    Type
REMARK                         _______ _______ _______ _____ _____    ______ ____
ROOT
ATOM      1  C   UNL     1       6.642   6.052  16.886  0.00  0.00    +0.000 C 
ATOM      2  O   UNL     1       7.682   5.455  16.656  0.00  0.00    +0.000 OA
ATOM      3  N   UNL     1       6.565   7.295  17.477  0.00  0.00    +0.000 N 
ATOM      4  H   UNL     1       5.643   7.660  17.701  0.00  0.00    +0.000 HD
ENDROOT
BRANCH   1   6
ATOM      5  O   UNL     1       5.215   4.673  15.567  0.00  0.00    +0.000 OA
ATOM      6  C   UNL     1       5.292   5.418  16.536  0.00  0.00    +0.000 C 
BRANCH   6   7
ATOM      7  C   UNL     1       4.115   5.783  17.424  0.00  0.00    +0.000 C 
BRANCH   7   8
ATOM      8  C   UNL     1       3.489   4.601  18.194  0.00  0.00    +0.000 C 
ATOM      9  C   UNL     1       2.346   5.079  19.126  0.00  0.00    +0.000 C 
ATOM     10  C   UNL     1       1.703   3.885  19.856  0.00  0.00    +0.000 C 
ATOM     11  C   UNL     1       1.123   2.906  18.824  0.00  0.00    +0.000 C 
ATOM     12  C   UNL     1       2.240   2.398  17.897  0.00  0.00    +0.000 C 
ATOM     13  C   UNL     1       3.309   1.680  18.736  0.00  0.00    +0.000 C 
ATOM     14  C   UNL     1       3.896   2.649  19.774  0.00  0.00    +0.000 C 
ATOM     15  C   UNL     1       2.774   3.164  20.690  0.00  0.00    +0.000 C 
ATOM     16  C   UNL     1       4.537   3.841  19.047  0.00  0.00    +0.000 C 
ATOM     17  C   UNL     1       2.882   3.597  17.175  0.00  0.00    +0.000 C 
ENDBRANCH   7   8
ENDBRANCH   6   7
ENDBRANCH   1   6
BRANCH   3  18
ATOM     18  C   UNL     1       7.774   7.949  17.937  0.00  0.00    +0.000 C 
BRANCH  18  19
ATOM     19  C   UNL     1       7.902   9.415  17.508  0.00  0.00    +0.000 C 
BRANCH  19  20
ATOM     20  C   UNL     1       8.973  10.209  18.220  0.00  0.00    +0.000 A 
ATOM     21  C   UNL     1       9.842  11.049  17.518  0.00  0.00    +0.000 A 
ATOM     22  C   UNL     1      10.815  11.785  18.185  0.00  0.00    +0.000 A 
ATOM     23  C   UNL     1      10.893  11.755  19.576  0.00  0.00    +0.000 A 
ATOM     24  C   UNL     1      10.042  10.914  20.291  0.00  0.00    +0.000 A 
ATOM     25  C   UNL     1       9.081  10.150  19.618  0.00  0.00    +0.000 A 
BRANCH  23  26
ATOM     26  O   UNL     1      11.748  12.533  20.311  0.00  0.00    +0.000 OA
BRANCH  26  27
ATOM     27  C   UNL     1      12.152  13.731  19.640  0.00  0.00    +0.000 C 
BRANCH  27  28
ATOM     28  C   UNL     1      11.397  14.936  20.137  0.00  0.00    +0.000 A 
ATOM     29  C   UNL     1      11.457  16.167  19.478  0.00  0.00    +0.000 A 
ATOM     30  C   UNL     1      10.732  17.255  19.962  0.00  0.00    +0.000 A 
ATOM     31  C   UNL     1       9.931  17.116  21.097  0.00  0.00    +0.000 A 
ATOM     32  C   UNL     1       9.845  15.886  21.744  0.00  0.00    +0.000 A 
ATOM     33  C   UNL     1      10.568  14.799  21.264  0.00  0.00    +0.000 A 
ENDBRANCH  27  28
ENDBRANCH  26  27
ENDBRANCH  23  26
ENDBRANCH  19  20
ENDBRANCH  18  19
ENDBRANCH   3  18
TORSDOF 9
ENDMDL
MODEL 9
REMARK VINA RESULT:      -8.3      1.027      1.432
REMARK  Name = 
REMARK  9 active torsions:
REMARK  status: ('A' for Active; 'I' for Inactive)
REMARK    1  A    between atoms: C_2  and  C_3
REMARK    2  A    between atoms: C_2  and  C_14
REMARK    3  A    between atoms: C_3  and  C_4
REMARK    4  A    between atoms: N_16  and  C_17
REMARK    5  A    between atoms: C_17  and  C_18
REMARK    6  A    between atoms: C_18  and  C_19
REMARK    7  A    between atoms: C_22  and  O_23
REMARK    8  A    between atoms: O_23  and  C_24
REMARK    9  A    between atoms: C_24  and  C_25
REMARK                            x       y       z     vdW  Elec       q    Type
REMARK                         _______ _______ _______ _____ _____    ______ ____
ROOT
ATOM      1  C   UNL     1       6.659   6.544  17.576  0.00  0.00    +0.000 C 
ATOM      2  O   UNL     1       7.004   6.068  18.647  0.00  0.00    +0.000 OA
ATOM      3  N   UNL     1       7.230   7.653  16.990  0.00  0.00    +0.000 N 
ATOM      4  H   UNL     1       6.806   8.015  16.140  0.00  0.00    +0.000 HD
ENDROOT
BRANCH   1   6
ATOM      5  O   UNL     1       5.737   5.331  15.745  0.00  0.00    +0.000 OA
ATOM      6  C   UNL     1       5.499   5.923  16.791  0.00  0.00    +0.000 C 
BRANCH   6   7
ATOM      7  C   UNL     1       4.107   6.108  17.368  0.00  0.00    +0.000 C 
BRANCH   7   8
ATOM      8  C   UNL     1       3.536   4.875  18.099  0.00  0.00    +0.000 C 
ATOM      9  C   UNL     1       3.594   5.055  19.637  0.00  0.00    +0.000 C 
ATOM     10  C   UNL     1       2.983   3.836  20.352  0.00  0.00    +0.000 C 
ATOM     11  C   UNL     1       1.515   3.676  19.928  0.00  0.00    +0.000 C 
ATOM     12  C   UNL     1       1.428   3.474  18.406  0.00  0.00    +0.000 C 
ATOM     13  C   UNL     1       2.211   2.211  18.016  0.00  0.00    +0.000 C 
ATOM     14  C   UNL     1       3.681   2.357  18.436  0.00  0.00    +0.000 C 
ATOM     15  C   UNL     1       3.763   2.572  19.956  0.00  0.00    +0.000 C 
ATOM     16  C   UNL     1       4.292   3.574  17.724  0.00  0.00    +0.000 C 
ATOM     17  C   UNL     1       2.045   4.693  17.698  0.00  0.00    +0.000 C 
ENDBRANCH   7   8
ENDBRANCH   6   7
ENDBRANCH   1   6
BRANCH   3  18
ATOM     18  C   UNL     1       8.273   8.379  17.688  0.00  0.00    +0.000 C 
BRANCH  18  19
ATOM     19  C   UNL     1       7.847   9.758  18.203  0.00  0.00    +0.000 C 
BRANCH  19  20
ATOM     20  C   UNL     1       8.965  10.758  18.385  0.00  0.00    +0.000 A 
ATOM     21  C   UNL     1       9.118  11.844  17.518  0.00  0.00    +0.000 A 
ATOM     22  C   UNL     1      10.142  12.765  17.703  0.00  0.00    +0.000 A 
ATOM     23  C   UNL     1      10.992  12.663  18.802  0.00  0.00    +0.000 A 
ATOM     24  C   UNL     1      10.862  11.581  19.670  0.00  0.00    +0.000 A 
ATOM     25  C   UNL     1       9.849  10.636  19.468  0.00  0.00    +0.000 A 
BRANCH  23  26
ATOM     26  O   UNL     1      11.953  13.589  19.114  0.00  0.00    +0.000 OA
BRANCH  26  27
ATOM     27  C   UNL     1      11.462  14.680  19.901  0.00  0.00    +0.000 C 
BRANCH  27  28
ATOM     28  C   UNL     1      11.256  15.922  19.073  0.00  0.00    +0.000 A 
ATOM     29  C   UNL     1      10.011  16.242  18.522  0.00  0.00    +0.000 A 
ATOM     30  C   UNL     1       9.857  17.408  17.774  0.00  0.00    +0.000 A 
ATOM     31  C   UNL     1      10.940  18.269  17.585  0.00  0.00    +0.000 A 
ATOM     32  C   UNL     1      12.176  17.970  18.153  0.00  0.00    +0.000 A 
ATOM     33  C   UNL     1      12.333  16.807  18.898  0.00  0.00    +0.000 A 
ENDBRANCH  27  28
ENDBRANCH  26  27
ENDBRANCH  23  26
ENDBRANCH  19  20
ENDBRANCH  18  19
ENDBRANCH   3  18
TORSDOF 9
ENDMDL
