MODEL 1
REMARK VINA RESULT:      -7.1      0.000      0.000
REMARK  Name = 
REMARK  5 active torsions:
REMARK  status: ('A' for Active; 'I' for Inactive)
REMARK    1  A    between atoms: C_1  and  O_2
REMARK    2  A    between atoms: O_2  and  C_3
REMARK    3  A    between atoms: C_8  and  O_9
REMARK    4  A    between atoms: O_9  and  C_10
REMARK    5  A    between atoms: N_12  and  C_13
REMARK                            x       y       z     vdW  Elec       q    Type
REMARK                         _______ _______ _______ _____ _____    ______ ____
ROOT
ATOM      1  C   UNL     1       2.890   5.062  18.313  0.00  0.00    +0.000 C 
ATOM      2  O   UNL     1       1.816   4.730  17.837  0.00  0.00    +0.000 OA
ATOM      3  N   UNL     1       3.291   6.321  18.692  0.00  0.00    +0.000 N 
ATOM      4  H   UNL     1       4.259   6.370  18.978  0.00  0.00    +0.000 HD
ENDROOT
BRANCH   3   5
ATOM      5  C   UNL     1       2.497   7.465  18.857  0.00  0.00    +0.000 A 
ATOM      6  C   UNL     1       2.212   8.359  17.822  0.00  0.00    +0.000 A 
ATOM      7  C   UNL     1       1.383   9.463  18.045  0.00  0.00    +0.000 A 
ATOM      8  C   UNL     1       0.838   9.678  19.307  0.00  0.00    +0.000 A 
ATOM      9 CL   UNL     1      -0.173  11.043  19.581  0.00  0.00    +0.000 Cl
ATOM     10  C   UNL     1       1.105   8.793  20.347  0.00  0.00    +0.000 A 
ATOM     11  C   UNL     1       1.930   7.685  20.120  0.00  0.00    +0.000 A 
ENDBRANCH   3   5
BRANCH   1  12
ATOM     12  O   UNL     1       3.946   4.191  18.560  0.00  0.00    +0.000 OA
BRANCH  12  18
ATOM     13  C   UNL     1       6.301   4.595  17.992  0.00  0.00    +0.000 A 
ATOM     14  C   UNL     1       7.255   4.757  16.986  0.00  0.00    +0.000 A 
ATOM     15  C   UNL     1       6.913   4.556  15.644  0.00  0.00    +0.000 A 
ATOM     16  C   UNL     1       5.616   4.179  15.298  0.00  0.00    +0.000 A 
ATOM     17  C   UNL     1       4.652   4.008  16.289  0.00  0.00    +0.000 A 
ATOM     18  C   UNL     1       4.999   4.214  17.626  0.00  0.00    +0.000 A 
BRANCH  13  20
ATOM     19  C   UNL     1       7.660   5.701  19.586  0.00  0.00    +0.000 C 
ATOM     20  O   UNL     1       6.531   4.876  19.313  0.00  0.00    +0.000 OA
ENDBRANCH  13  20
ENDBRANCH  12  18
ENDBRANCH   1  12
TORSDOF 4
ENDMDL
MODEL 2
REMARK VINA RESULT:      -7.0      0.145      1.114
REMARK  Name = 
REMARK  5 active torsions:
REMARK  status: ('A' for Active; 'I' for Inactive)
REMARK    1  A    between atoms: C_1  and  O_2
REMARK    2  A    between atoms: O_2  and  C_3
REMARK    3  A    between atoms: C_8  and  O_9
REMARK    4  A    between atoms: O_9  and  C_10
REMARK    5  A    between atoms: N_12  and  C_13
REMARK                            x       y       z     vdW  Elec       q    Type
REMARK                         _______ _______ _______ _____ _____    ______ ____
ROOT
ATOM      1  C   UNL     1       2.946   4.980  18.281  0.00  0.00    +0.000 C 
ATOM      2  O   UNL     1       1.885   4.654  17.773  0.00  0.00    +0.000 OA
ATOM      3  N   UNL     1       3.321   6.227  18.722  0.00  0.00    +0.000 N 
ATOM      4  H   UNL     1       4.284   6.278  19.024  0.00  0.00    +0.000 HD
ENDROOT
BRANCH   3   5
ATOM      5  C   UNL     1       2.508   7.351  18.924  0.00  0.00    +0.000 A 
ATOM      6  C   UNL     1       1.901   7.651  20.145  0.00  0.00    +0.000 A 
ATOM      7  C   UNL     1       1.129   8.809  20.290  0.00  0.00    +0.000 A 
ATOM      8  C   UNL     1       0.960   9.669  19.209  0.00  0.00    +0.000 A 
ATOM      9 CL   UNL     1       0.002  11.088  19.387  0.00  0.00    +0.000 Cl
ATOM     10  C   UNL     1       1.564   9.389  17.988  0.00  0.00    +0.000 A 
ATOM     11  C   UNL     1       2.342   8.233  17.848  0.00  0.00    +0.000 A 
ENDBRANCH   3   5
BRANCH   1  12
ATOM     12  O   UNL     1       4.012   4.115  18.505  0.00  0.00    +0.000 OA
BRANCH  12  18
ATOM     13  C   UNL     1       6.329   4.687  17.928  0.00  0.00    +0.000 A 
ATOM     14  C   UNL     1       7.275   4.876  16.919  0.00  0.00    +0.000 A 
ATOM     15  C   UNL     1       6.964   4.577  15.589  0.00  0.00    +0.000 A 
ATOM     16  C   UNL     1       5.707   4.073  15.256  0.00  0.00    +0.000 A 
ATOM     17  C   UNL     1       4.751   3.873  16.251  0.00  0.00    +0.000 A 
ATOM     18  C   UNL     1       5.067   4.178  17.577  0.00  0.00    +0.000 A 
BRANCH  13  20
ATOM     19  C   UNL     1       7.778   5.661  19.529  0.00  0.00    +0.000 C 
ATOM     20  O   UNL     1       6.523   5.055  19.233  0.00  0.00    +0.000 OA
ENDBRANCH  13  20
ENDBRANCH  12  18
ENDBRANCH   1  12
TORSDOF 4
ENDMDL
MODEL 3
REMARK VINA RESULT:      -7.0      4.000      5.397
REMARK  Name = 
REMARK  5 active torsions:
REMARK  status: ('A' for Active; 'I' for Inactive)
REMARK    1  A    between atoms: C_1  and  O_2
REMARK    2  A    between atoms: O_2  and  C_3
REMARK    3  A    between atoms: C_8  and  O_9
REMARK    4  A    between atoms: O_9  and  C_10
REMARK    5  A    between atoms: N_12  and  C_13
REMARK                            x       y       z     vdW  Elec       q    Type
REMARK                         _______ _______ _______ _____ _____    ______ ____
ROOT
ATOM      1  C   UNL     1       4.555   3.483  17.168  0.00  0.00    +0.000 C 
ATOM      2  O   UNL     1       4.243   3.911  16.069  0.00  0.00    +0.000 OA
ATOM      3  N   UNL     1       5.525   3.964  18.015  0.00  0.00    +0.000 N 
ATOM      4  H   UNL     1       5.668   3.391  18.836  0.00  0.00    +0.000 HD
ENDROOT
BRANCH   3   5
ATOM      5  C   UNL     1       6.208   5.186  17.938  0.00  0.00    +0.000 A 
ATOM      6  C   UNL     1       5.813   6.237  17.109  0.00  0.00    +0.000 A 
ATOM      7  C   UNL     1       6.519   7.445  17.106  0.00  0.00    +0.000 A 
ATOM      8  C   UNL     1       7.626   7.603  17.934  0.00  0.00    +0.000 A 
ATOM      9 CL   UNL     1       8.499   9.086  17.921  0.00  0.00    +0.000 Cl
ATOM     10  C   UNL     1       8.029   6.568  18.772  0.00  0.00    +0.000 A 
ATOM     11  C   UNL     1       7.317   5.363  18.778  0.00  0.00    +0.000 A 
ENDBRANCH   3   5
BRANCH   1  12
ATOM     12  O   UNL     1       3.967   2.382  17.783  0.00  0.00    +0.000 OA
BRANCH  12  18
ATOM     13  C   UNL     1       3.580   2.592  20.198  0.00  0.00    +0.000 A 
ATOM     14  C   UNL     1       2.650   2.714  21.232  0.00  0.00    +0.000 A 
ATOM     15  C   UNL     1       1.291   2.886  20.948  0.00  0.00    +0.000 A 
ATOM     16  C   UNL     1       0.851   2.950  19.626  0.00  0.00    +0.000 A 
ATOM     17  C   UNL     1       1.766   2.835  18.581  0.00  0.00    +0.000 A 
ATOM     18  C   UNL     1       3.121   2.660  18.872  0.00  0.00    +0.000 A 
BRANCH  13  20
ATOM     19  C   UNL     1       5.200   1.044  20.965  0.00  0.00    +0.000 C 
ATOM     20  O   UNL     1       4.907   2.316  20.396  0.00  0.00    +0.000 OA
ENDBRANCH  13  20
ENDBRANCH  12  18
ENDBRANCH   1  12
TORSDOF 4
ENDMDL
MODEL 4
REMARK VINA RESULT:      -6.9      3.943      5.475
REMARK  Name = 
REMARK  5 active torsions:
REMARK  status: ('A' for Active; 'I' for Inactive)
REMARK    1  A    between atoms: C_1  and  O_2
REMARK    2  A    between atoms: O_2  and  C_3
REMARK    3  A    between atoms: C_8  and  O_9
REMARK    4  A    between atoms: O_9  and  C_10
REMARK    5  A    between atoms: N_12  and  C_13
REMARK                            x       y       z     vdW  Elec       q    Type
REMARK                         _______ _______ _______ _____ _____    ______ ____
ROOT
ATOM      1  C   UNL     1       4.460   3.651  17.314  0.00  0.00    +0.000 C 
ATOM      2  O   UNL     1       4.071   4.187  16.289  0.00  0.00    +0.000 OA
ATOM      3  N   UNL     1       5.514   4.025  18.113  0.00  0.00    +0.000 N 
ATOM      4  H   UNL     1       5.705   3.376  18.864  0.00  0.00    +0.000 HD
ENDROOT
BRANCH   3   5
ATOM      5  C   UNL     1       6.231   5.231  18.086  0.00  0.00    +0.000 A 
ATOM      6  C   UNL     1       7.432   5.426  18.770  0.00  0.00    +0.000 A 
ATOM      7  C   UNL     1       8.116   6.643  18.673  0.00  0.00    +0.000 A 
ATOM      8  C   UNL     1       7.596   7.670  17.891  0.00  0.00    +0.000 A 
ATOM      9 CL   UNL     1       8.434   9.168  17.781  0.00  0.00    +0.000 Cl
ATOM     10  C   UNL     1       6.404   7.489  17.197  0.00  0.00    +0.000 A 
ATOM     11  C   UNL     1       5.725   6.268  17.291  0.00  0.00    +0.000 A 
ENDBRANCH   3   5
BRANCH   1  12
ATOM     12  O   UNL     1       3.887   2.515  17.877  0.00  0.00    +0.000 OA
BRANCH  12  18
ATOM     13  C   UNL     1       3.539   2.593  20.306  0.00  0.00    +0.000 A 
ATOM     14  C   UNL     1       2.624   2.653  21.360  0.00  0.00    +0.000 A 
ATOM     15  C   UNL     1       1.260   2.829  21.107  0.00  0.00    +0.000 A 
ATOM     16  C   UNL     1       0.798   2.959  19.798  0.00  0.00    +0.000 A 
ATOM     17  C   UNL     1       1.697   2.907  18.734  0.00  0.00    +0.000 A 
ATOM     18  C   UNL     1       3.057   2.728  18.993  0.00  0.00    +0.000 A 
BRANCH  13  20
ATOM     19  C   UNL     1       5.178   1.071  21.084  0.00  0.00    +0.000 C 
ATOM     20  O   UNL     1       4.870   2.318  20.468  0.00  0.00    +0.000 OA
ENDBRANCH  13  20
ENDBRANCH  12  18
ENDBRANCH   1  12
TORSDOF 4
ENDMDL
MODEL 5
REMARK VINA RESULT:      -6.7      3.974      6.480
REMARK  Name = 
REMARK  5 active torsions:
REMARK  status: ('A' for Active; 'I' for Inactive)
REMARK    1  A    between atoms: C_1  and  O_2
REMARK    2  A    between atoms: O_2  and  C_3
REMARK    3  A    between atoms: C_8  and  O_9
REMARK    4  A    between atoms: O_9  and  C_10
REMARK    5  A    between atoms: N_12  and  C_13
REMARK                            x       y       z     vdW  Elec       q    Type
REMARK                         _______ _______ _______ _____ _____    ______ ____
ROOT
ATOM      1  C   UNL     1       4.911   5.100  18.375  0.00  0.00    +0.000 C 
ATOM      2  O   UNL     1       4.695   6.269  18.101  0.00  0.00    +0.000 OA
ATOM      3  N   UNL     1       5.313   4.096  17.527  0.00  0.00    +0.000 N 
ATOM      4  H   UNL     1       5.342   3.184  17.962  0.00  0.00    +0.000 HD
ENDROOT
BRANCH   3   5
ATOM      5  C   UNL     1       5.804   4.217  16.219  0.00  0.00    +0.000 A 
ATOM      6  C   UNL     1       5.098   3.795  15.091  0.00  0.00    +0.000 A 
ATOM      7  C   UNL     1       5.632   3.978  13.810  0.00  0.00    +0.000 A 
ATOM      8  C   UNL     1       6.875   4.581  13.656  0.00  0.00    +0.000 A 
ATOM      9 CL   UNL     1       7.533   4.795  12.080  0.00  0.00    +0.000 Cl
ATOM     10  C   UNL     1       7.588   5.014  14.769  0.00  0.00    +0.000 A 
ATOM     11  C   UNL     1       7.050   4.836  16.050  0.00  0.00    +0.000 A 
ENDBRANCH   3   5
BRANCH   1  12
ATOM     12  O   UNL     1       4.777   4.550  19.646  0.00  0.00    +0.000 OA
BRANCH  12  18
ATOM     13  C   UNL     1       3.117   2.753  19.854  0.00  0.00    +0.000 A 
ATOM     14  C   UNL     1       1.780   2.408  20.058  0.00  0.00    +0.000 A 
ATOM     15  C   UNL     1       0.835   3.388  20.380  0.00  0.00    +0.000 A 
ATOM     16  C   UNL     1       1.221   4.721  20.514  0.00  0.00    +0.000 A 
ATOM     17  C   UNL     1       2.553   5.083  20.319  0.00  0.00    +0.000 A 
ATOM     18  C   UNL     1       3.490   4.100  19.994  0.00  0.00    +0.000 A 
BRANCH  13  20
ATOM     19  C   UNL     1       3.766   1.127  18.259  0.00  0.00    +0.000 C 
ATOM     20  O   UNL     1       4.076   1.871  19.433  0.00  0.00    +0.000 OA
ENDBRANCH  13  20
ENDBRANCH  12  18
ENDBRANCH   1  12
TORSDOF 4
ENDMDL
MODEL 6
REMARK VINA RESULT:      -6.6      3.418      6.339
REMARK  Name = 
REMARK  5 active torsions:
REMARK  status: ('A' for Active; 'I' for Inactive)
REMARK    1  A    between atoms: C_1  and  O_2
REMARK    2  A    between atoms: O_2  and  C_3
REMARK    3  A    between atoms: C_8  and  O_9
REMARK    4  A    between atoms: O_9  and  C_10
REMARK    5  A    between atoms: N_12  and  C_13
REMARK                            x       y       z     vdW  Elec       q    Type
REMARK                         _______ _______ _______ _____ _____    ______ ____
ROOT
ATOM      1  C   UNL     1       5.914   5.049  18.722  0.00  0.00    +0.000 C 
ATOM      2  O   UNL     1       6.994   4.510  18.901  0.00  0.00    +0.000 OA
ATOM      3  N   UNL     1       5.356   5.443  17.529  0.00  0.00    +0.000 N 
ATOM      4  H   UNL     1       4.489   5.951  17.635  0.00  0.00    +0.000 HD
ENDROOT
BRANCH   3   5
ATOM      5  C   UNL     1       5.767   5.104  16.232  0.00  0.00    +0.000 A 
ATOM      6  C   UNL     1       6.998   5.481  15.692  0.00  0.00    +0.000 A 
ATOM      7  C   UNL     1       7.361   5.080  14.402  0.00  0.00    +0.000 A 
ATOM      8  C   UNL     1       6.491   4.300  13.647  0.00  0.00    +0.000 A 
ATOM      9 CL   UNL     1       6.936   3.816  12.057  0.00  0.00    +0.000 Cl
ATOM     10  C   UNL     1       5.264   3.909  14.173  0.00  0.00    +0.000 A 
ATOM     11  C   UNL     1       4.905   4.306  15.467  0.00  0.00    +0.000 A 
ENDBRANCH   3   5
BRANCH   1  12
ATOM     12  O   UNL     1       5.021   5.383  19.735  0.00  0.00    +0.000 OA
BRANCH  12  18
ATOM     13  C   UNL     1       2.567   5.425  19.765  0.00  0.00    +0.000 A 
ATOM     14  C   UNL     1       1.381   4.701  19.907  0.00  0.00    +0.000 A 
ATOM     15  C   UNL     1       1.410   3.305  20.005  0.00  0.00    +0.000 A 
ATOM     16  C   UNL     1       2.623   2.620  19.951  0.00  0.00    +0.000 A 
ATOM     17  C   UNL     1       3.816   3.327  19.805  0.00  0.00    +0.000 A 
ATOM     18  C   UNL     1       3.781   4.720  19.711  0.00  0.00    +0.000 A 
BRANCH  13  20
ATOM     19  C   UNL     1       2.397   7.430  18.516  0.00  0.00    +0.000 C 
ATOM     20  O   UNL     1       2.628   6.793  19.769  0.00  0.00    +0.000 OA
ENDBRANCH  13  20
ENDBRANCH  12  18
ENDBRANCH   1  12
TORSDOF 4
ENDMDL
MODEL 7
REMARK VINA RESULT:      -6.5      3.853      6.321
REMARK  Name = 
REMARK  5 active torsions:
REMARK  status: ('A' for Active; 'I' for Inactive)
REMARK    1  A    between atoms: C_1  and  O_2
REMARK    2  A    between atoms: O_2  and  C_3
REMARK    3  A    between atoms: C_8  and  O_9
REMARK    4  A    between atoms: O_9  and  C_10
REMARK    5  A    between atoms: N_12  and  C_13
REMARK                            x       y       z     vdW  Elec       q    Type
REMARK                         _______ _______ _______ _____ _____    ______ ____
ROOT
ATOM      1  C   UNL     1       4.380   5.761  18.123  0.00  0.00    +0.000 C 
ATOM      2  O   UNL     1       3.750   6.613  17.518  0.00  0.00    +0.000 OA
ATOM      3  N   UNL     1       5.224   4.808  17.604  0.00  0.00    +0.000 N 
ATOM      4  H   UNL     1       5.565   4.150  18.291  0.00  0.00    +0.000 HD
ENDROOT
BRANCH   3   5
ATOM      5  C   UNL     1       5.752   4.739  16.307  0.00  0.00    +0.000 A 
ATOM      6  C   UNL     1       7.036   5.178  15.976  0.00  0.00    +0.000 A 
ATOM      7  C   UNL     1       7.515   5.048  14.668  0.00  0.00    +0.000 A 
ATOM      8  C   UNL     1       6.710   4.479  13.687  0.00  0.00    +0.000 A 
ATOM      9 CL   UNL     1       7.299   4.329  12.077  0.00  0.00    +0.000 Cl
ATOM     10  C   UNL     1       5.432   4.029  14.002  0.00  0.00    +0.000 A 
ATOM     11  C   UNL     1       4.956   4.154  15.313  0.00  0.00    +0.000 A 
ENDBRANCH   3   5
BRANCH   1  12
ATOM     12  O   UNL     1       4.350   5.590  19.504  0.00  0.00    +0.000 OA
BRANCH  12  18
ATOM     13  C   UNL     1       3.463   3.401  20.175  0.00  0.00    +0.000 A 
ATOM     14  C   UNL     1       2.341   2.643  20.517  0.00  0.00    +0.000 A 
ATOM     15  C   UNL     1       1.093   3.254  20.673  0.00  0.00    +0.000 A 
ATOM     16  C   UNL     1       0.956   4.631  20.501  0.00  0.00    +0.000 A 
ATOM     17  C   UNL     1       2.066   5.404  20.165  0.00  0.00    +0.000 A 
ATOM     18  C   UNL     1       3.309   4.787  20.006  0.00  0.00    +0.000 A 
BRANCH  13  20
ATOM     19  C   UNL     1       4.735   1.444  19.771  0.00  0.00    +0.000 C 
ATOM     20  O   UNL     1       4.692   2.862  19.901  0.00  0.00    +0.000 OA
ENDBRANCH  13  20
ENDBRANCH  12  18
ENDBRANCH   1  12
TORSDOF 4
ENDMDL
MODEL 8
REMARK VINA RESULT:      -6.5      1.384      2.576
REMARK  Name = 
REMARK  5 active torsions:
REMARK  status: ('A' for Active; 'I' for Inactive)
REMARK    1  A    between atoms: C_1  and  O_2
REMARK    2  A    between atoms: O_2  and  C_3
REMARK    3  A    between atoms: C_8  and  O_9
REMARK    4  A    between atoms: O_9  and  C_10
REMARK    5  A    between atoms: N_12  and  C_13
REMARK                            x       y       z     vdW  Elec       q    Type
REMARK                         _______ _______ _______ _____ _____    ______ ____
ROOT
ATOM      1  C   UNL     1       2.874   5.502  18.176  0.00  0.00    +0.000 C 
ATOM      2  O   UNL     1       2.049   4.842  18.785  0.00  0.00    +0.000 OA
ATOM      3  N   UNL     1       2.898   6.865  17.997  0.00  0.00    +0.000 N 
ATOM      4  H   UNL     1       3.632   7.181  17.379  0.00  0.00    +0.000 HD
ENDROOT
BRANCH   3   5
ATOM      5  C   UNL     1       2.137   7.835  18.664  0.00  0.00    +0.000 A 
ATOM      6  C   UNL     1       1.888   7.807  20.038  0.00  0.00    +0.000 A 
ATOM      7  C   UNL     1       1.149   8.826  20.648  0.00  0.00    +0.000 A 
ATOM      8  C   UNL     1       0.655   9.878  19.882  0.00  0.00    +0.000 A 
ATOM      9 CL   UNL     1      -0.262  11.125  20.634  0.00  0.00    +0.000 Cl
ATOM     10  C   UNL     1       0.900   9.926  18.514  0.00  0.00    +0.000 A 
ATOM     11  C   UNL     1       1.646   8.908  17.907  0.00  0.00    +0.000 A 
ENDBRANCH   3   5
BRANCH   1  12
ATOM     12  O   UNL     1       3.981   4.972  17.520  0.00  0.00    +0.000 OA
BRANCH  12  18
ATOM     13  C   UNL     1       6.037   6.185  16.945  0.00  0.00    +0.000 A 
ATOM     14  C   UNL     1       7.332   6.546  17.322  0.00  0.00    +0.000 A 
ATOM     15  C   UNL     1       7.814   6.229  18.597  0.00  0.00    +0.000 A 
ATOM     16  C   UNL     1       7.001   5.560  19.510  0.00  0.00    +0.000 A 
ATOM     17  C   UNL     1       5.704   5.196  19.153  0.00  0.00    +0.000 A 
ATOM     18  C   UNL     1       5.230   5.512  17.877  0.00  0.00    +0.000 A 
BRANCH  13  20
ATOM     19  C   UNL     1       5.796   5.319  14.754  0.00  0.00    +0.000 C 
ATOM     20  O   UNL     1       5.533   6.365  15.684  0.00  0.00    +0.000 OA
ENDBRANCH  13  20
ENDBRANCH  12  18
ENDBRANCH   1  12
TORSDOF 4
ENDMDL
MODEL 9
REMARK VINA RESULT:      -6.4      3.448      6.419
REMARK  Name = 
REMARK  5 active torsions:
REMARK  status: ('A' for Active; 'I' for Inactive)
REMARK    1  A    between atoms: C_1  and  O_2
REMARK    2  A    between atoms: O_2  and  C_3
REMARK    3  A    between atoms: C_8  and  O_9
REMARK    4  A    between atoms: O_9  and  C_10
REMARK    5  A    between atoms: N_12  and  C_13
REMARK                            x       y       z     vdW  Elec       q    Type
REMARK                         _______ _______ _______ _____ _____    ______ ____
ROOT
ATOM      1  C   UNL     1       5.652   5.012  18.768  0.00  0.00    +0.000 C 
ATOM      2  O   UNL     1       6.680   4.394  18.993  0.00  0.00    +0.000 OA
ATOM      3  N   UNL     1       5.166   5.424  17.550  0.00  0.00    +0.000 N 
ATOM      4  H   UNL     1       4.339   6.001  17.617  0.00  0.00    +0.000 HD
ENDROOT
BRANCH   3   5
ATOM      5  C   UNL     1       5.591   5.028  16.273  0.00  0.00    +0.000 A 
ATOM      6  C   UNL     1       4.792   4.301  15.388  0.00  0.00    +0.000 A 
ATOM      7  C   UNL     1       5.265   3.968  14.114  0.00  0.00    +0.000 A 
ATOM      8  C   UNL     1       6.541   4.362  13.723  0.00  0.00    +0.000 A 
ATOM      9 CL   UNL     1       7.123   3.943  12.159  0.00  0.00    +0.000 Cl
ATOM     10  C   UNL     1       7.346   5.094  14.590  0.00  0.00    +0.000 A 
ATOM     11  C   UNL     1       6.868   5.431  15.862  0.00  0.00    +0.000 A 
ENDBRANCH   3   5
BRANCH   1  12
ATOM     12  O   UNL     1       4.756   5.434  19.744  0.00  0.00    +0.000 OA
BRANCH  12  18
ATOM     13  C   UNL     1       2.303   5.359  19.784  0.00  0.00    +0.000 A 
ATOM     14  C   UNL     1       1.155   4.607  20.044  0.00  0.00    +0.000 A 
ATOM     15  C   UNL     1       1.253   3.247  20.357  0.00  0.00    +0.000 A 
ATOM     16  C   UNL     1       2.498   2.623  20.401  0.00  0.00    +0.000 A 
ATOM     17  C   UNL     1       3.655   3.357  20.139  0.00  0.00    +0.000 A 
ATOM     18  C   UNL     1       3.550   4.715  19.831  0.00  0.00    +0.000 A 
BRANCH  13  20
ATOM     19  C   UNL     1       1.747   7.501  20.628  0.00  0.00    +0.000 C 
ATOM     20  O   UNL     1       2.295   6.713  19.576  0.00  0.00    +0.000 OA
ENDBRANCH  13  20
ENDBRANCH  12  18
ENDBRANCH   1  12
TORSDOF 4
ENDMDL
