MODEL 1
REMARK VINA RESULT:      -7.8      0.000      0.000
REMARK  Name = 
REMARK  5 active torsions:
REMARK  status: ('A' for Active; 'I' for Inactive)
REMARK    1  A    between atoms: C_1  and  C_2
REMARK    2  A    between atoms: C_2  and  C_3
REMARK    3  A    between atoms: C_2  and  C_4
REMARK    4  A    between atoms: C_4  and  C_5
REMARK    5  A    between atoms: C_18  and  C_20
REMARK                            x       y       z     vdW  Elec       q    Type
REMARK                         _______ _______ _______ _____ _____    ______ ____
ROOT
ATOM      1  C   UNL     1       6.101   5.176  17.475  0.00  0.00    +0.000 C 
ATOM      2  C   UNL     1       6.192   4.965  15.986  0.00  0.00    +0.000 A 
ATOM      3  N   UNL     1       7.027   5.644  15.133  0.00  0.00    +0.000 N 
ATOM      4  C   UNL     1       7.021   5.036  13.896  0.00  0.00    +0.000 A 
ATOM      5  C   UNL     1       7.829   5.268  12.769  0.00  0.00    +0.000 A 
ATOM      6  C   UNL     1       7.602   4.468  11.644  0.00  0.00    +0.000 A 
ATOM      7  C   UNL     1       6.593   3.511  11.627  0.00  0.00    +0.000 A 
ATOM      8  C   UNL     1       5.785   3.305  12.753  0.00  0.00    +0.000 A 
ATOM      9  C   UNL     1       6.022   4.071  13.914  0.00  0.00    +0.000 A 
ATOM     10  C   UNL     1       5.462   4.090  15.211  0.00  0.00    +0.000 A 
ATOM     11  C   UNL     1       4.342   3.315  15.770  0.00  0.00    +0.000 C 
ATOM     12  C   UNL     1       4.482   3.211  17.289  0.00  0.00    +0.000 C 
ATOM     13  N   UNL     1       4.873   4.473  17.969  0.00  0.00    +0.000 N 
ATOM     14  C   UNL     1       4.301   4.951  19.159  0.00  0.00    +0.000 C 
ATOM     15  O   UNL     1       4.684   5.992  19.696  0.00  0.00    +0.000 OA
ATOM     16  H   UNL     1       7.637   6.408  15.388  0.00  0.00    +0.000 HD
ENDROOT
BRANCH  14  17
ATOM     17  C   UNL     1       3.161   4.236  19.810  0.00  0.00    +0.000 A 
ATOM     18  C   UNL     1       1.821   4.516  19.519  0.00  0.00    +0.000 A 
ATOM     19  C   UNL     1       0.796   3.917  20.253  0.00  0.00    +0.000 A 
ATOM     20  C   UNL     1       1.098   2.949  21.208  0.00  0.00    +0.000 A 
ATOM     21  C   UNL     1       2.424   2.572  21.418  0.00  0.00    +0.000 A 
ATOM     22  C   UNL     1       3.455   3.217  20.728  0.00  0.00    +0.000 A 
ENDBRANCH  14  17
BRANCH   1  23
ATOM     23  C   UNL     1       7.357   4.639  18.221  0.00  0.00    +0.000 C 
BRANCH  23  25
ATOM     24  C   UNL     1       7.965   7.120  18.461  0.00  0.00    +0.000 C 
ATOM     25  C   UNL     1       8.268   5.688  18.904  0.00  0.00    +0.000 C 
ATOM     26  C   UNL     1       8.158   5.599  20.432  0.00  0.00    +0.000 C 
ENDBRANCH  23  25
ENDBRANCH   1  23
TORSDOF 3
ENDMDL
MODEL 2
REMARK VINA RESULT:      -7.7      4.195      6.198
REMARK  Name = 
REMARK  5 active torsions:
REMARK  status: ('A' for Active; 'I' for Inactive)
REMARK    1  A    between atoms: C_1  and  C_2
REMARK    2  A    between atoms: C_2  and  C_3
REMARK    3  A    between atoms: C_2  and  C_4
REMARK    4  A    between atoms: C_4  and  C_5
REMARK    5  A    between atoms: C_18  and  C_20
REMARK                            x       y       z     vdW  Elec       q    Type
REMARK                         _______ _______ _______ _____ _____    ______ ____
ROOT
ATOM      1  C   UNL     1       2.438   6.731  20.107  0.00  0.00    +0.000 C 
ATOM      2  C   UNL     1       3.493   6.398  19.086  0.00  0.00    +0.000 A 
ATOM      3  N   UNL     1       4.450   5.421  19.215  0.00  0.00    +0.000 N 
ATOM      4  C   UNL     1       5.087   5.233  18.007  0.00  0.00    +0.000 A 
ATOM      5  C   UNL     1       6.007   4.246  17.613  0.00  0.00    +0.000 A 
ATOM      6  C   UNL     1       6.474   4.297  16.295  0.00  0.00    +0.000 A 
ATOM      7  C   UNL     1       6.077   5.306  15.424  0.00  0.00    +0.000 A 
ATOM      8  C   UNL     1       5.173   6.293  15.839  0.00  0.00    +0.000 A 
ATOM      9  C   UNL     1       4.656   6.238  17.150  0.00  0.00    +0.000 A 
ATOM     10  C   UNL     1       3.709   7.005  17.867  0.00  0.00    +0.000 A 
ATOM     11  C   UNL     1       2.974   8.215  17.467  0.00  0.00    +0.000 C 
ATOM     12  C   UNL     1       1.678   8.331  18.269  0.00  0.00    +0.000 C 
ATOM     13  N   UNL     1       1.811   8.036  19.719  0.00  0.00    +0.000 N 
ATOM     14  C   UNL     1       1.220   8.789  20.747  0.00  0.00    +0.000 C 
ATOM     15  O   UNL     1       1.340   8.482  21.934  0.00  0.00    +0.000 OA
ATOM     16  H   UNL     1       4.602   4.849  20.033  0.00  0.00    +0.000 HD
ENDROOT
BRANCH  14  17
ATOM     17  C   UNL     1       0.447  10.034  20.446  0.00  0.00    +0.000 A 
ATOM     18  C   UNL     1      -0.785  10.022  19.783  0.00  0.00    +0.000 A 
ATOM     19  C   UNL     1      -1.397  11.219  19.405  0.00  0.00    +0.000 A 
ATOM     20  C   UNL     1      -0.840  12.437  19.787  0.00  0.00    +0.000 A 
ATOM     21  C   UNL     1       0.323  12.456  20.557  0.00  0.00    +0.000 A 
ATOM     22  C   UNL     1       0.970  11.260  20.880  0.00  0.00    +0.000 A 
ENDBRANCH  14  17
BRANCH   1  23
ATOM     23  C   UNL     1       1.346   5.626  20.204  0.00  0.00    +0.000 C 
BRANCH  23  25
ATOM     24  C   UNL     1       1.361   3.210  21.067  0.00  0.00    +0.000 C 
ATOM     25  C   UNL     1       1.802   4.166  19.959  0.00  0.00    +0.000 C 
ATOM     26  C   UNL     1       1.284   3.649  18.610  0.00  0.00    +0.000 C 
ENDBRANCH  23  25
ENDBRANCH   1  23
TORSDOF 3
ENDMDL
MODEL 3
REMARK VINA RESULT:      -7.7      1.459      6.834
REMARK  Name = 
REMARK  5 active torsions:
REMARK  status: ('A' for Active; 'I' for Inactive)
REMARK    1  A    between atoms: C_1  and  C_2
REMARK    2  A    between atoms: C_2  and  C_3
REMARK    3  A    between atoms: C_2  and  C_4
REMARK    4  A    between atoms: C_4  and  C_5
REMARK    5  A    between atoms: C_18  and  C_20
REMARK                            x       y       z     vdW  Elec       q    Type
REMARK                         _______ _______ _______ _____ _____    ______ ____
ROOT
ATOM      1  C   UNL     1       5.797   4.593  18.036  0.00  0.00    +0.000 C 
ATOM      2  C   UNL     1       4.590   3.966  18.684  0.00  0.00    +0.000 A 
ATOM      3  N   UNL     1       4.445   3.713  20.026  0.00  0.00    +0.000 N 
ATOM      4  C   UNL     1       3.139   3.364  20.293  0.00  0.00    +0.000 A 
ATOM      5  C   UNL     1       2.485   3.178  21.524  0.00  0.00    +0.000 A 
ATOM      6  C   UNL     1       1.127   2.840  21.482  0.00  0.00    +0.000 A 
ATOM      7  C   UNL     1       0.463   2.656  20.274  0.00  0.00    +0.000 A 
ATOM      8  C   UNL     1       1.135   2.827  19.056  0.00  0.00    +0.000 A 
ATOM      9  C   UNL     1       2.493   3.208  19.073  0.00  0.00    +0.000 A 
ATOM     10  C   UNL     1       3.440   3.520  18.070  0.00  0.00    +0.000 A 
ATOM     11  C   UNL     1       3.315   3.475  16.604  0.00  0.00    +0.000 C 
ATOM     12  C   UNL     1       4.317   4.434  15.963  0.00  0.00    +0.000 C 
ATOM     13  N   UNL     1       5.679   4.404  16.554  0.00  0.00    +0.000 N 
ATOM     14  C   UNL     1       6.874   4.412  15.814  0.00  0.00    +0.000 C 
ATOM     15  O   UNL     1       7.979   4.414  16.358  0.00  0.00    +0.000 OA
ATOM     16  H   UNL     1       5.150   3.860  20.733  0.00  0.00    +0.000 HD
ENDROOT
BRANCH  14  17
ATOM     17  C   UNL     1       6.856   4.372  14.320  0.00  0.00    +0.000 A 
ATOM     18  C   UNL     1       6.064   3.476  13.592  0.00  0.00    +0.000 A 
ATOM     19  C   UNL     1       6.188   3.388  12.204  0.00  0.00    +0.000 A 
ATOM     20  C   UNL     1       7.021   4.271  11.522  0.00  0.00    +0.000 A 
ATOM     21  C   UNL     1       7.720   5.250  12.227  0.00  0.00    +0.000 A 
ATOM     22  C   UNL     1       7.645   5.298  13.623  0.00  0.00    +0.000 A 
ENDBRANCH  14  17
BRANCH   1  23
ATOM     23  C   UNL     1       5.922   6.108  18.370  0.00  0.00    +0.000 C 
BRANCH  23  25
ATOM     24  C   UNL     1       8.178   5.437  19.390  0.00  0.00    +0.000 C 
ATOM     25  C   UNL     1       7.275   6.589  18.950  0.00  0.00    +0.000 C 
ATOM     26  C   UNL     1       8.027   7.461  17.936  0.00  0.00    +0.000 C 
ENDBRANCH  23  25
ENDBRANCH   1  23
TORSDOF 3
ENDMDL
MODEL 4
REMARK VINA RESULT:      -7.3      4.062      6.011
REMARK  Name = 
REMARK  5 active torsions:
REMARK  status: ('A' for Active; 'I' for Inactive)
REMARK    1  A    between atoms: C_1  and  C_2
REMARK    2  A    between atoms: C_2  and  C_3
REMARK    3  A    between atoms: C_2  and  C_4
REMARK    4  A    between atoms: C_4  and  C_5
REMARK    5  A    between atoms: C_18  and  C_20
REMARK                            x       y       z     vdW  Elec       q    Type
REMARK                         _______ _______ _______ _____ _____    ______ ____
ROOT
ATOM      1  C   UNL     1       2.346   6.404  19.766  0.00  0.00    +0.000 C 
ATOM      2  C   UNL     1       3.427   6.116  18.757  0.00  0.00    +0.000 A 
ATOM      3  N   UNL     1       4.280   5.041  18.786  0.00  0.00    +0.000 N 
ATOM      4  C   UNL     1       4.969   4.963  17.595  0.00  0.00    +0.000 A 
ATOM      5  C   UNL     1       5.817   3.955  17.103  0.00  0.00    +0.000 A 
ATOM      6  C   UNL     1       6.366   4.146  15.830  0.00  0.00    +0.000 A 
ATOM      7  C   UNL     1       6.116   5.303  15.099  0.00  0.00    +0.000 A 
ATOM      8  C   UNL     1       5.283   6.306  15.612  0.00  0.00    +0.000 A 
ATOM      9  C   UNL     1       4.684   6.117  16.875  0.00  0.00    +0.000 A 
ATOM     10  C   UNL     1       3.771   6.865  17.653  0.00  0.00    +0.000 A 
ATOM     11  C   UNL     1       3.175   8.187  17.401  0.00  0.00    +0.000 C 
ATOM     12  C   UNL     1       1.849   8.317  18.150  0.00  0.00    +0.000 C 
ATOM     13  N   UNL     1       1.866   7.807  19.545  0.00  0.00    +0.000 N 
ATOM     14  C   UNL     1       1.285   8.462  20.644  0.00  0.00    +0.000 C 
ATOM     15  O   UNL     1       1.305   7.979  21.778  0.00  0.00    +0.000 OA
ATOM     16  H   UNL     1       4.328   4.346  19.517  0.00  0.00    +0.000 HD
ENDROOT
BRANCH  14  17
ATOM     17  C   UNL     1       0.650   9.807  20.494  0.00  0.00    +0.000 A 
ATOM     18  C   UNL     1       1.210  10.975  21.022  0.00  0.00    +0.000 A 
ATOM     19  C   UNL     1       0.509  12.182  20.973  0.00  0.00    +0.000 A 
ATOM     20  C   UNL     1      -0.706  12.254  20.296  0.00  0.00    +0.000 A 
ATOM     21  C   UNL     1      -1.213  11.122  19.659  0.00  0.00    +0.000 A 
ATOM     22  C   UNL     1      -0.542   9.899  19.763  0.00  0.00    +0.000 A 
ENDBRANCH  14  17
BRANCH   1  23
ATOM     23  C   UNL     1       1.154   5.411  19.648  0.00  0.00    +0.000 C 
BRANCH  23  25
ATOM     24  C   UNL     1       1.231   2.852  19.816  0.00  0.00    +0.000 C 
ATOM     25  C   UNL     1       1.176   4.175  20.581  0.00  0.00    +0.000 C 
ATOM     26  C   UNL     1       2.360   4.243  21.555  0.00  0.00    +0.000 C 
ENDBRANCH  23  25
ENDBRANCH   1  23
TORSDOF 3
ENDMDL
MODEL 5
REMARK VINA RESULT:      -7.2      1.597      6.814
REMARK  Name = 
REMARK  5 active torsions:
REMARK  status: ('A' for Active; 'I' for Inactive)
REMARK    1  A    between atoms: C_1  and  C_2
REMARK    2  A    between atoms: C_2  and  C_3
REMARK    3  A    between atoms: C_2  and  C_4
REMARK    4  A    between atoms: C_4  and  C_5
REMARK    5  A    between atoms: C_18  and  C_20
REMARK                            x       y       z     vdW  Elec       q    Type
REMARK                         _______ _______ _______ _____ _____    ______ ____
ROOT
ATOM      1  C   UNL     1       6.039   4.353  18.237  0.00  0.00    +0.000 C 
ATOM      2  C   UNL     1       4.763   3.801  18.816  0.00  0.00    +0.000 A 
ATOM      3  N   UNL     1       4.573   3.432  20.125  0.00  0.00    +0.000 N 
ATOM      4  C   UNL     1       3.234   3.203  20.353  0.00  0.00    +0.000 A 
ATOM      5  C   UNL     1       2.548   2.966  21.557  0.00  0.00    +0.000 A 
ATOM      6  C   UNL     1       1.162   2.786  21.480  0.00  0.00    +0.000 A 
ATOM      7  C   UNL     1       0.498   2.799  20.258  0.00  0.00    +0.000 A 
ATOM      8  C   UNL     1       1.199   3.017  19.065  0.00  0.00    +0.000 A 
ATOM      9  C   UNL     1       2.590   3.243  19.123  0.00  0.00    +0.000 A 
ATOM     10  C   UNL     1       3.578   3.548  18.158  0.00  0.00    +0.000 A 
ATOM     11  C   UNL     1       3.468   3.665  16.695  0.00  0.00    +0.000 C 
ATOM     12  C   UNL     1       4.577   4.569  16.156  0.00  0.00    +0.000 C 
ATOM     13  N   UNL     1       5.920   4.329  16.743  0.00  0.00    +0.000 N 
ATOM     14  C   UNL     1       7.117   4.280  16.009  0.00  0.00    +0.000 C 
ATOM     15  O   UNL     1       8.209   4.106  16.552  0.00  0.00    +0.000 OA
ATOM     16  H   UNL     1       5.282   3.428  20.844  0.00  0.00    +0.000 HD
ENDROOT
BRANCH  14  17
ATOM     17  C   UNL     1       7.115   4.393  14.519  0.00  0.00    +0.000 A 
ATOM     18  C   UNL     1       7.904   5.318  13.825  0.00  0.00    +0.000 A 
ATOM     19  C   UNL     1       7.762   5.476  12.445  0.00  0.00    +0.000 A 
ATOM     20  C   UNL     1       6.912   4.635  11.732  0.00  0.00    +0.000 A 
ATOM     21  C   UNL     1       6.215   3.628  12.398  0.00  0.00    +0.000 A 
ATOM     22  C   UNL     1       6.308   3.510  13.788  0.00  0.00    +0.000 A 
ENDBRANCH  14  17
BRANCH   1  23
ATOM     23  C   UNL     1       6.324   5.804  18.724  0.00  0.00    +0.000 C 
BRANCH  23  25
ATOM     24  C   UNL     1       6.192   7.760  17.069  0.00  0.00    +0.000 C 
ATOM     25  C   UNL     1       7.094   6.731  17.751  0.00  0.00    +0.000 C 
ATOM     26  C   UNL     1       8.234   7.461  18.475  0.00  0.00    +0.000 C 
ENDBRANCH  23  25
ENDBRANCH   1  23
TORSDOF 3
ENDMDL
MODEL 6
REMARK VINA RESULT:      -7.2      2.659      6.915
REMARK  Name = 
REMARK  5 active torsions:
REMARK  status: ('A' for Active; 'I' for Inactive)
REMARK    1  A    between atoms: C_1  and  C_2
REMARK    2  A    between atoms: C_2  and  C_3
REMARK    3  A    between atoms: C_2  and  C_4
REMARK    4  A    between atoms: C_4  and  C_5
REMARK    5  A    between atoms: C_18  and  C_20
REMARK                            x       y       z     vdW  Elec       q    Type
REMARK                         _______ _______ _______ _____ _____    ______ ____
ROOT
ATOM      1  C   UNL     1       4.698   5.106  18.151  0.00  0.00    +0.000 C 
ATOM      2  C   UNL     1       3.646   6.121  18.514  0.00  0.00    +0.000 A 
ATOM      3  N   UNL     1       2.922   6.138  19.681  0.00  0.00    +0.000 N 
ATOM      4  C   UNL     1       2.234   7.328  19.782  0.00  0.00    +0.000 A 
ATOM      5  C   UNL     1       1.501   7.862  20.856  0.00  0.00    +0.000 A 
ATOM      6  C   UNL     1       0.920   9.121  20.671  0.00  0.00    +0.000 A 
ATOM      7  C   UNL     1       1.027   9.797  19.460  0.00  0.00    +0.000 A 
ATOM      8  C   UNL     1       1.744   9.242  18.392  0.00  0.00    +0.000 A 
ATOM      9  C   UNL     1       2.375   7.993  18.570  0.00  0.00    +0.000 A 
ATOM     10  C   UNL     1       3.206   7.186  17.759  0.00  0.00    +0.000 A 
ATOM     11  C   UNL     1       3.643   7.378  16.367  0.00  0.00    +0.000 C 
ATOM     12  C   UNL     1       4.954   6.631  16.121  0.00  0.00    +0.000 C 
ATOM     13  N   UNL     1       5.011   5.262  16.694  0.00  0.00    +0.000 N 
ATOM     14  C   UNL     1       5.526   4.136  16.029  0.00  0.00    +0.000 C 
ATOM     15  O   UNL     1       5.575   3.027  16.563  0.00  0.00    +0.000 OA
ATOM     16  H   UNL     1       2.962   5.441  20.410  0.00  0.00    +0.000 HD
ENDROOT
BRANCH  14  17
ATOM     17  C   UNL     1       6.000   4.226  14.614  0.00  0.00    +0.000 A 
ATOM     18  C   UNL     1       5.321   3.630  13.545  0.00  0.00    +0.000 A 
ATOM     19  C   UNL     1       5.879   3.627  12.265  0.00  0.00    +0.000 A 
ATOM     20  C   UNL     1       7.065   4.316  12.021  0.00  0.00    +0.000 A 
ATOM     21  C   UNL     1       7.685   5.017  13.054  0.00  0.00    +0.000 A 
ATOM     22  C   UNL     1       7.160   4.967  14.349  0.00  0.00    +0.000 A 
ENDBRANCH  14  17
BRANCH   1  23
ATOM     23  C   UNL     1       5.995   5.278  18.994  0.00  0.00    +0.000 C 
BRANCH  23  25
ATOM     24  C   UNL     1       8.001   6.865  18.796  0.00  0.00    +0.000 C 
ATOM     25  C   UNL     1       7.290   5.638  18.224  0.00  0.00    +0.000 C 
ATOM     26  C   UNL     1       8.265   4.453  18.204  0.00  0.00    +0.000 C 
ENDBRANCH  23  25
ENDBRANCH   1  23
TORSDOF 3
ENDMDL
MODEL 7
REMARK VINA RESULT:      -6.8      6.791      9.383
REMARK  Name = 
REMARK  5 active torsions:
REMARK  status: ('A' for Active; 'I' for Inactive)
REMARK    1  A    between atoms: C_1  and  C_2
REMARK    2  A    between atoms: C_2  and  C_3
REMARK    3  A    between atoms: C_2  and  C_4
REMARK    4  A    between atoms: C_4  and  C_5
REMARK    5  A    between atoms: C_18  and  C_20
REMARK                            x       y       z     vdW  Elec       q    Type
REMARK                         _______ _______ _______ _____ _____    ______ ____
ROOT
ATOM      1  C   UNL     1       1.038  10.124  20.829  0.00  0.00    +0.000 C 
ATOM      2  C   UNL     1       1.524   8.807  20.283  0.00  0.00    +0.000 A 
ATOM      3  N   UNL     1       1.603   7.630  20.987  0.00  0.00    +0.000 N 
ATOM      4  C   UNL     1       1.855   6.588  20.122  0.00  0.00    +0.000 A 
ATOM      5  C   UNL     1       1.858   5.201  20.352  0.00  0.00    +0.000 A 
ATOM      6  C   UNL     1       2.135   4.372  19.259  0.00  0.00    +0.000 A 
ATOM      7  C   UNL     1       2.434   4.899  18.008  0.00  0.00    +0.000 A 
ATOM      8  C   UNL     1       2.445   6.285  17.800  0.00  0.00    +0.000 A 
ATOM      9  C   UNL     1       2.129   7.139  18.877  0.00  0.00    +0.000 A 
ATOM     10  C   UNL     1       1.987   8.539  19.013  0.00  0.00    +0.000 A 
ATOM     11  C   UNL     1       2.205   9.612  18.029  0.00  0.00    +0.000 C 
ATOM     12  C   UNL     1       1.380  10.843  18.404  0.00  0.00    +0.000 C 
ATOM     13  N   UNL     1       1.401  11.196  19.846  0.00  0.00    +0.000 N 
ATOM     14  C   UNL     1       1.541  12.500  20.350  0.00  0.00    +0.000 C 
ATOM     15  O   UNL     1       1.524  12.740  21.558  0.00  0.00    +0.000 OA
ATOM     16  H   UNL     1       1.404   7.518  21.971  0.00  0.00    +0.000 HD
ENDROOT
BRANCH  14  17
ATOM     17  C   UNL     1       1.762  13.662  19.434  0.00  0.00    +0.000 A 
ATOM     18  C   UNL     1       2.906  13.795  18.639  0.00  0.00    +0.000 A 
ATOM     19  C   UNL     1       3.127  14.964  17.907  0.00  0.00    +0.000 A 
ATOM     20  C   UNL     1       2.154  15.960  17.875  0.00  0.00    +0.000 A 
ATOM     21  C   UNL     1       0.956  15.780  18.565  0.00  0.00    +0.000 A 
ATOM     22  C   UNL     1       0.761  14.639  19.349  0.00  0.00    +0.000 A 
ENDBRANCH  14  17
BRANCH   1  23
ATOM     23  C   UNL     1      -0.499  10.127  21.074  0.00  0.00    +0.000 C 
BRANCH  23  25
ATOM     24  C   UNL     1       0.055   9.563  23.515  0.00  0.00    +0.000 C 
ATOM     25  C   UNL     1      -0.974  10.149  22.548  0.00  0.00    +0.000 C 
ATOM     26  C   UNL     1      -1.325  11.576  22.990  0.00  0.00    +0.000 C 
ENDBRANCH  23  25
ENDBRANCH   1  23
TORSDOF 3
ENDMDL
MODEL 8
REMARK VINA RESULT:      -6.7      8.637     11.376
REMARK  Name = 
REMARK  5 active torsions:
REMARK  status: ('A' for Active; 'I' for Inactive)
REMARK    1  A    between atoms: C_1  and  C_2
REMARK    2  A    between atoms: C_2  and  C_3
REMARK    3  A    between atoms: C_2  and  C_4
REMARK    4  A    between atoms: C_4  and  C_5
REMARK    5  A    between atoms: C_18  and  C_20
REMARK                            x       y       z     vdW  Elec       q    Type
REMARK                         _______ _______ _______ _____ _____    ______ ____
ROOT
ATOM      1  C   UNL     1      -1.170  12.305  19.454  0.00  0.00    +0.000 C 
ATOM      2  C   UNL     1      -2.663  12.206  19.280  0.00  0.00    +0.000 A 
ATOM      3  N   UNL     1      -3.584  13.104  19.762  0.00  0.00    +0.000 N 
ATOM      4  C   UNL     1      -4.821  12.836  19.217  0.00  0.00    +0.000 A 
ATOM      5  C   UNL     1      -6.018  13.571  19.283  0.00  0.00    +0.000 A 
ATOM      6  C   UNL     1      -7.126  13.051  18.603  0.00  0.00    +0.000 A 
ATOM      7  C   UNL     1      -7.057  11.838  17.926  0.00  0.00    +0.000 A 
ATOM      8  C   UNL     1      -5.861  11.109  17.887  0.00  0.00    +0.000 A 
ATOM      9  C   UNL     1      -4.720  11.634  18.529  0.00  0.00    +0.000 A 
ATOM     10  C   UNL     1      -3.374  11.215  18.640  0.00  0.00    +0.000 A 
ATOM     11  C   UNL     1      -2.719   9.992  18.146  0.00  0.00    +0.000 C 
ATOM     12  C   UNL     1      -1.222  10.238  17.958  0.00  0.00    +0.000 C 
ATOM     13  N   UNL     1      -0.568  10.991  19.059  0.00  0.00    +0.000 N 
ATOM     14  C   UNL     1       0.677  10.665  19.621  0.00  0.00    +0.000 C 
ATOM     15  O   UNL     1       1.187  11.342  20.516  0.00  0.00    +0.000 OA
ATOM     16  H   UNL     1      -3.379  13.905  20.341  0.00  0.00    +0.000 HD
ENDROOT
BRANCH  14  17
ATOM     17  C   UNL     1       1.426   9.446  19.187  0.00  0.00    +0.000 A 
ATOM     18  C   UNL     1       2.040   9.338  17.934  0.00  0.00    +0.000 A 
ATOM     19  C   UNL     1       2.608   8.129  17.525  0.00  0.00    +0.000 A 
ATOM     20  C   UNL     1       2.666   7.054  18.408  0.00  0.00    +0.000 A 
ATOM     21  C   UNL     1       2.168   7.192  19.703  0.00  0.00    +0.000 A 
ATOM     22  C   UNL     1       1.542   8.382  20.091  0.00  0.00    +0.000 A 
ENDBRANCH  14  17
BRANCH   1  23
ATOM     23  C   UNL     1      -0.554  13.449  18.598  0.00  0.00    +0.000 C 
BRANCH  23  25
ATOM     24  C   UNL     1       1.702  14.569  19.086  0.00  0.00    +0.000 C 
ATOM     25  C   UNL     1       0.198  14.569  19.360  0.00  0.00    +0.000 C 
ATOM     26  C   UNL     1      -0.377  15.949  19.015  0.00  0.00    +0.000 C 
ENDBRANCH  23  25
ENDBRANCH   1  23
TORSDOF 3
ENDMDL
MODEL 9
REMARK VINA RESULT:      -6.6      1.898      7.098
REMARK  Name = 
REMARK  5 active torsions:
REMARK  status: ('A' for Active; 'I' for Inactive)
REMARK    1  A    between atoms: C_1  and  C_2
REMARK    2  A    between atoms: C_2  and  C_3
REMARK    3  A    between atoms: C_2  and  C_4
REMARK    4  A    between atoms: C_4  and  C_5
REMARK    5  A    between atoms: C_18  and  C_20
REMARK                            x       y       z     vdW  Elec       q    Type
REMARK                         _______ _______ _______ _____ _____    ______ ____
ROOT
ATOM      1  C   UNL     1       5.059   5.849  17.733  0.00  0.00    +0.000 C 
ATOM      2  C   UNL     1       4.261   4.934  18.623  0.00  0.00    +0.000 A 
ATOM      3  N   UNL     1       4.019   5.132  19.961  0.00  0.00    +0.000 N 
ATOM      4  C   UNL     1       3.064   4.238  20.397  0.00  0.00    +0.000 A 
ATOM      5  C   UNL     1       2.385   4.166  21.626  0.00  0.00    +0.000 A 
ATOM      6  C   UNL     1       1.440   3.145  21.776  0.00  0.00    +0.000 A 
ATOM      7  C   UNL     1       1.212   2.216  20.766  0.00  0.00    +0.000 A 
ATOM      8  C   UNL     1       1.911   2.291  19.554  0.00  0.00    +0.000 A 
ATOM      9  C   UNL     1       2.838   3.337  19.364  0.00  0.00    +0.000 A 
ATOM     10  C   UNL     1       3.652   3.745  18.283  0.00  0.00    +0.000 A 
ATOM     11  C   UNL     1       3.847   3.129  16.960  0.00  0.00    +0.000 C 
ATOM     12  C   UNL     1       4.301   4.185  15.952  0.00  0.00    +0.000 C 
ATOM     13  N   UNL     1       5.339   5.123  16.452  0.00  0.00    +0.000 N 
ATOM     14  C   UNL     1       6.468   5.530  15.722  0.00  0.00    +0.000 C 
ATOM     15  O   UNL     1       7.284   6.334  16.175  0.00  0.00    +0.000 OA
ATOM     16  H   UNL     1       4.396   5.880  20.523  0.00  0.00    +0.000 HD
ENDROOT
BRANCH  14  17
ATOM     17  C   UNL     1       6.755   4.968  14.367  0.00  0.00    +0.000 A 
ATOM     18  C   UNL     1       7.732   5.498  13.515  0.00  0.00    +0.000 A 
ATOM     19  C   UNL     1       7.866   5.023  12.209  0.00  0.00    +0.000 A 
ATOM     20  C   UNL     1       7.102   3.941  11.780  0.00  0.00    +0.000 A 
ATOM     21  C   UNL     1       6.214   3.326  12.662  0.00  0.00    +0.000 A 
ATOM     22  C   UNL     1       6.034   3.841  13.949  0.00  0.00    +0.000 A 
ENDBRANCH  14  17
BRANCH   1  23
ATOM     23  C   UNL     1       4.309   7.180  17.436  0.00  0.00    +0.000 C 
BRANCH  23  25
ATOM     24  C   UNL     1       2.497   8.859  18.129  0.00  0.00    +0.000 C 
ATOM     25  C   UNL     1       2.960   7.402  18.162  0.00  0.00    +0.000 C 
ATOM     26  C   UNL     1       1.862   6.511  17.565  0.00  0.00    +0.000 C 
ENDBRANCH  23  25
ENDBRANCH   1  23
TORSDOF 3
ENDMDL
