MODEL 1
REMARK VINA RESULT:      -7.4      0.000      0.000
REMARK  Name = 
REMARK  5 active torsions:
REMARK  status: ('A' for Active; 'I' for Inactive)
REMARK    1  A    between atoms: C_2  and  C_3
REMARK    2  A    between atoms: C_4  and  C_5
REMARK    3  A    between atoms: N_7  and  C_8
REMARK    4  A    between atoms: C_15  and  C_16
REMARK    5  A    between atoms: C_25  and  C_26
REMARK                            x       y       z     vdW  Elec       q    Type
REMARK                         _______ _______ _______ _____ _____    ______ ____
ROOT
ATOM      1  C   UNL     1      -2.975  13.660  23.180  0.00  0.00    +0.000 C 
ATOM      2  C   UNL     1      -2.573  14.348  22.103  0.00  0.00    +0.000 C 
ENDROOT
BRANCH   1   4
ATOM      3  O   UNL     1      -2.847  14.873  25.202  0.00  0.00    +0.000 OA
ATOM      4  C   UNL     1      -3.569  14.340  24.357  0.00  0.00    +0.000 C 
ATOM      5  N   UNL     1      -4.924  14.468  24.458  0.00  0.00    +0.000 N 
ATOM      6  C   UNL     1      -5.861  13.855  23.680  0.00  0.00    +0.000 A 
ATOM      7  N   UNL     1      -5.710  12.829  22.886  0.00  0.00    +0.000 NA
ATOM      8  C   UNL     1      -6.884  12.597  22.187  0.00  0.00    +0.000 A 
ATOM      9  C   UNL     1      -7.914  13.468  22.496  0.00  0.00    +0.000 A 
ATOM     10  S   UNL     1      -7.420  14.538  23.748  0.00  0.00    +0.000 S 
ATOM     11  H   UNL     1      -5.250  15.119  25.158  0.00  0.00    +0.000 HD
BRANCH   8  12
ATOM     12  C   UNL     1      -6.987  11.527  21.197  0.00  0.00    +0.000 A 
ATOM     13  C   UNL     1      -6.512  11.719  19.900  0.00  0.00    +0.000 A 
ATOM     14  C   UNL     1      -6.624  10.678  18.983  0.00  0.00    +0.000 A 
ATOM     15  C   UNL     1      -7.205   9.482  19.382  0.00  0.00    +0.000 A 
ATOM     16  C   UNL     1      -7.653   9.375  20.689  0.00  0.00    +0.000 A 
ATOM     17  N   UNL     1      -7.558  10.364  21.605  0.00  0.00    +0.000 NA
ENDBRANCH   8  12
ENDBRANCH   1   4
BRANCH   2  18
ATOM     18  C   UNL     1      -2.078  13.700  20.939  0.00  0.00    +0.000 A 
ATOM     19  C   UNL     1      -2.816  12.818  20.193  0.00  0.00    +0.000 A 
ATOM     20  N   UNL     1      -2.031  12.442  19.130  0.00  0.00    +0.000 N 
ATOM     21  N   UNL     1      -0.824  13.065  19.161  0.00  0.00    +0.000 NA
ATOM     22  C   UNL     1      -0.835  13.842  20.259  0.00  0.00    +0.000 A 
BRANCH  20  23
ATOM     23  C   UNL     1      -2.365  11.527  18.092  0.00  0.00    +0.000 A 
ATOM     24  C   UNL     1      -1.462  10.532  17.688  0.00  0.00    +0.000 A 
ATOM     25  C   UNL     1      -1.799   9.657  16.651  0.00  0.00    +0.000 A 
ATOM     26  C   UNL     1      -3.031   9.771  16.011  0.00  0.00    +0.000 A 
ATOM     27  C   UNL     1      -3.935  10.753  16.410  0.00  0.00    +0.000 A 
ATOM     28  C   UNL     1      -3.609  11.626  17.452  0.00  0.00    +0.000 A 
ENDBRANCH  20  23
BRANCH  22  29
ATOM     29  C   UNL     1       0.320  14.681  20.594  0.00  0.00    +0.000 A 
ATOM     30  C   UNL     1       1.194  14.337  21.632  0.00  0.00    +0.000 A 
ATOM     31  C   UNL     1       2.281  15.157  21.934  0.00  0.00    +0.000 A 
ATOM     32  C   UNL     1       2.469  16.306  21.183  0.00  0.00    +0.000 A 
ATOM     33  N   UNL     1       1.656  16.677  20.177  0.00  0.00    +0.000 NA
ATOM     34  C   UNL     1       0.602  15.862  19.911  0.00  0.00    +0.000 A 
ENDBRANCH  22  29
ENDBRANCH   2  18
TORSDOF 5
ENDMDL
MODEL 2
REMARK VINA RESULT:      -7.2      3.269      6.211
REMARK  Name = 
REMARK  5 active torsions:
REMARK  status: ('A' for Active; 'I' for Inactive)
REMARK    1  A    between atoms: C_2  and  C_3
REMARK    2  A    between atoms: C_4  and  C_5
REMARK    3  A    between atoms: N_7  and  C_8
REMARK    4  A    between atoms: C_15  and  C_16
REMARK    5  A    between atoms: C_25  and  C_26
REMARK                            x       y       z     vdW  Elec       q    Type
REMARK                         _______ _______ _______ _____ _____    ______ ____
ROOT
ATOM      1  C   UNL     1      -2.874  11.696  17.699  0.00  0.00    +0.000 C 
ATOM      2  C   UNL     1      -2.155  10.951  18.549  0.00  0.00    +0.000 C 
ENDROOT
BRANCH   1   4
ATOM      3  O   UNL     1      -3.521  10.801  15.612  0.00  0.00    +0.000 OA
ATOM      4  C   UNL     1      -3.850  11.083  16.765  0.00  0.00    +0.000 C 
ATOM      5  N   UNL     1      -5.092  10.733  17.212  0.00  0.00    +0.000 N 
ATOM      6  C   UNL     1      -5.650  11.063  18.411  0.00  0.00    +0.000 A 
ATOM      7  N   UNL     1      -5.272  11.987  19.254  0.00  0.00    +0.000 NA
ATOM      8  C   UNL     1      -6.037  11.915  20.407  0.00  0.00    +0.000 A 
ATOM      9  C   UNL     1      -7.004  10.925  20.389  0.00  0.00    +0.000 A 
ATOM     10  S   UNL     1      -7.002  10.132  18.863  0.00  0.00    +0.000 S 
ATOM     11  H   UNL     1      -5.623  10.133  16.598  0.00  0.00    +0.000 HD
BRANCH   8  12
ATOM     12  C   UNL     1      -5.805  12.811  21.538  0.00  0.00    +0.000 A 
ATOM     13  C   UNL     1      -5.050  13.971  21.374  0.00  0.00    +0.000 A 
ATOM     14  C   UNL     1      -4.850  14.803  22.471  0.00  0.00    +0.000 A 
ATOM     15  C   UNL     1      -5.403  14.455  23.696  0.00  0.00    +0.000 A 
ATOM     16  C   UNL     1      -6.138  13.283  23.774  0.00  0.00    +0.000 A 
ATOM     17  N   UNL     1      -6.354  12.454  22.728  0.00  0.00    +0.000 NA
ENDBRANCH   8  12
ENDBRANCH   1   4
BRANCH   2  18
ATOM     18  C   UNL     1      -1.276  11.535  19.501  0.00  0.00    +0.000 A 
ATOM     19  C   UNL     1      -1.591  12.647  20.238  0.00  0.00    +0.000 A 
ATOM     20  N   UNL     1      -0.529  12.882  21.077  0.00  0.00    +0.000 N 
ATOM     21  N   UNL     1       0.446  11.950  20.915  0.00  0.00    +0.000 NA
ATOM     22  C   UNL     1       0.006  11.115  19.956  0.00  0.00    +0.000 A 
BRANCH  20  23
ATOM     23  C   UNL     1      -0.393  13.939  22.021  0.00  0.00    +0.000 A 
ATOM     24  C   UNL     1       0.564  14.950  21.841  0.00  0.00    +0.000 A 
ATOM     25  C   UNL     1       0.698  15.966  22.790  0.00  0.00    +0.000 A 
ATOM     26  C   UNL     1      -0.114  15.980  23.922  0.00  0.00    +0.000 A 
ATOM     27  C   UNL     1      -1.070  14.984  24.105  0.00  0.00    +0.000 A 
ATOM     28  C   UNL     1      -1.217  13.968  23.156  0.00  0.00    +0.000 A 
ENDBRANCH  20  23
BRANCH  22  29
ATOM     29  C   UNL     1       0.813   9.965  19.538  0.00  0.00    +0.000 A 
ATOM     30  C   UNL     1       1.293   9.850  18.227  0.00  0.00    +0.000 A 
ATOM     31  C   UNL     1       2.053   8.742  17.854  0.00  0.00    +0.000 A 
ATOM     32  C   UNL     1       2.318   7.772  18.808  0.00  0.00    +0.000 A 
ATOM     33  N   UNL     1       1.878   7.840  20.078  0.00  0.00    +0.000 NA
ATOM     34  C   UNL     1       1.135   8.927  20.410  0.00  0.00    +0.000 A 
ENDBRANCH  22  29
ENDBRANCH   2  18
TORSDOF 5
ENDMDL
MODEL 3
REMARK VINA RESULT:      -7.2      3.513      5.327
REMARK  Name = 
REMARK  5 active torsions:
REMARK  status: ('A' for Active; 'I' for Inactive)
REMARK    1  A    between atoms: C_2  and  C_3
REMARK    2  A    between atoms: C_4  and  C_5
REMARK    3  A    between atoms: N_7  and  C_8
REMARK    4  A    between atoms: C_15  and  C_16
REMARK    5  A    between atoms: C_25  and  C_26
REMARK                            x       y       z     vdW  Elec       q    Type
REMARK                         _______ _______ _______ _____ _____    ______ ____
ROOT
ATOM      1  C   UNL     1      -3.160  10.955  17.440  0.00  0.00    +0.000 C 
ATOM      2  C   UNL     1      -1.937  11.498  17.382  0.00  0.00    +0.000 C 
ENDROOT
BRANCH   1   4
ATOM      3  O   UNL     1      -4.182  11.344  15.346  0.00  0.00    +0.000 OA
ATOM      4  C   UNL     1      -4.264  11.437  16.572  0.00  0.00    +0.000 C 
ATOM      5  N   UNL     1      -5.422  11.891  17.133  0.00  0.00    +0.000 N 
ATOM      6  C   UNL     1      -5.640  12.156  18.452  0.00  0.00    +0.000 A 
ATOM      7  N   UNL     1      -4.759  12.313  19.404  0.00  0.00    +0.000 NA
ATOM      8  C   UNL     1      -5.402  12.448  20.624  0.00  0.00    +0.000 A 
ATOM      9  C   UNL     1      -6.783  12.405  20.550  0.00  0.00    +0.000 A 
ATOM     10  S   UNL     1      -7.277  12.278  18.908  0.00  0.00    +0.000 S 
ATOM     11  H   UNL     1      -6.202  11.997  16.500  0.00  0.00    +0.000 HD
BRANCH   8  12
ATOM     12  C   UNL     1      -4.654  12.601  21.870  0.00  0.00    +0.000 A 
ATOM     13  C   UNL     1      -3.265  12.715  21.850  0.00  0.00    +0.000 A 
ATOM     14  C   UNL     1      -2.584  12.862  23.054  0.00  0.00    +0.000 A 
ATOM     15  C   UNL     1      -3.305  12.889  24.242  0.00  0.00    +0.000 A 
ATOM     16  C   UNL     1      -4.683  12.768  24.174  0.00  0.00    +0.000 A 
ATOM     17  N   UNL     1      -5.375  12.626  23.021  0.00  0.00    +0.000 NA
ENDBRANCH   8  12
ENDBRANCH   1   4
BRANCH   2  18
ATOM     18  C   UNL     1      -0.854  10.991  18.151  0.00  0.00    +0.000 A 
ATOM     19  C   UNL     1      -0.363   9.718  18.018  0.00  0.00    +0.000 A 
ATOM     20  N   UNL     1       0.702   9.611  18.879  0.00  0.00    +0.000 N 
ATOM     21  N   UNL     1       0.920  10.775  19.545  0.00  0.00    +0.000 NA
ATOM     22  C   UNL     1      -0.020  11.633  19.110  0.00  0.00    +0.000 A 
BRANCH  20  23
ATOM     23  C   UNL     1       1.519   8.467  19.102  0.00  0.00    +0.000 A 
ATOM     24  C   UNL     1       2.363   7.974  18.094  0.00  0.00    +0.000 A 
ATOM     25  C   UNL     1       3.141   6.836  18.324  0.00  0.00    +0.000 A 
ATOM     26  C   UNL     1       3.080   6.183  19.553  0.00  0.00    +0.000 A 
ATOM     27  C   UNL     1       2.251   6.669  20.560  0.00  0.00    +0.000 A 
ATOM     28  C   UNL     1       1.476   7.812  20.341  0.00  0.00    +0.000 A 
ENDBRANCH  20  23
BRANCH  22  29
ATOM     29  C   UNL     1      -0.068  13.009  19.613  0.00  0.00    +0.000 A 
ATOM     30  C   UNL     1      -0.439  14.076  18.785  0.00  0.00    +0.000 A 
ATOM     31  C   UNL     1      -0.470  15.376  19.288  0.00  0.00    +0.000 A 
ATOM     32  C   UNL     1      -0.129  15.577  20.616  0.00  0.00    +0.000 A 
ATOM     33  N   UNL     1       0.234  14.585  21.449  0.00  0.00    +0.000 NA
ATOM     34  C   UNL     1       0.261  13.331  20.929  0.00  0.00    +0.000 A 
ENDBRANCH  22  29
ENDBRANCH   2  18
TORSDOF 5
ENDMDL
MODEL 4
REMARK VINA RESULT:      -7.2      3.184      5.704
REMARK  Name = 
REMARK  5 active torsions:
REMARK  status: ('A' for Active; 'I' for Inactive)
REMARK    1  A    between atoms: C_2  and  C_3
REMARK    2  A    between atoms: C_4  and  C_5
REMARK    3  A    between atoms: N_7  and  C_8
REMARK    4  A    between atoms: C_15  and  C_16
REMARK    5  A    between atoms: C_25  and  C_26
REMARK                            x       y       z     vdW  Elec       q    Type
REMARK                         _______ _______ _______ _____ _____    ______ ____
ROOT
ATOM      1  C   UNL     1      -0.543  14.646  19.321  0.00  0.00    +0.000 C 
ATOM      2  C   UNL     1      -0.348  13.770  18.326  0.00  0.00    +0.000 C 
ENDROOT
BRANCH   1   4
ATOM      3  O   UNL     1       0.303  16.633  18.366  0.00  0.00    +0.000 OA
ATOM      4  C   UNL     1      -0.558  16.109  19.075  0.00  0.00    +0.000 C 
ATOM      5  N   UNL     1      -1.589  16.869  19.548  0.00  0.00    +0.000 N 
ATOM      6  C   UNL     1      -2.555  16.476  20.426  0.00  0.00    +0.000 A 
ATOM      7  N   UNL     1      -2.562  15.430  21.210  0.00  0.00    +0.000 NA
ATOM      8  C   UNL     1      -3.785  15.332  21.854  0.00  0.00    +0.000 A 
ATOM      9  C   UNL     1      -4.678  16.342  21.541  0.00  0.00    +0.000 A 
ATOM     10  S   UNL     1      -3.932  17.476  20.485  0.00  0.00    +0.000 S 
ATOM     11  H   UNL     1      -1.653  17.802  19.169  0.00  0.00    +0.000 HD
BRANCH   8  12
ATOM     12  C   UNL     1      -4.083  14.231  22.767  0.00  0.00    +0.000 A 
ATOM     13  C   UNL     1      -3.065  13.390  23.213  0.00  0.00    +0.000 A 
ATOM     14  C   UNL     1      -3.383  12.352  24.084  0.00  0.00    +0.000 A 
ATOM     15  C   UNL     1      -4.702  12.180  24.481  0.00  0.00    +0.000 A 
ATOM     16  C   UNL     1      -5.654  13.059  23.988  0.00  0.00    +0.000 A 
ATOM     17  N   UNL     1      -5.379  14.078  23.145  0.00  0.00    +0.000 NA
ENDBRANCH   8  12
ENDBRANCH   1   4
BRANCH   2  18
ATOM     18  C   UNL     1      -0.411  12.366  18.539  0.00  0.00    +0.000 A 
ATOM     19  C   UNL     1       0.696  11.582  18.743  0.00  0.00    +0.000 A 
ATOM     20  N   UNL     1       0.242  10.304  18.959  0.00  0.00    +0.000 N 
ATOM     21  N   UNL     1      -1.114  10.245  18.919  0.00  0.00    +0.000 NA
ATOM     22  C   UNL     1      -1.533  11.499  18.665  0.00  0.00    +0.000 A 
BRANCH  20  23
ATOM     23  C   UNL     1       1.026   9.141  19.203  0.00  0.00    +0.000 A 
ATOM     24  C   UNL     1       1.041   8.531  20.467  0.00  0.00    +0.000 A 
ATOM     25  C   UNL     1       1.835   7.402  20.692  0.00  0.00    +0.000 A 
ATOM     26  C   UNL     1       2.618   6.880  19.665  0.00  0.00    +0.000 A 
ATOM     27  C   UNL     1       2.603   7.476  18.406  0.00  0.00    +0.000 A 
ATOM     28  C   UNL     1       1.805   8.599  18.170  0.00  0.00    +0.000 A 
ENDBRANCH  20  23
BRANCH  22  29
ATOM     29  C   UNL     1      -2.963  11.806  18.572  0.00  0.00    +0.000 A 
ATOM     30  C   UNL     1      -3.660  12.364  19.651  0.00  0.00    +0.000 A 
ATOM     31  C   UNL     1      -5.022  12.641  19.538  0.00  0.00    +0.000 A 
ATOM     32  C   UNL     1      -5.656  12.353  18.339  0.00  0.00    +0.000 A 
ATOM     33  N   UNL     1      -5.027  11.818  17.277  0.00  0.00    +0.000 NA
ATOM     34  C   UNL     1      -3.703  11.553  17.419  0.00  0.00    +0.000 A 
ENDBRANCH  22  29
ENDBRANCH   2  18
TORSDOF 5
ENDMDL
MODEL 5
REMARK VINA RESULT:      -7.2      3.218      5.723
REMARK  Name = 
REMARK  5 active torsions:
REMARK  status: ('A' for Active; 'I' for Inactive)
REMARK    1  A    between atoms: C_2  and  C_3
REMARK    2  A    between atoms: C_4  and  C_5
REMARK    3  A    between atoms: N_7  and  C_8
REMARK    4  A    between atoms: C_15  and  C_16
REMARK    5  A    between atoms: C_25  and  C_26
REMARK                            x       y       z     vdW  Elec       q    Type
REMARK                         _______ _______ _______ _____ _____    ______ ____
ROOT
ATOM      1  C   UNL     1      -0.529  14.657  19.293  0.00  0.00    +0.000 C 
ATOM      2  C   UNL     1      -0.339  13.775  18.303  0.00  0.00    +0.000 C 
ENDROOT
BRANCH   1   4
ATOM      3  O   UNL     1       0.306  16.642  18.323  0.00  0.00    +0.000 OA
ATOM      4  C   UNL     1      -0.552  16.119  19.037  0.00  0.00    +0.000 C 
ATOM      5  N   UNL     1      -1.586  16.876  19.505  0.00  0.00    +0.000 N 
ATOM      6  C   UNL     1      -2.549  16.484  20.387  0.00  0.00    +0.000 A 
ATOM      7  N   UNL     1      -2.550  15.445  21.178  0.00  0.00    +0.000 NA
ATOM      8  C   UNL     1      -3.771  15.344  21.824  0.00  0.00    +0.000 A 
ATOM      9  C   UNL     1      -4.670  16.347  21.504  0.00  0.00    +0.000 A 
ATOM     10  S   UNL     1      -3.931  17.478  20.440  0.00  0.00    +0.000 S 
ATOM     11  H   UNL     1      -1.655  17.807  19.119  0.00  0.00    +0.000 HD
BRANCH   8  12
ATOM     12  C   UNL     1      -4.063  14.248  22.745  0.00  0.00    +0.000 A 
ATOM     13  C   UNL     1      -5.360  14.046  23.213  0.00  0.00    +0.000 A 
ATOM     14  C   UNL     1      -5.604  12.992  24.087  0.00  0.00    +0.000 A 
ATOM     15  C   UNL     1      -4.550  12.171  24.470  0.00  0.00    +0.000 A 
ATOM     16  C   UNL     1      -3.291  12.442  23.960  0.00  0.00    +0.000 A 
ATOM     17  N   UNL     1      -3.021  13.456  23.108  0.00  0.00    +0.000 NA
ENDBRANCH   8  12
ENDBRANCH   1   4
BRANCH   2  18
ATOM     18  C   UNL     1      -0.395  12.373  18.526  0.00  0.00    +0.000 A 
ATOM     19  C   UNL     1       0.716  11.596  18.731  0.00  0.00    +0.000 A 
ATOM     20  N   UNL     1       0.269  10.317  18.960  0.00  0.00    +0.000 N 
ATOM     21  N   UNL     1      -1.087  10.251  18.925  0.00  0.00    +0.000 NA
ATOM     22  C   UNL     1      -1.512  11.501  18.664  0.00  0.00    +0.000 A 
BRANCH  20  23
ATOM     23  C   UNL     1       1.059   9.159  19.208  0.00  0.00    +0.000 A 
ATOM     24  C   UNL     1       1.845   8.588  18.195  0.00  0.00    +0.000 A 
ATOM     25  C   UNL     1       2.596   7.438  18.453  0.00  0.00    +0.000 A 
ATOM     26  C   UNL     1       2.566   6.849  19.715  0.00  0.00    +0.000 A 
ATOM     27  C   UNL     1       1.793   7.413  20.727  0.00  0.00    +0.000 A 
ATOM     28  C   UNL     1       1.046   8.569  20.481  0.00  0.00    +0.000 A 
ENDBRANCH  20  23
BRANCH  22  29
ATOM     29  C   UNL     1      -2.944  11.801  18.575  0.00  0.00    +0.000 A 
ATOM     30  C   UNL     1      -3.642  12.352  19.656  0.00  0.00    +0.000 A 
ATOM     31  C   UNL     1      -5.006  12.622  19.547  0.00  0.00    +0.000 A 
ATOM     32  C   UNL     1      -5.640  12.334  18.349  0.00  0.00    +0.000 A 
ATOM     33  N   UNL     1      -5.012  11.805  17.283  0.00  0.00    +0.000 NA
ATOM     34  C   UNL     1      -3.686  11.547  17.423  0.00  0.00    +0.000 A 
ENDBRANCH  22  29
ENDBRANCH   2  18
TORSDOF 5
ENDMDL
MODEL 6
REMARK VINA RESULT:      -7.2      3.307      6.385
REMARK  Name = 
REMARK  5 active torsions:
REMARK  status: ('A' for Active; 'I' for Inactive)
REMARK    1  A    between atoms: C_2  and  C_3
REMARK    2  A    between atoms: C_4  and  C_5
REMARK    3  A    between atoms: N_7  and  C_8
REMARK    4  A    between atoms: C_15  and  C_16
REMARK    5  A    between atoms: C_25  and  C_26
REMARK                            x       y       z     vdW  Elec       q    Type
REMARK                         _______ _______ _______ _____ _____    ______ ____
ROOT
ATOM      1  C   UNL     1      -2.601  11.561  17.533  0.00  0.00    +0.000 C 
ATOM      2  C   UNL     1      -1.722  10.824  18.224  0.00  0.00    +0.000 C 
ENDROOT
BRANCH   1   4
ATOM      3  O   UNL     1      -3.319  10.522  15.537  0.00  0.00    +0.000 OA
ATOM      4  C   UNL     1      -3.622  10.932  16.659  0.00  0.00    +0.000 C 
ATOM      5  N   UNL     1      -4.882  10.710  17.135  0.00  0.00    +0.000 N 
ATOM      6  C   UNL     1      -5.410  11.187  18.298  0.00  0.00    +0.000 A 
ATOM      7  N   UNL     1      -4.966  12.157  19.052  0.00  0.00    +0.000 NA
ATOM      8  C   UNL     1      -5.728  12.244  20.206  0.00  0.00    +0.000 A 
ATOM      9  C   UNL     1      -6.760  11.325  20.279  0.00  0.00    +0.000 A 
ATOM     10  S   UNL     1      -6.820  10.396  18.833  0.00  0.00    +0.000 S 
ATOM     11  H   UNL     1      -5.456  10.093  16.579  0.00  0.00    +0.000 HD
BRANCH   8  12
ATOM     12  C   UNL     1      -5.429  13.222  21.249  0.00  0.00    +0.000 A 
ATOM     13  C   UNL     1      -4.411  14.158  21.068  0.00  0.00    +0.000 A 
ATOM     14  C   UNL     1      -4.154  15.077  22.080  0.00  0.00    +0.000 A 
ATOM     15  C   UNL     1      -4.914  15.036  23.242  0.00  0.00    +0.000 A 
ATOM     16  C   UNL     1      -5.905  14.073  23.343  0.00  0.00    +0.000 A 
ATOM     17  N   UNL     1      -6.182  13.168  22.378  0.00  0.00    +0.000 NA
ENDBRANCH   8  12
ENDBRANCH   1   4
BRANCH   2  18
ATOM     18  C   UNL     1      -0.792  11.412  19.124  0.00  0.00    +0.000 A 
ATOM     19  C   UNL     1      -1.017  12.598  19.774  0.00  0.00    +0.000 A 
ATOM     20  N   UNL     1       0.068  12.817  20.588  0.00  0.00    +0.000 N 
ATOM     21  N   UNL     1       0.970  11.806  20.495  0.00  0.00    +0.000 NA
ATOM     22  C   UNL     1       0.460  10.934  19.606  0.00  0.00    +0.000 A 
BRANCH  20  23
ATOM     23  C   UNL     1       0.291  13.931  21.446  0.00  0.00    +0.000 A 
ATOM     24  C   UNL     1      -0.661  14.307  22.406  0.00  0.00    +0.000 A 
ATOM     25  C   UNL     1      -0.433  15.417  23.223  0.00  0.00    +0.000 A 
ATOM     26  C   UNL     1       0.739  16.159  23.088  0.00  0.00    +0.000 A 
ATOM     27  C   UNL     1       1.692  15.787  22.142  0.00  0.00    +0.000 A 
ATOM     28  C   UNL     1       1.475  14.673  21.327  0.00  0.00    +0.000 A 
ENDBRANCH  20  23
BRANCH  22  29
ATOM     29  C   UNL     1       1.175   9.698  19.274  0.00  0.00    +0.000 A 
ATOM     30  C   UNL     1       1.698   9.480  17.993  0.00  0.00    +0.000 A 
ATOM     31  C   UNL     1       2.369   8.292  17.703  0.00  0.00    +0.000 A 
ATOM     32  C   UNL     1       2.502   7.348  18.708  0.00  0.00    +0.000 A 
ATOM     33  N   UNL     1       2.016   7.513  19.952  0.00  0.00    +0.000 NA
ATOM     34  C   UNL     1       1.362   8.677  20.203  0.00  0.00    +0.000 A 
ENDBRANCH  22  29
ENDBRANCH   2  18
TORSDOF 5
ENDMDL
MODEL 7
REMARK VINA RESULT:      -7.1      2.190      4.259
REMARK  Name = 
REMARK  5 active torsions:
REMARK  status: ('A' for Active; 'I' for Inactive)
REMARK    1  A    between atoms: C_2  and  C_3
REMARK    2  A    between atoms: C_4  and  C_5
REMARK    3  A    between atoms: N_7  and  C_8
REMARK    4  A    between atoms: C_15  and  C_16
REMARK    5  A    between atoms: C_25  and  C_26
REMARK                            x       y       z     vdW  Elec       q    Type
REMARK                         _______ _______ _______ _____ _____    ______ ____
ROOT
ATOM      1  C   UNL     1      -2.891  14.641  23.147  0.00  0.00    +0.000 C 
ATOM      2  C   UNL     1      -1.566  14.482  23.029  0.00  0.00    +0.000 C 
ENDROOT
BRANCH   1   4
ATOM      3  O   UNL     1      -2.976  15.075  25.467  0.00  0.00    +0.000 OA
ATOM      4  C   UNL     1      -3.557  14.636  24.473  0.00  0.00    +0.000 C 
ATOM      5  N   UNL     1      -4.859  14.239  24.579  0.00  0.00    +0.000 N 
ATOM      6  C   UNL     1      -5.607  13.633  23.615  0.00  0.00    +0.000 A 
ATOM      7  N   UNL     1      -5.200  13.052  22.517  0.00  0.00    +0.000 NA
ATOM      8  C   UNL     1      -6.291  12.670  21.753  0.00  0.00    +0.000 A 
ATOM      9  C   UNL     1      -7.518  12.967  22.321  0.00  0.00    +0.000 A 
ATOM     10  S   UNL     1      -7.290  13.660  23.878  0.00  0.00    +0.000 S 
ATOM     11  H   UNL     1      -5.313  14.461  25.454  0.00  0.00    +0.000 HD
BRANCH   8  12
ATOM     12  C   UNL     1      -6.126  12.027  20.451  0.00  0.00    +0.000 A 
ATOM     13  C   UNL     1      -6.995  11.013  20.051  0.00  0.00    +0.000 A 
ATOM     14  C   UNL     1      -6.812  10.424  18.804  0.00  0.00    +0.000 A 
ATOM     15  C   UNL     1      -5.769  10.858  17.995  0.00  0.00    +0.000 A 
ATOM     16  C   UNL     1      -4.950  11.870  18.470  0.00  0.00    +0.000 A 
ATOM     17  N   UNL     1      -5.102  12.465  19.674  0.00  0.00    +0.000 NA
ENDBRANCH   8  12
ENDBRANCH   1   4
BRANCH   2  18
ATOM     18  C   UNL     1      -0.909  14.565  21.771  0.00  0.00    +0.000 A 
ATOM     19  C   UNL     1      -0.750  15.738  21.078  0.00  0.00    +0.000 A 
ATOM     20  N   UNL     1      -0.031  15.436  19.947  0.00  0.00    +0.000 N 
ATOM     21  N   UNL     1       0.289  14.117  19.900  0.00  0.00    +0.000 NA
ATOM     22  C   UNL     1      -0.237  13.567  21.010  0.00  0.00    +0.000 A 
BRANCH  20  23
ATOM     23  C   UNL     1       0.366  16.330  18.913  0.00  0.00    +0.000 A 
ATOM     24  C   UNL     1       1.710  16.434  18.523  0.00  0.00    +0.000 A 
ATOM     25  C   UNL     1       2.084  17.334  17.522  0.00  0.00    +0.000 A 
ATOM     26  C   UNL     1       1.125  18.137  16.909  0.00  0.00    +0.000 A 
ATOM     27  C   UNL     1      -0.212  18.036  17.286  0.00  0.00    +0.000 A 
ATOM     28  C   UNL     1      -0.595  17.132  18.280  0.00  0.00    +0.000 A 
ENDBRANCH  20  23
BRANCH  22  29
ATOM     29  C   UNL     1      -0.063  12.140  21.294  0.00  0.00    +0.000 A 
ATOM     30  C   UNL     1      -0.698  11.530  22.382  0.00  0.00    +0.000 A 
ATOM     31  C   UNL     1      -0.510  10.171  22.634  0.00  0.00    +0.000 A 
ATOM     32  C   UNL     1       0.312   9.452  21.781  0.00  0.00    +0.000 A 
ATOM     33  N   UNL     1       0.942   9.994  20.723  0.00  0.00    +0.000 NA
ATOM     34  C   UNL     1       0.745  11.320  20.509  0.00  0.00    +0.000 A 
ENDBRANCH  22  29
ENDBRANCH   2  18
TORSDOF 5
ENDMDL
MODEL 8
REMARK VINA RESULT:      -7.1      2.666      5.166
REMARK  Name = 
REMARK  5 active torsions:
REMARK  status: ('A' for Active; 'I' for Inactive)
REMARK    1  A    between atoms: C_2  and  C_3
REMARK    2  A    between atoms: C_4  and  C_5
REMARK    3  A    between atoms: N_7  and  C_8
REMARK    4  A    between atoms: C_15  and  C_16
REMARK    5  A    between atoms: C_25  and  C_26
REMARK                            x       y       z     vdW  Elec       q    Type
REMARK                         _______ _______ _______ _____ _____    ______ ____
ROOT
ATOM      1  C   UNL     1      -3.734  14.012  21.272  0.00  0.00    +0.000 C 
ATOM      2  C   UNL     1      -2.673  13.211  21.436  0.00  0.00    +0.000 C 
ENDROOT
BRANCH   1   4
ATOM      3  O   UNL     1      -5.162  14.283  23.134  0.00  0.00    +0.000 OA
ATOM      4  C   UNL     1      -4.998  13.789  22.017  0.00  0.00    +0.000 C 
ATOM      5  N   UNL     1      -6.029  13.119  21.423  0.00  0.00    +0.000 N 
ATOM      6  C   UNL     1      -5.982  12.426  20.251  0.00  0.00    +0.000 A 
ATOM      7  N   UNL     1      -4.931  12.008  19.596  0.00  0.00    +0.000 NA
ATOM      8  C   UNL     1      -5.318  11.449  18.389  0.00  0.00    +0.000 A 
ATOM      9  C   UNL     1      -6.685  11.446  18.174  0.00  0.00    +0.000 A 
ATOM     10  S   UNL     1      -7.496  12.080  19.551  0.00  0.00    +0.000 S 
ATOM     11  H   UNL     1      -6.921  13.189  21.890  0.00  0.00    +0.000 HD
BRANCH   8  12
ATOM     12  C   UNL     1      -4.338  10.932  17.436  0.00  0.00    +0.000 A 
ATOM     13  C   UNL     1      -3.239  10.200  17.882  0.00  0.00    +0.000 A 
ATOM     14  C   UNL     1      -2.326   9.721  16.947  0.00  0.00    +0.000 A 
ATOM     15  C   UNL     1      -2.534   9.985  15.600  0.00  0.00    +0.000 A 
ATOM     16  C   UNL     1      -3.651  10.721  15.241  0.00  0.00    +0.000 A 
ATOM     17  N   UNL     1      -4.558  11.199  16.123  0.00  0.00    +0.000 NA
ENDBRANCH   8  12
ENDBRANCH   1   4
BRANCH   2  18
ATOM     18  C   UNL     1      -1.434  13.463  20.789  0.00  0.00    +0.000 A 
ATOM     19  C   UNL     1      -1.153  14.628  20.123  0.00  0.00    +0.000 A 
ATOM     20  N   UNL     1       0.143  14.529  19.678  0.00  0.00    +0.000 N 
ATOM     21  N   UNL     1       0.706  13.350  20.050  0.00  0.00    +0.000 NA
ATOM     22  C   UNL     1      -0.243  12.685  20.734  0.00  0.00    +0.000 A 
BRANCH  20  23
ATOM     23  C   UNL     1       0.872  15.490  18.922  0.00  0.00    +0.000 A 
ATOM     24  C   UNL     1       2.208  15.262  18.557  0.00  0.00    +0.000 A 
ATOM     25  C   UNL     1       2.913  16.227  17.834  0.00  0.00    +0.000 A 
ATOM     26  C   UNL     1       2.296  17.424  17.476  0.00  0.00    +0.000 A 
ATOM     27  C   UNL     1       0.968  17.656  17.829  0.00  0.00    +0.000 A 
ATOM     28  C   UNL     1       0.253  16.691  18.544  0.00  0.00    +0.000 A 
ENDBRANCH  20  23
BRANCH  22  29
ATOM     29  C   UNL     1       0.034  11.364  21.306  0.00  0.00    +0.000 A 
ATOM     30  C   UNL     1      -0.446  11.003  22.571  0.00  0.00    +0.000 A 
ATOM     31  C   UNL     1      -0.162   9.742  23.095  0.00  0.00    +0.000 A 
ATOM     32  C   UNL     1       0.596   8.867  22.333  0.00  0.00    +0.000 A 
ATOM     33  N   UNL     1       1.077   9.170  21.114  0.00  0.00    +0.000 NA
ATOM     34  C   UNL     1       0.791  10.407  20.634  0.00  0.00    +0.000 A 
ENDBRANCH  22  29
ENDBRANCH   2  18
TORSDOF 5
ENDMDL
MODEL 9
REMARK VINA RESULT:      -7.1      2.657      4.269
REMARK  Name = 
REMARK  5 active torsions:
REMARK  status: ('A' for Active; 'I' for Inactive)
REMARK    1  A    between atoms: C_2  and  C_3
REMARK    2  A    between atoms: C_4  and  C_5
REMARK    3  A    between atoms: N_7  and  C_8
REMARK    4  A    between atoms: C_15  and  C_16
REMARK    5  A    between atoms: C_25  and  C_26
REMARK                            x       y       z     vdW  Elec       q    Type
REMARK                         _______ _______ _______ _____ _____    ______ ____
ROOT
ATOM      1  C   UNL     1      -4.535  12.769  21.838  0.00  0.00    +0.000 C 
ATOM      2  C   UNL     1      -3.602  13.688  21.556  0.00  0.00    +0.000 C 
ENDROOT
BRANCH   1   4
ATOM      3  O   UNL     1      -6.429  13.429  23.084  0.00  0.00    +0.000 OA
ATOM      4  C   UNL     1      -5.966  13.134  21.980  0.00  0.00    +0.000 C 
ATOM      5  N   UNL     1      -6.754  13.248  20.872  0.00  0.00    +0.000 N 
ATOM      6  C   UNL     1      -6.436  12.863  19.603  0.00  0.00    +0.000 A 
ATOM      7  N   UNL     1      -5.474  12.069  19.213  0.00  0.00    +0.000 NA
ATOM      8  C   UNL     1      -5.422  12.036  17.829  0.00  0.00    +0.000 A 
ATOM      9  C   UNL     1      -6.383  12.811  17.203  0.00  0.00    +0.000 A 
ATOM     10  S   UNL     1      -7.417  13.523  18.377  0.00  0.00    +0.000 S 
ATOM     11  H   UNL     1      -7.644  13.703  21.014  0.00  0.00    +0.000 HD
BRANCH   8  12
ATOM     12  C   UNL     1      -4.413  11.253  17.120  0.00  0.00    +0.000 A 
ATOM     13  C   UNL     1      -3.552  10.410  17.822  0.00  0.00    +0.000 A 
ATOM     14  C   UNL     1      -2.604   9.677  17.115  0.00  0.00    +0.000 A 
ATOM     15  C   UNL     1      -2.539   9.806  15.734  0.00  0.00    +0.000 A 
ATOM     16  C   UNL     1      -3.430  10.667  15.114  0.00  0.00    +0.000 A 
ATOM     17  N   UNL     1      -4.364  11.391  15.769  0.00  0.00    +0.000 NA
ENDBRANCH   8  12
ENDBRANCH   1   4
BRANCH   2  18
ATOM     18  C   UNL     1      -2.242  13.336  21.339  0.00  0.00    +0.000 A 
ATOM     19  C   UNL     1      -1.832  12.484  20.346  0.00  0.00    +0.000 A 
ATOM     20  N   UNL     1      -0.461  12.428  20.414  0.00  0.00    +0.000 N 
ATOM     21  N   UNL     1       0.021  13.225  21.402  0.00  0.00    +0.000 NA
ATOM     22  C   UNL     1      -1.055  13.793  21.978  0.00  0.00    +0.000 A 
BRANCH  20  23
ATOM     23  C   UNL     1       0.412  11.660  19.592  0.00  0.00    +0.000 A 
ATOM     24  C   UNL     1       1.469  12.266  18.896  0.00  0.00    +0.000 A 
ATOM     25  C   UNL     1       2.301  11.498  18.076  0.00  0.00    +0.000 A 
ATOM     26  C   UNL     1       2.084  10.128  17.943  0.00  0.00    +0.000 A 
ATOM     27  C   UNL     1       1.041   9.518  18.636  0.00  0.00    +0.000 A 
ATOM     28  C   UNL     1       0.209  10.278  19.465  0.00  0.00    +0.000 A 
ENDBRANCH  20  23
BRANCH  22  29
ATOM     29  C   UNL     1      -0.898  14.741  23.085  0.00  0.00    +0.000 A 
ATOM     30  C   UNL     1      -1.557  14.550  24.307  0.00  0.00    +0.000 A 
ATOM     31  C   UNL     1      -1.396  15.471  25.341  0.00  0.00    +0.000 A 
ATOM     32  C   UNL     1      -0.571  16.564  25.128  0.00  0.00    +0.000 A 
ATOM     33  N   UNL     1       0.082  16.788  23.973  0.00  0.00    +0.000 NA
ATOM     34  C   UNL     1      -0.101  15.878  22.982  0.00  0.00    +0.000 A 
ENDBRANCH  22  29
ENDBRANCH   2  18
TORSDOF 5
ENDMDL
