MODEL 1
REMARK VINA RESULT:      -8.0      0.000      0.000
REMARK  Name = 
REMARK  5 active torsions:
REMARK  status: ('A' for Active; 'I' for Inactive)
REMARK    1  A    between atoms: C_1  and  C_2
REMARK    2  A    between atoms: C_3  and  C_4
REMARK    3  A    between atoms: C_8  and  O_9
REMARK    4  A    between atoms: O_9  and  C_10
REMARK    5  A    between atoms: C_10  and  C_11
REMARK                            x       y       z     vdW  Elec       q    Type
REMARK                         _______ _______ _______ _____ _____    ______ ____
ROOT
ATOM      1  C   UNL     1       0.920   2.832  20.075  0.00  0.00    +0.000 C 
ATOM      2  C   UNL     1       2.241   3.353  19.572  0.00  0.00    +0.000 A 
ATOM      3  C   UNL     1       2.429   4.054  18.432  0.00  0.00    +0.000 A 
ATOM      4  C   UNL     1       1.344   4.395  17.444  0.00  0.00    +0.000 C 
ATOM      5  C   UNL     1       3.781   4.562  18.126  0.00  0.00    +0.000 A 
ATOM      6  C   UNL     1       4.061   5.401  17.037  0.00  0.00    +0.000 A 
ATOM      7  C   UNL     1       5.346   5.917  16.821  0.00  0.00    +0.000 A 
ATOM      8  C   UNL     1       6.387   5.561  17.672  0.00  0.00    +0.000 A 
ATOM      9  C   UNL     1       6.132   4.718  18.751  0.00  0.00    +0.000 A 
ATOM     10  C   UNL     1       4.838   4.240  18.969  0.00  0.00    +0.000 A 
ATOM     11  O   UNL     1       4.644   3.438  20.103  0.00  0.00    +0.000 OA
ATOM     12  C   UNL     1       3.377   3.026  20.488  0.00  0.00    +0.000 A 
ATOM     13  O   UNL     1       3.206   2.402  21.528  0.00  0.00    +0.000 OA
ENDROOT
BRANCH   8  14
ATOM     14  O   UNL     1       7.670   6.012  17.577  0.00  0.00    +0.000 OA
BRANCH  14  15
ATOM     15  C   UNL     1       8.143   6.834  18.641  0.00  0.00    +0.000 C 
BRANCH  15  16
ATOM     16  C   UNL     1       8.240   8.279  18.163  0.00  0.00    +0.000 C 
ATOM     17  O   UNL     1       7.757   8.595  17.068  0.00  0.00    +0.000 OA
ATOM     18  N   UNL     1       8.950   9.107  19.002  0.00  0.00    +0.000 N 
ATOM     19  C   UNL     1       9.125  10.424  18.702  0.00  0.00    +0.000 A 
ATOM     20  N   UNL     1       8.468  11.146  17.837  0.00  0.00    +0.000 NA
ATOM     21  C   UNL     1       9.047  12.391  17.746  0.00  0.00    +0.000 A 
ATOM     22  C   UNL     1      10.145  12.591  18.556  0.00  0.00    +0.000 A 
ATOM     23  S   UNL     1      10.401  11.200  19.534  0.00  0.00    +0.000 S 
ATOM     24  H   UNL     1       9.484   8.706  19.765  0.00  0.00    +0.000 HD
ENDBRANCH  15  16
ENDBRANCH  14  15
ENDBRANCH   8  14
TORSDOF 3
ENDMDL
MODEL 2
REMARK VINA RESULT:      -7.8      6.319      7.867
REMARK  Name = 
REMARK  5 active torsions:
REMARK  status: ('A' for Active; 'I' for Inactive)
REMARK    1  A    between atoms: C_1  and  C_2
REMARK    2  A    between atoms: C_3  and  C_4
REMARK    3  A    between atoms: C_8  and  O_9
REMARK    4  A    between atoms: O_9  and  C_10
REMARK    5  A    between atoms: C_10  and  C_11
REMARK                            x       y       z     vdW  Elec       q    Type
REMARK                         _______ _______ _______ _____ _____    ______ ____
ROOT
ATOM      1  C   UNL     1       3.604   1.728  18.756  0.00  0.00    +0.000 C 
ATOM      2  C   UNL     1       3.176   3.171  18.820  0.00  0.00    +0.000 A 
ATOM      3  C   UNL     1       2.450   3.734  19.811  0.00  0.00    +0.000 A 
ATOM      4  C   UNL     1       1.906   2.993  21.005  0.00  0.00    +0.000 C 
ATOM      5  C   UNL     1       2.184   5.185  19.760  0.00  0.00    +0.000 A 
ATOM      6  C   UNL     1       1.548   5.889  20.793  0.00  0.00    +0.000 A 
ATOM      7  C   UNL     1       1.376   7.279  20.735  0.00  0.00    +0.000 A 
ATOM      8  C   UNL     1       1.800   7.983  19.613  0.00  0.00    +0.000 A 
ATOM      9  C   UNL     1       2.421   7.300  18.569  0.00  0.00    +0.000 A 
ATOM     10  C   UNL     1       2.612   5.919  18.660  0.00  0.00    +0.000 A 
ATOM     11  O   UNL     1       3.290   5.304  17.596  0.00  0.00    +0.000 OA
ATOM     12  C   UNL     1       3.653   3.967  17.648  0.00  0.00    +0.000 A 
ATOM     13  O   UNL     1       4.323   3.462  16.756  0.00  0.00    +0.000 OA
ENDROOT
BRANCH   8  14
ATOM     14  O   UNL     1       1.707   9.333  19.448  0.00  0.00    +0.000 OA
BRANCH  14  15
ATOM     15  C   UNL     1       1.138   9.793  18.225  0.00  0.00    +0.000 C 
BRANCH  15  16
ATOM     16  C   UNL     1      -0.291  10.264  18.473  0.00  0.00    +0.000 C 
ATOM     17  O   UNL     1      -0.731  10.299  19.629  0.00  0.00    +0.000 OA
ATOM     18  N   UNL     1      -1.002  10.544  17.329  0.00  0.00    +0.000 N 
ATOM     19  C   UNL     1      -2.294  10.970  17.394  0.00  0.00    +0.000 A 
ATOM     20  N   UNL     1      -2.933  11.445  18.427  0.00  0.00    +0.000 NA
ATOM     21  C   UNL     1      -4.257  11.629  18.101  0.00  0.00    +0.000 A 
ATOM     22  C   UNL     1      -4.600  11.287  16.810  0.00  0.00    +0.000 A 
ATOM     23  S   UNL     1      -3.191  10.806  15.948  0.00  0.00    +0.000 S 
ATOM     24  H   UNL     1      -0.620  10.281  16.427  0.00  0.00    +0.000 HD
ENDBRANCH  15  16
ENDBRANCH  14  15
ENDBRANCH   8  14
TORSDOF 3
ENDMDL
MODEL 3
REMARK VINA RESULT:      -7.5      6.214      7.613
REMARK  Name = 
REMARK  5 active torsions:
REMARK  status: ('A' for Active; 'I' for Inactive)
REMARK    1  A    between atoms: C_1  and  C_2
REMARK    2  A    between atoms: C_3  and  C_4
REMARK    3  A    between atoms: C_8  and  O_9
REMARK    4  A    between atoms: O_9  and  C_10
REMARK    5  A    between atoms: C_10  and  C_11
REMARK                            x       y       z     vdW  Elec       q    Type
REMARK                         _______ _______ _______ _____ _____    ______ ____
ROOT
ATOM      1  C   UNL     1       3.483   1.856  17.732  0.00  0.00    +0.000 C 
ATOM      2  C   UNL     1       3.135   3.233  18.234  0.00  0.00    +0.000 A 
ATOM      3  C   UNL     1       3.528   4.398  17.674  0.00  0.00    +0.000 A 
ATOM      4  C   UNL     1       4.424   4.513  16.468  0.00  0.00    +0.000 C 
ATOM      5  C   UNL     1       3.030   5.665  18.246  0.00  0.00    +0.000 A 
ATOM      6  C   UNL     1       3.275   6.920  17.671  0.00  0.00    +0.000 A 
ATOM      7  C   UNL     1       2.726   8.092  18.208  0.00  0.00    +0.000 A 
ATOM      8  C   UNL     1       1.956   8.029  19.365  0.00  0.00    +0.000 A 
ATOM      9  C   UNL     1       1.713   6.793  19.960  0.00  0.00    +0.000 A 
ATOM     10  C   UNL     1       2.242   5.632  19.391  0.00  0.00    +0.000 A 
ATOM     11  O   UNL     1       1.914   4.418  20.013  0.00  0.00    +0.000 OA
ATOM     12  C   UNL     1       2.271   3.201  19.454  0.00  0.00    +0.000 A 
ATOM     13  O   UNL     1       1.903   2.145  19.955  0.00  0.00    +0.000 OA
ENDROOT
BRANCH   8  14
ATOM     14  O   UNL     1       1.354   9.093  19.969  0.00  0.00    +0.000 OA
BRANCH  14  15
ATOM     15  C   UNL     1       1.214  10.279  19.190  0.00  0.00    +0.000 C 
BRANCH  15  16
ATOM     16  C   UNL     1      -0.262  10.652  19.093  0.00  0.00    +0.000 C 
ATOM     17  O   UNL     1      -0.921  10.816  20.127  0.00  0.00    +0.000 OA
ATOM     18  N   UNL     1      -0.751  10.697  17.808  0.00  0.00    +0.000 N 
ATOM     19  C   UNL     1      -2.054  11.012  17.566  0.00  0.00    +0.000 A 
ATOM     20  N   UNL     1      -2.909  11.574  18.374  0.00  0.00    +0.000 NA
ATOM     21  C   UNL     1      -4.154  11.590  17.786  0.00  0.00    +0.000 A 
ATOM     22  C   UNL     1      -4.217  11.034  16.525  0.00  0.00    +0.000 A 
ATOM     23  S   UNL     1      -2.641  10.559  16.025  0.00  0.00    +0.000 S 
ATOM     24  H   UNL     1      -0.186  10.340  17.045  0.00  0.00    +0.000 HD
ENDBRANCH  15  16
ENDBRANCH  14  15
ENDBRANCH   8  14
TORSDOF 3
ENDMDL
MODEL 4
REMARK VINA RESULT:      -7.4      6.401      7.814
REMARK  Name = 
REMARK  5 active torsions:
REMARK  status: ('A' for Active; 'I' for Inactive)
REMARK    1  A    between atoms: C_1  and  C_2
REMARK    2  A    between atoms: C_3  and  C_4
REMARK    3  A    between atoms: C_8  and  O_9
REMARK    4  A    between atoms: O_9  and  C_10
REMARK    5  A    between atoms: C_10  and  C_11
REMARK                            x       y       z     vdW  Elec       q    Type
REMARK                         _______ _______ _______ _____ _____    ______ ____
ROOT
ATOM      1  C   UNL     1       5.927   4.108  16.257  0.00  0.00    +0.000 C 
ATOM      2  C   UNL     1       4.924   4.912  17.041  0.00  0.00    +0.000 A 
ATOM      3  C   UNL     1       4.173   4.451  18.066  0.00  0.00    +0.000 A 
ATOM      4  C   UNL     1       4.184   3.031  18.570  0.00  0.00    +0.000 C 
ATOM      5  C   UNL     1       3.293   5.397  18.783  0.00  0.00    +0.000 A 
ATOM      6  C   UNL     1       2.567   5.053  19.933  0.00  0.00    +0.000 A 
ATOM      7  C   UNL     1       1.798   5.999  20.623  0.00  0.00    +0.000 A 
ATOM      8  C   UNL     1       1.706   7.301  20.141  0.00  0.00    +0.000 A 
ATOM      9  C   UNL     1       2.408   7.658  18.993  0.00  0.00    +0.000 A 
ATOM     10  C   UNL     1       3.196   6.709  18.337  0.00  0.00    +0.000 A 
ATOM     11  O   UNL     1       3.916   7.151  17.217  0.00  0.00    +0.000 OA
ATOM     12  C   UNL     1       4.832   6.330  16.577  0.00  0.00    +0.000 A 
ATOM     13  O   UNL     1       5.521   6.753  15.657  0.00  0.00    +0.000 OA
ENDROOT
BRANCH   8  14
ATOM     14  O   UNL     1       1.007   8.312  20.733  0.00  0.00    +0.000 OA
BRANCH  14  15
ATOM     15  C   UNL     1       1.506   8.793  21.979  0.00  0.00    +0.000 C 
BRANCH  15  16
ATOM     16  C   UNL     1       0.509   9.782  22.577  0.00  0.00    +0.000 C 
ATOM     17  O   UNL     1       0.192   9.684  23.768  0.00  0.00    +0.000 OA
ATOM     18  N   UNL     1      -0.013  10.676  21.671  0.00  0.00    +0.000 N 
ATOM     19  C   UNL     1      -0.920  11.616  22.060  0.00  0.00    +0.000 A 
ATOM     20  N   UNL     1      -1.197  12.014  23.270  0.00  0.00    +0.000 NA
ATOM     21  C   UNL     1      -2.266  12.879  23.234  0.00  0.00    +0.000 A 
ATOM     22  C   UNL     1      -2.785  13.124  21.980  0.00  0.00    +0.000 A 
ATOM     23  S   UNL     1      -1.837  12.312  20.797  0.00  0.00    +0.000 S 
ATOM     24  H   UNL     1       0.151  10.537  20.680  0.00  0.00    +0.000 HD
ENDBRANCH  15  16
ENDBRANCH  14  15
ENDBRANCH   8  14
TORSDOF 3
ENDMDL
MODEL 5
REMARK VINA RESULT:      -7.4      5.752      7.115
REMARK  Name = 
REMARK  5 active torsions:
REMARK  status: ('A' for Active; 'I' for Inactive)
REMARK    1  A    between atoms: C_1  and  C_2
REMARK    2  A    between atoms: C_3  and  C_4
REMARK    3  A    between atoms: C_8  and  O_9
REMARK    4  A    between atoms: O_9  and  C_10
REMARK    5  A    between atoms: C_10  and  C_11
REMARK                            x       y       z     vdW  Elec       q    Type
REMARK                         _______ _______ _______ _____ _____    ______ ____
ROOT
ATOM      1  C   UNL     1      -1.019  12.150  22.046  0.00  0.00    +0.000 C 
ATOM      2  C   UNL     1      -0.293  10.947  21.502  0.00  0.00    +0.000 A 
ATOM      3  C   UNL     1       0.022  10.737  20.205  0.00  0.00    +0.000 A 
ATOM      4  C   UNL     1      -0.343  11.661  19.072  0.00  0.00    +0.000 C 
ATOM      5  C   UNL     1       0.809   9.540  19.850  0.00  0.00    +0.000 A 
ATOM      6  C   UNL     1       1.293   9.290  18.557  0.00  0.00    +0.000 A 
ATOM      7  C   UNL     1       2.095   8.176  18.278  0.00  0.00    +0.000 A 
ATOM      8  C   UNL     1       2.388   7.263  19.286  0.00  0.00    +0.000 A 
ATOM      9  C   UNL     1       1.904   7.485  20.573  0.00  0.00    +0.000 A 
ATOM     10  C   UNL     1       1.133   8.619  20.839  0.00  0.00    +0.000 A 
ATOM     11  O   UNL     1       0.724   8.806  22.168  0.00  0.00    +0.000 OA
ATOM     12  C   UNL     1       0.075   9.965  22.568  0.00  0.00    +0.000 A 
ATOM     13  O   UNL     1      -0.198  10.160  23.746  0.00  0.00    +0.000 OA
ENDROOT
BRANCH   8  14
ATOM     14  O   UNL     1       3.170   6.155  19.142  0.00  0.00    +0.000 OA
BRANCH  14  15
ATOM     15  C   UNL     1       2.546   4.995  18.598  0.00  0.00    +0.000 C 
BRANCH  15  16
ATOM     16  C   UNL     1       3.357   4.492  17.408  0.00  0.00    +0.000 C 
ATOM     17  O   UNL     1       3.031   3.440  16.846  0.00  0.00    +0.000 OA
ATOM     18  N   UNL     1       4.463   5.256  17.113  0.00  0.00    +0.000 N 
ATOM     19  C   UNL     1       5.286   4.927  16.079  0.00  0.00    +0.000 A 
ATOM     20  N   UNL     1       5.047   4.113  15.089  0.00  0.00    +0.000 NA
ATOM     21  C   UNL     1       6.190   3.958  14.338  0.00  0.00    +0.000 A 
ATOM     22  C   UNL     1       7.287   4.667  14.779  0.00  0.00    +0.000 A 
ATOM     23  S   UNL     1       6.841   5.636  16.129  0.00  0.00    +0.000 S 
ATOM     24  H   UNL     1       4.761   5.976  17.763  0.00  0.00    +0.000 HD
ENDBRANCH  15  16
ENDBRANCH  14  15
ENDBRANCH   8  14
TORSDOF 3
ENDMDL
MODEL 6
REMARK VINA RESULT:      -7.4      6.042      7.867
REMARK  Name = 
REMARK  5 active torsions:
REMARK  status: ('A' for Active; 'I' for Inactive)
REMARK    1  A    between atoms: C_1  and  C_2
REMARK    2  A    between atoms: C_3  and  C_4
REMARK    3  A    between atoms: C_8  and  O_9
REMARK    4  A    between atoms: O_9  and  C_10
REMARK    5  A    between atoms: C_10  and  C_11
REMARK                            x       y       z     vdW  Elec       q    Type
REMARK                         _______ _______ _______ _____ _____    ______ ____
ROOT
ATOM      1  C   UNL     1       5.637   3.715  15.908  0.00  0.00    +0.000 C 
ATOM      2  C   UNL     1       4.740   4.616  16.716  0.00  0.00    +0.000 A 
ATOM      3  C   UNL     1       3.917   4.220  17.712  0.00  0.00    +0.000 A 
ATOM      4  C   UNL     1       3.725   2.792  18.152  0.00  0.00    +0.000 C 
ATOM      5  C   UNL     1       3.163   5.246  18.460  0.00  0.00    +0.000 A 
ATOM      6  C   UNL     1       2.378   4.958  19.586  0.00  0.00    +0.000 A 
ATOM      7  C   UNL     1       1.733   5.971  20.308  0.00  0.00    +0.000 A 
ATOM      8  C   UNL     1       1.829   7.292  19.884  0.00  0.00    +0.000 A 
ATOM      9  C   UNL     1       2.592   7.597  18.759  0.00  0.00    +0.000 A 
ATOM     10  C   UNL     1       3.253   6.577  18.071  0.00  0.00    +0.000 A 
ATOM     11  O   UNL     1       4.046   6.963  16.979  0.00  0.00    +0.000 OA
ATOM     12  C   UNL     1       4.851   6.052  16.314  0.00  0.00    +0.000 A 
ATOM     13  O   UNL     1       5.607   6.414  15.421  0.00  0.00    +0.000 OA
ENDROOT
BRANCH   8  14
ATOM     14  O   UNL     1       1.265   8.363  20.512  0.00  0.00    +0.000 OA
BRANCH  14  15
ATOM     15  C   UNL     1       1.350   9.619  19.842  0.00  0.00    +0.000 C 
BRANCH  15  16
ATOM     16  C   UNL     1      -0.047  10.214  19.698  0.00  0.00    +0.000 C 
ATOM     17  O   UNL     1      -0.642  10.627  20.701  0.00  0.00    +0.000 OA
ATOM     18  N   UNL     1      -0.556  10.162  18.421  0.00  0.00    +0.000 N 
ATOM     19  C   UNL     1      -1.796  10.651  18.141  0.00  0.00    +0.000 A 
ATOM     20  N   UNL     1      -2.526  11.453  18.865  0.00  0.00    +0.000 NA
ATOM     21  C   UNL     1      -3.766  11.594  18.285  0.00  0.00    +0.000 A 
ATOM     22  C   UNL     1      -3.953  10.887  17.116  0.00  0.00    +0.000 A 
ATOM     23  S   UNL     1      -2.490  10.093  16.682  0.00  0.00    +0.000 S 
ATOM     24  H   UNL     1      -0.078   9.614  17.714  0.00  0.00    +0.000 HD
ENDBRANCH  15  16
ENDBRANCH  14  15
ENDBRANCH   8  14
TORSDOF 3
ENDMDL
MODEL 7
REMARK VINA RESULT:      -7.4      1.629      1.816
REMARK  Name = 
REMARK  5 active torsions:
REMARK  status: ('A' for Active; 'I' for Inactive)
REMARK    1  A    between atoms: C_1  and  C_2
REMARK    2  A    between atoms: C_3  and  C_4
REMARK    3  A    between atoms: C_8  and  O_9
REMARK    4  A    between atoms: O_9  and  C_10
REMARK    5  A    between atoms: C_10  and  C_11
REMARK                            x       y       z     vdW  Elec       q    Type
REMARK                         _______ _______ _______ _____ _____    ______ ____
ROOT
ATOM      1  C   UNL     1       0.745   3.351  19.702  0.00  0.00    +0.000 C 
ATOM      2  C   UNL     1       2.085   3.907  19.299  0.00  0.00    +0.000 A 
ATOM      3  C   UNL     1       2.915   3.370  18.377  0.00  0.00    +0.000 A 
ATOM      4  C   UNL     1       2.653   2.091  17.625  0.00  0.00    +0.000 C 
ATOM      5  C   UNL     1       4.161   4.088  18.040  0.00  0.00    +0.000 A 
ATOM      6  C   UNL     1       5.030   3.685  17.015  0.00  0.00    +0.000 A 
ATOM      7  C   UNL     1       6.167   4.433  16.682  0.00  0.00    +0.000 A 
ATOM      8  C   UNL     1       6.479   5.579  17.407  0.00  0.00    +0.000 A 
ATOM      9  C   UNL     1       5.636   5.988  18.438  0.00  0.00    +0.000 A 
ATOM     10  C   UNL     1       4.490   5.246  18.734  0.00  0.00    +0.000 A 
ATOM     11  O   UNL     1       3.660   5.744  19.750  0.00  0.00    +0.000 OA
ATOM     12  C   UNL     1       2.432   5.165  20.029  0.00  0.00    +0.000 A 
ATOM     13  O   UNL     1       1.675   5.659  20.854  0.00  0.00    +0.000 OA
ENDROOT
BRANCH   8  14
ATOM     14  O   UNL     1       7.542   6.397  17.167  0.00  0.00    +0.000 OA
BRANCH  14  15
ATOM     15  C   UNL     1       7.262   7.787  17.018  0.00  0.00    +0.000 C 
BRANCH  15  16
ATOM     16  C   UNL     1       8.171   8.591  17.942  0.00  0.00    +0.000 C 
ATOM     17  O   UNL     1       8.658   8.050  18.943  0.00  0.00    +0.000 OA
ATOM     18  N   UNL     1       8.304   9.915  17.594  0.00  0.00    +0.000 N 
ATOM     19  C   UNL     1       9.081  10.758  18.330  0.00  0.00    +0.000 A 
ATOM     20  N   UNL     1       9.992  10.448  19.210  0.00  0.00    +0.000 NA
ATOM     21  C   UNL     1      10.446  11.595  19.822  0.00  0.00    +0.000 A 
ATOM     22  C   UNL     1       9.863  12.766  19.387  0.00  0.00    +0.000 A 
ATOM     23  S   UNL     1       8.776  12.423  18.099  0.00  0.00    +0.000 S 
ATOM     24  H   UNL     1       7.698  10.308  16.882  0.00  0.00    +0.000 HD
ENDBRANCH  15  16
ENDBRANCH  14  15
ENDBRANCH   8  14
TORSDOF 3
ENDMDL
MODEL 8
REMARK VINA RESULT:      -7.4      6.191      7.585
REMARK  Name = 
REMARK  5 active torsions:
REMARK  status: ('A' for Active; 'I' for Inactive)
REMARK    1  A    between atoms: C_1  and  C_2
REMARK    2  A    between atoms: C_3  and  C_4
REMARK    3  A    between atoms: C_8  and  O_9
REMARK    4  A    between atoms: O_9  and  C_10
REMARK    5  A    between atoms: C_10  and  C_11
REMARK                            x       y       z     vdW  Elec       q    Type
REMARK                         _______ _______ _______ _____ _____    ______ ____
ROOT
ATOM      1  C   UNL     1       3.599   2.200  20.237  0.00  0.00    +0.000 C 
ATOM      2  C   UNL     1       3.265   3.641  19.956  0.00  0.00    +0.000 A 
ATOM      3  C   UNL     1       3.790   4.393  18.964  0.00  0.00    +0.000 A 
ATOM      4  C   UNL     1       4.841   3.920  17.992  0.00  0.00    +0.000 C 
ATOM      5  C   UNL     1       3.292   5.770  18.776  0.00  0.00    +0.000 A 
ATOM      6  C   UNL     1       3.679   6.590  17.706  0.00  0.00    +0.000 A 
ATOM      7  C   UNL     1       3.130   7.867  17.526  0.00  0.00    +0.000 A 
ATOM      8  C   UNL     1       2.213   8.363  18.448  0.00  0.00    +0.000 A 
ATOM      9  C   UNL     1       1.827   7.569  19.525  0.00  0.00    +0.000 A 
ATOM     10  C   UNL     1       2.361   6.286  19.669  0.00  0.00    +0.000 A 
ATOM     11  O   UNL     1       1.888   5.523  20.748  0.00  0.00    +0.000 OA
ATOM     12  C   UNL     1       2.248   4.193  20.903  0.00  0.00    +0.000 A 
ATOM     13  O   UNL     1       1.760   3.509  21.795  0.00  0.00    +0.000 OA
ENDROOT
BRANCH   8  14
ATOM     14  O   UNL     1       1.597   9.576  18.370  0.00  0.00    +0.000 OA
BRANCH  14  15
ATOM     15  C   UNL     1       1.033  10.088  19.575  0.00  0.00    +0.000 C 
BRANCH  15  16
ATOM     16  C   UNL     1      -0.394  10.557  19.309  0.00  0.00    +0.000 C 
ATOM     17  O   UNL     1      -1.113  10.894  20.257  0.00  0.00    +0.000 OA
ATOM     18  N   UNL     1      -0.778  10.483  17.990  0.00  0.00    +0.000 N 
ATOM     19  C   UNL     1      -2.027  10.862  17.602  0.00  0.00    +0.000 A 
ATOM     20  N   UNL     1      -2.891  11.581  18.264  0.00  0.00    +0.000 NA
ATOM     21  C   UNL     1      -4.080  11.619  17.573  0.00  0.00    +0.000 A 
ATOM     22  C   UNL     1      -4.094  10.920  16.384  0.00  0.00    +0.000 A 
ATOM     23  S   UNL     1      -2.531  10.272  16.079  0.00  0.00    +0.000 S 
ATOM     24  H   UNL     1      -0.188   9.994  17.325  0.00  0.00    +0.000 HD
ENDBRANCH  15  16
ENDBRANCH  14  15
ENDBRANCH   8  14
TORSDOF 3
ENDMDL
MODEL 9
REMARK VINA RESULT:      -7.4      6.336      7.441
REMARK  Name = 
REMARK  5 active torsions:
REMARK  status: ('A' for Active; 'I' for Inactive)
REMARK    1  A    between atoms: C_1  and  C_2
REMARK    2  A    between atoms: C_3  and  C_4
REMARK    3  A    between atoms: C_8  and  O_9
REMARK    4  A    between atoms: O_9  and  C_10
REMARK    5  A    between atoms: C_10  and  C_11
REMARK                            x       y       z     vdW  Elec       q    Type
REMARK                         _______ _______ _______ _____ _____    ______ ____
ROOT
ATOM      1  C   UNL     1       6.084   3.986  16.586  0.00  0.00    +0.000 C 
ATOM      2  C   UNL     1       5.152   4.854  17.390  0.00  0.00    +0.000 A 
ATOM      3  C   UNL     1       4.662   6.053  17.005  0.00  0.00    +0.000 A 
ATOM      4  C   UNL     1       5.008   6.747  15.713  0.00  0.00    +0.000 C 
ATOM      5  C   UNL     1       3.691   6.738  17.881  0.00  0.00    +0.000 A 
ATOM      6  C   UNL     1       3.032   7.923  17.522  0.00  0.00    +0.000 A 
ATOM      7  C   UNL     1       2.065   8.505  18.354  0.00  0.00    +0.000 A 
ATOM      8  C   UNL     1       1.777   7.929  19.588  0.00  0.00    +0.000 A 
ATOM      9  C   UNL     1       2.432   6.761  19.969  0.00  0.00    +0.000 A 
ATOM     10  C   UNL     1       3.369   6.178  19.111  0.00  0.00    +0.000 A 
ATOM     11  O   UNL     1       3.952   4.975  19.537  0.00  0.00    +0.000 OA
ATOM     12  C   UNL     1       4.787   4.243  18.706  0.00  0.00    +0.000 A 
ATOM     13  O   UNL     1       5.218   3.150  19.050  0.00  0.00    +0.000 OA
ENDROOT
BRANCH   8  14
ATOM     14  O   UNL     1       0.848   8.389  20.472  0.00  0.00    +0.000 OA
BRANCH  14  15
ATOM     15  C   UNL     1       1.289   8.614  21.809  0.00  0.00    +0.000 C 
BRANCH  15  16
ATOM     16  C   UNL     1       0.494   9.763  22.420  0.00  0.00    +0.000 C 
ATOM     17  O   UNL     1       0.273   9.775  23.637  0.00  0.00    +0.000 OA
ATOM     18  N   UNL     1       0.020  10.674  21.504  0.00  0.00    +0.000 N 
ATOM     19  C   UNL     1      -0.711  11.752  21.902  0.00  0.00    +0.000 A 
ATOM     20  N   UNL     1      -0.823  12.248  23.103  0.00  0.00    +0.000 NA
ATOM     21  C   UNL     1      -1.763  13.253  23.098  0.00  0.00    +0.000 A 
ATOM     22  C   UNL     1      -2.353  13.502  21.876  0.00  0.00    +0.000 A 
ATOM     23  S   UNL     1      -1.633  12.503  20.675  0.00  0.00    +0.000 S 
ATOM     24  H   UNL     1       0.075  10.461  20.514  0.00  0.00    +0.000 HD
ENDBRANCH  15  16
ENDBRANCH  14  15
ENDBRANCH   8  14
TORSDOF 3
ENDMDL
