MODEL 1
REMARK VINA RESULT:      -7.7      0.000      0.000
REMARK  Name = 
REMARK  3 active torsions:
REMARK  status: ('A' for Active; 'I' for Inactive)
REMARK    1  A    between atoms: N_3  and  C_4
REMARK    2  A    between atoms: N_11  and  C_12
REMARK    3  A    between atoms: C_15  and  C_16
REMARK                            x       y       z     vdW  Elec       q    Type
REMARK                         _______ _______ _______ _____ _____    ______ ____
ROOT
ATOM      1  O   UNL     1       1.707   8.173  18.702  0.00  0.00    +0.000 OA
ATOM      2  C   UNL     1       2.078   7.549  19.691  0.00  0.00    +0.000 C 
ATOM      3  N   UNL     1       1.707   7.848  20.994  0.00  0.00    +0.000 N 
ATOM      4  N   UNL     1       2.948   6.472  19.637  0.00  0.00    +0.000 N 
ATOM      5  H   UNL     1       2.248   7.410  21.723  0.00  0.00    +0.000 HD
ATOM      6  H   UNL     1       2.870   5.788  20.373  0.00  0.00    +0.000 HD
ENDROOT
BRANCH   3   7
ATOM      7  C   UNL     1       0.898   8.946  21.375  0.00  0.00    +0.000 A 
ATOM      8  C   UNL     1       0.929  10.187  20.727  0.00  0.00    +0.000 A 
ATOM      9  C   UNL     1       0.196  11.272  21.213  0.00  0.00    +0.000 A 
ATOM     10  C   UNL     1      -0.596  11.116  22.343  0.00  0.00    +0.000 A 
ATOM     11 CL   UNL     1      -1.458  12.463  22.974  0.00  0.00    +0.000 Cl
ATOM     12  C   UNL     1      -0.686   9.874  22.968  0.00  0.00    +0.000 A 
ATOM     13  C   UNL     1       0.054   8.788  22.480  0.00  0.00    +0.000 A 
ENDBRANCH   3   7
BRANCH   4  14
ATOM     14  C   UNL     1       3.668   6.095  18.478  0.00  0.00    +0.000 A 
ATOM     15  C   UNL     1       4.497   6.980  17.787  0.00  0.00    +0.000 A 
ATOM     16  C   UNL     1       5.186   6.577  16.639  0.00  0.00    +0.000 A 
ATOM     17  C   UNL     1       5.070   5.270  16.157  0.00  0.00    +0.000 A 
ATOM     18  C   UNL     1       4.253   4.377  16.865  0.00  0.00    +0.000 A 
ATOM     19  C   UNL     1       3.566   4.780  18.021  0.00  0.00    +0.000 A 
BRANCH  17  20
ATOM     20  C   UNL     1       5.792   4.870  14.957  0.00  0.00    +0.000 A 
ATOM     21  C   UNL     1       5.600   3.945  13.952  0.00  0.00    +0.000 A 
ATOM     22  N   UNL     1       6.627   3.999  13.047  0.00  0.00    +0.000 NA
ATOM     23  C   UNL     1       7.403   4.945  13.528  0.00  0.00    +0.000 A 
ATOM     24  O   UNL     1       6.967   5.524  14.680  0.00  0.00    +0.000 OA
ENDBRANCH  17  20
ENDBRANCH   4  14
TORSDOF 3
ENDMDL
MODEL 2
REMARK VINA RESULT:      -7.6      0.219      1.046
REMARK  Name = 
REMARK  3 active torsions:
REMARK  status: ('A' for Active; 'I' for Inactive)
REMARK    1  A    between atoms: N_3  and  C_4
REMARK    2  A    between atoms: N_11  and  C_12
REMARK    3  A    between atoms: C_15  and  C_16
REMARK                            x       y       z     vdW  Elec       q    Type
REMARK                         _______ _______ _______ _____ _____    ______ ____
ROOT
ATOM      1  O   UNL     1       1.571   8.134  18.881  0.00  0.00    +0.000 OA
ATOM      2  C   UNL     1       1.958   7.531  19.877  0.00  0.00    +0.000 C 
ATOM      3  N   UNL     1       1.620   7.866  21.179  0.00  0.00    +0.000 N 
ATOM      4  N   UNL     1       2.816   6.445  19.830  0.00  0.00    +0.000 N 
ATOM      5  H   UNL     1       2.172   7.441  21.908  0.00  0.00    +0.000 HD
ATOM      6  H   UNL     1       2.749   5.780  20.585  0.00  0.00    +0.000 HD
ENDROOT
BRANCH   3   7
ATOM      7  C   UNL     1       0.830   8.981  21.551  0.00  0.00    +0.000 A 
ATOM      8  C   UNL     1       0.873  10.212  20.885  0.00  0.00    +0.000 A 
ATOM      9  C   UNL     1       0.160  11.315  21.361  0.00  0.00    +0.000 A 
ATOM     10  C   UNL     1      -0.625  11.187  22.499  0.00  0.00    +0.000 A 
ATOM     11 CL   UNL     1      -1.462  12.556  23.117  0.00  0.00    +0.000 Cl
ATOM     12  C   UNL     1      -0.728   9.956  23.143  0.00  0.00    +0.000 A 
ATOM     13  C   UNL     1      -0.008   8.852  22.665  0.00  0.00    +0.000 A 
ENDBRANCH   3   7
BRANCH   4  14
ATOM     14  C   UNL     1       3.507   6.032  18.666  0.00  0.00    +0.000 A 
ATOM     15  C   UNL     1       3.431   4.729  18.169  0.00  0.00    +0.000 A 
ATOM     16  C   UNL     1       4.136   4.353  17.022  0.00  0.00    +0.000 A 
ATOM     17  C   UNL     1       4.929   5.275  16.333  0.00  0.00    +0.000 A 
ATOM     18  C   UNL     1       4.988   6.588  16.823  0.00  0.00    +0.000 A 
ATOM     19  C   UNL     1       4.275   6.968  17.971  0.00  0.00    +0.000 A 
BRANCH  17  20
ATOM     20  C   UNL     1       5.659   4.861  15.143  0.00  0.00    +0.000 A 
ATOM     21  C   UNL     1       5.460   3.943  14.133  0.00  0.00    +0.000 A 
ATOM     22  N   UNL     1       6.502   3.975  13.243  0.00  0.00    +0.000 NA
ATOM     23  C   UNL     1       7.292   4.901  13.738  0.00  0.00    +0.000 A 
ATOM     24  O   UNL     1       6.853   5.487  14.885  0.00  0.00    +0.000 OA
ENDBRANCH  17  20
ENDBRANCH   4  14
TORSDOF 3
ENDMDL
MODEL 3
REMARK VINA RESULT:      -7.4      1.052      1.200
REMARK  Name = 
REMARK  3 active torsions:
REMARK  status: ('A' for Active; 'I' for Inactive)
REMARK    1  A    between atoms: N_3  and  C_4
REMARK    2  A    between atoms: N_11  and  C_12
REMARK    3  A    between atoms: C_15  and  C_16
REMARK                            x       y       z     vdW  Elec       q    Type
REMARK                         _______ _______ _______ _____ _____    ______ ____
ROOT
ATOM      1  O   UNL     1       1.842   7.526  18.093  0.00  0.00    +0.000 OA
ATOM      2  C   UNL     1       2.443   7.111  19.079  0.00  0.00    +0.000 C 
ATOM      3  N   UNL     1       2.185   7.513  20.382  0.00  0.00    +0.000 N 
ATOM      4  N   UNL     1       3.485   6.202  19.017  0.00  0.00    +0.000 N 
ATOM      5  H   UNL     1       2.883   7.274  21.069  0.00  0.00    +0.000 HD
ATOM      6  H   UNL     1       3.628   5.618  19.827  0.00  0.00    +0.000 HD
ENDROOT
BRANCH   3   7
ATOM      7  C   UNL     1       1.238   8.497  20.755  0.00  0.00    +0.000 A 
ATOM      8  C   UNL     1       1.083   9.713  20.078  0.00  0.00    +0.000 A 
ATOM      9  C   UNL     1       0.215  10.698  20.554  0.00  0.00    +0.000 A 
ATOM     10  C   UNL     1      -0.527  10.463  21.704  0.00  0.00    +0.000 A 
ATOM     11 CL   UNL     1      -1.556  11.693  22.322  0.00  0.00    +0.000 Cl
ATOM     12  C   UNL     1      -0.431   9.237  22.360  0.00  0.00    +0.000 A 
ATOM     13  C   UNL     1       0.444   8.252  21.881  0.00  0.00    +0.000 A 
ENDBRANCH   3   7
BRANCH   4  14
ATOM     14  C   UNL     1       4.115   5.803  17.814  0.00  0.00    +0.000 A 
ATOM     15  C   UNL     1       4.799   6.699  16.989  0.00  0.00    +0.000 A 
ATOM     16  C   UNL     1       5.400   6.272  15.802  0.00  0.00    +0.000 A 
ATOM     17  C   UNL     1       5.344   4.931  15.412  0.00  0.00    +0.000 A 
ATOM     18  C   UNL     1       4.674   4.029  16.252  0.00  0.00    +0.000 A 
ATOM     19  C   UNL     1       4.075   4.456  17.448  0.00  0.00    +0.000 A 
BRANCH  17  20
ATOM     20  C   UNL     1       5.973   4.508  14.169  0.00  0.00    +0.000 A 
ATOM     21  C   UNL     1       7.178   4.747  13.542  0.00  0.00    +0.000 A 
ATOM     22  N   UNL     1       7.243   4.069  12.353  0.00  0.00    +0.000 NA
ATOM     23  C   UNL     1       6.086   3.449  12.296  0.00  0.00    +0.000 A 
ATOM     24  O   UNL     1       5.261   3.660  13.358  0.00  0.00    +0.000 OA
ENDBRANCH  17  20
ENDBRANCH   4  14
TORSDOF 3
ENDMDL
MODEL 4
REMARK VINA RESULT:      -7.4      0.391      1.054
REMARK  Name = 
REMARK  3 active torsions:
REMARK  status: ('A' for Active; 'I' for Inactive)
REMARK    1  A    between atoms: N_3  and  C_4
REMARK    2  A    between atoms: N_11  and  C_12
REMARK    3  A    between atoms: C_15  and  C_16
REMARK                            x       y       z     vdW  Elec       q    Type
REMARK                         _______ _______ _______ _____ _____    ______ ____
ROOT
ATOM      1  O   UNL     1       1.831   8.062  18.585  0.00  0.00    +0.000 OA
ATOM      2  C   UNL     1       2.239   7.453  19.568  0.00  0.00    +0.000 C 
ATOM      3  N   UNL     1       1.899   7.758  20.878  0.00  0.00    +0.000 N 
ATOM      4  N   UNL     1       3.125   6.391  19.500  0.00  0.00    +0.000 N 
ATOM      5  H   UNL     1       2.467   7.336  21.596  0.00  0.00    +0.000 HD
ATOM      6  H   UNL     1       3.079   5.712  20.244  0.00  0.00    +0.000 HD
ENDROOT
BRANCH   3   7
ATOM      7  C   UNL     1       1.083   8.846  21.271  0.00  0.00    +0.000 A 
ATOM      8  C   UNL     1       0.563   8.991  22.564  0.00  0.00    +0.000 A 
ATOM      9  C   UNL     1      -0.331  10.020  22.870  0.00  0.00    +0.000 A 
ATOM     10  C   UNL     1      -0.694  10.931  21.886  0.00  0.00    +0.000 A 
ATOM     11 CL   UNL     1      -1.833  12.167  22.246  0.00  0.00    +0.000 Cl
ATOM     12  C   UNL     1      -0.143  10.839  20.610  0.00  0.00    +0.000 A 
ATOM     13  C   UNL     1       0.751   9.803  20.305  0.00  0.00    +0.000 A 
ENDBRANCH   3   7
BRANCH   4  14
ATOM     14  C   UNL     1       3.820   6.015  18.325  0.00  0.00    +0.000 A 
ATOM     15  C   UNL     1       4.575   6.919  17.576  0.00  0.00    +0.000 A 
ATOM     16  C   UNL     1       5.240   6.516  16.414  0.00  0.00    +0.000 A 
ATOM     17  C   UNL     1       5.175   5.190  15.976  0.00  0.00    +0.000 A 
ATOM     18  C   UNL     1       4.433   4.279  16.741  0.00  0.00    +0.000 A 
ATOM     19  C   UNL     1       3.770   4.682  17.912  0.00  0.00    +0.000 A 
BRANCH  17  20
ATOM     20  C   UNL     1       5.871   4.791  14.761  0.00  0.00    +0.000 A 
ATOM     21  C   UNL     1       5.652   3.872  13.755  0.00  0.00    +0.000 A 
ATOM     22  N   UNL     1       6.663   3.922  12.831  0.00  0.00    +0.000 NA
ATOM     23  C   UNL     1       7.455   4.859  13.302  0.00  0.00    +0.000 A 
ATOM     24  O   UNL     1       7.046   5.435  14.465  0.00  0.00    +0.000 OA
ENDBRANCH  17  20
ENDBRANCH   4  14
TORSDOF 3
ENDMDL
MODEL 5
REMARK VINA RESULT:      -7.4      6.199      7.870
REMARK  Name = 
REMARK  3 active torsions:
REMARK  status: ('A' for Active; 'I' for Inactive)
REMARK    1  A    between atoms: N_3  and  C_4
REMARK    2  A    between atoms: N_11  and  C_12
REMARK    3  A    between atoms: C_15  and  C_16
REMARK                            x       y       z     vdW  Elec       q    Type
REMARK                         _______ _______ _______ _____ _____    ______ ____
ROOT
ATOM      1  O   UNL     1       8.812   8.892  19.266  0.00  0.00    +0.000 OA
ATOM      2  C   UNL     1       8.547   9.258  18.125  0.00  0.00    +0.000 C 
ATOM      3  N   UNL     1       8.928  10.476  17.583  0.00  0.00    +0.000 N 
ATOM      4  N   UNL     1       7.801   8.507  17.233  0.00  0.00    +0.000 N 
ATOM      5  H   UNL     1       8.466  10.749  16.730  0.00  0.00    +0.000 HD
ATOM      6  H   UNL     1       7.980   8.657  16.251  0.00  0.00    +0.000 HD
ENDROOT
BRANCH   3   7
ATOM      7  C   UNL     1       9.624  11.493  18.282  0.00  0.00    +0.000 A 
ATOM      8  C   UNL     1       9.031  12.296  19.264  0.00  0.00    +0.000 A 
ATOM      9  C   UNL     1       9.728  13.360  19.841  0.00  0.00    +0.000 A 
ATOM     10  C   UNL     1      11.038  13.615  19.456  0.00  0.00    +0.000 A 
ATOM     11 CL   UNL     1      11.879  14.956  20.126  0.00  0.00    +0.000 Cl
ATOM     12  C   UNL     1      11.665  12.792  18.523  0.00  0.00    +0.000 A 
ATOM     13  C   UNL     1      10.961  11.727  17.942  0.00  0.00    +0.000 A 
ENDBRANCH   3   7
BRANCH   4  14
ATOM     14  C   UNL     1       7.086   7.338  17.587  0.00  0.00    +0.000 A 
ATOM     15  C   UNL     1       7.641   6.326  18.374  0.00  0.00    +0.000 A 
ATOM     16  C   UNL     1       6.909   5.179  18.695  0.00  0.00    +0.000 A 
ATOM     17  C   UNL     1       5.596   5.017  18.244  0.00  0.00    +0.000 A 
ATOM     18  C   UNL     1       5.034   6.043  17.470  0.00  0.00    +0.000 A 
ATOM     19  C   UNL     1       5.766   7.199  17.153  0.00  0.00    +0.000 A 
BRANCH  17  20
ATOM     20  C   UNL     1       4.853   3.813  18.585  0.00  0.00    +0.000 A 
ATOM     21  C   UNL     1       3.864   3.061  17.987  0.00  0.00    +0.000 A 
ATOM     22  N   UNL     1       3.523   1.996  18.780  0.00  0.00    +0.000 NA
ATOM     23  C   UNL     1       4.307   2.137  19.825  0.00  0.00    +0.000 A 
ATOM     24  O   UNL     1       5.143   3.210  19.784  0.00  0.00    +0.000 OA
ENDBRANCH  17  20
ENDBRANCH   4  14
TORSDOF 3
ENDMDL
MODEL 6
REMARK VINA RESULT:      -7.4      0.294      1.464
REMARK  Name = 
REMARK  3 active torsions:
REMARK  status: ('A' for Active; 'I' for Inactive)
REMARK    1  A    between atoms: N_3  and  C_4
REMARK    2  A    between atoms: N_11  and  C_12
REMARK    3  A    between atoms: C_15  and  C_16
REMARK                            x       y       z     vdW  Elec       q    Type
REMARK                         _______ _______ _______ _____ _____    ______ ____
ROOT
ATOM      1  O   UNL     1       1.658   8.231  18.857  0.00  0.00    +0.000 OA
ATOM      2  C   UNL     1       2.008   7.599  19.848  0.00  0.00    +0.000 C 
ATOM      3  N   UNL     1       1.658   7.921  21.151  0.00  0.00    +0.000 N 
ATOM      4  N   UNL     1       2.832   6.487  19.795  0.00  0.00    +0.000 N 
ATOM      5  H   UNL     1       2.184   7.465  21.880  0.00  0.00    +0.000 HD
ATOM      6  H   UNL     1       2.730   5.810  20.537  0.00  0.00    +0.000 HD
ENDROOT
BRANCH   3   7
ATOM      7  C   UNL     1       0.898   9.054  21.529  0.00  0.00    +0.000 A 
ATOM      8  C   UNL     1       0.204   9.145  22.743  0.00  0.00    +0.000 A 
ATOM      9  C   UNL     1      -0.624  10.236  23.018  0.00  0.00    +0.000 A 
ATOM     10  C   UNL     1      -0.746  11.260  22.088  0.00  0.00    +0.000 A 
ATOM     11 CL   UNL     1      -1.805  12.577  22.403  0.00  0.00    +0.000 Cl
ATOM     12  C   UNL     1      -0.019  11.216  20.901  0.00  0.00    +0.000 A 
ATOM     13  C   UNL     1       0.808  10.118  20.625  0.00  0.00    +0.000 A 
ENDBRANCH   3   7
BRANCH   4  14
ATOM     14  C   UNL     1       3.529   6.072  18.635  0.00  0.00    +0.000 A 
ATOM     15  C   UNL     1       3.572   4.740  18.219  0.00  0.00    +0.000 A 
ATOM     16  C   UNL     1       4.280   4.365  17.074  0.00  0.00    +0.000 A 
ATOM     17  C   UNL     1       4.958   5.317  16.306  0.00  0.00    +0.000 A 
ATOM     18  C   UNL     1       4.897   6.657  16.715  0.00  0.00    +0.000 A 
ATOM     19  C   UNL     1       4.180   7.035  17.862  0.00  0.00    +0.000 A 
BRANCH  17  20
ATOM     20  C   UNL     1       5.694   4.904  15.119  0.00  0.00    +0.000 A 
ATOM     21  C   UNL     1       5.454   4.064  14.052  0.00  0.00    +0.000 A 
ATOM     22  N   UNL     1       6.528   4.051  13.201  0.00  0.00    +0.000 NA
ATOM     23  C   UNL     1       7.377   4.873  13.774  0.00  0.00    +0.000 A 
ATOM     24  O   UNL     1       6.947   5.433  14.938  0.00  0.00    +0.000 OA
ENDBRANCH  17  20
ENDBRANCH   4  14
TORSDOF 3
ENDMDL
MODEL 7
REMARK VINA RESULT:      -7.2      6.042      7.623
REMARK  Name = 
REMARK  3 active torsions:
REMARK  status: ('A' for Active; 'I' for Inactive)
REMARK    1  A    between atoms: N_3  and  C_4
REMARK    2  A    between atoms: N_11  and  C_12
REMARK    3  A    between atoms: C_15  and  C_16
REMARK                            x       y       z     vdW  Elec       q    Type
REMARK                         _______ _______ _______ _____ _____    ______ ____
ROOT
ATOM      1  O   UNL     1       8.569   8.925  19.321  0.00  0.00    +0.000 OA
ATOM      2  C   UNL     1       8.475   9.227  18.135  0.00  0.00    +0.000 C 
ATOM      3  N   UNL     1       8.937  10.415  17.588  0.00  0.00    +0.000 N 
ATOM      4  N   UNL     1       7.863   8.425  17.186  0.00  0.00    +0.000 N 
ATOM      5  H   UNL     1       8.606  10.638  16.662  0.00  0.00    +0.000 HD
ATOM      6  H   UNL     1       8.184   8.521  16.235  0.00  0.00    +0.000 HD
ENDROOT
BRANCH   3   7
ATOM      7  C   UNL     1       9.528  11.471  18.323  0.00  0.00    +0.000 A 
ATOM      8  C   UNL     1      10.643  11.302  19.154  0.00  0.00    +0.000 A 
ATOM      9  C   UNL     1      11.117  12.350  19.946  0.00  0.00    +0.000 A 
ATOM     10  C   UNL     1      10.491  13.588  19.895  0.00  0.00    +0.000 A 
ATOM     11 CL   UNL     1      11.039  14.864  20.907  0.00  0.00    +0.000 Cl
ATOM     12  C   UNL     1       9.416  13.794  19.032  0.00  0.00    +0.000 A 
ATOM     13  C   UNL     1       8.941  12.739  18.241  0.00  0.00    +0.000 A 
ENDBRANCH   3   7
BRANCH   4  14
ATOM     14  C   UNL     1       7.099   7.275  17.496  0.00  0.00    +0.000 A 
ATOM     15  C   UNL     1       5.753   7.150  17.147  0.00  0.00    +0.000 A 
ATOM     16  C   UNL     1       5.025   6.004  17.479  0.00  0.00    +0.000 A 
ATOM     17  C   UNL     1       5.629   4.944  18.162  0.00  0.00    +0.000 A 
ATOM     18  C   UNL     1       6.986   5.064  18.494  0.00  0.00    +0.000 A 
ATOM     19  C   UNL     1       7.720   6.212  18.155  0.00  0.00    +0.000 A 
BRANCH  17  20
ATOM     20  C   UNL     1       4.852   3.761  18.503  0.00  0.00    +0.000 A 
ATOM     21  C   UNL     1       3.884   3.003  17.878  0.00  0.00    +0.000 A 
ATOM     22  N   UNL     1       3.487   1.969  18.686  0.00  0.00    +0.000 NA
ATOM     23  C   UNL     1       4.219   2.133  19.765  0.00  0.00    +0.000 A 
ATOM     24  O   UNL     1       5.072   3.194  19.733  0.00  0.00    +0.000 OA
ENDBRANCH  17  20
ENDBRANCH   4  14
TORSDOF 3
ENDMDL
MODEL 8
REMARK VINA RESULT:      -7.2      7.372      9.687
REMARK  Name = 
REMARK  3 active torsions:
REMARK  status: ('A' for Active; 'I' for Inactive)
REMARK    1  A    between atoms: N_3  and  C_4
REMARK    2  A    between atoms: N_11  and  C_12
REMARK    3  A    between atoms: C_15  and  C_16
REMARK                            x       y       z     vdW  Elec       q    Type
REMARK                         _______ _______ _______ _____ _____    ______ ____
ROOT
ATOM      1  O   UNL     1       7.543   8.908  17.659  0.00  0.00    +0.000 OA
ATOM      2  C   UNL     1       8.310   8.394  18.466  0.00  0.00    +0.000 C 
ATOM      3  N   UNL     1       8.290   7.055  18.827  0.00  0.00    +0.000 N 
ATOM      4  N   UNL     1       9.287   9.098  19.151  0.00  0.00    +0.000 N 
ATOM      5  H   UNL     1       8.814   6.807  19.652  0.00  0.00    +0.000 HD
ATOM      6  H   UNL     1      10.101   8.579  19.442  0.00  0.00    +0.000 HD
ENDROOT
BRANCH   3   7
ATOM      7  C   UNL     1       7.349   6.104  18.363  0.00  0.00    +0.000 A 
ATOM      8  C   UNL     1       7.212   5.751  17.015  0.00  0.00    +0.000 A 
ATOM      9  C   UNL     1       6.192   4.894  16.595  0.00  0.00    +0.000 A 
ATOM     10  C   UNL     1       5.313   4.362  17.528  0.00  0.00    +0.000 A 
ATOM     11 CL   UNL     1       4.025   3.349  17.007  0.00  0.00    +0.000 Cl
ATOM     12  C   UNL     1       5.468   4.654  18.881  0.00  0.00    +0.000 A 
ATOM     13  C   UNL     1       6.490   5.518  19.299  0.00  0.00    +0.000 A 
ENDBRANCH   3   7
BRANCH   4  14
ATOM     14  C   UNL     1       9.383  10.510  19.161  0.00  0.00    +0.000 A 
ATOM     15  C   UNL     1       9.233  11.266  20.326  0.00  0.00    +0.000 A 
ATOM     16  C   UNL     1       9.323  12.660  20.298  0.00  0.00    +0.000 A 
ATOM     17  C   UNL     1       9.578  13.338  19.102  0.00  0.00    +0.000 A 
ATOM     18  C   UNL     1       9.749  12.576  17.937  0.00  0.00    +0.000 A 
ATOM     19  C   UNL     1       9.665  11.174  17.966  0.00  0.00    +0.000 A 
BRANCH  17  20
ATOM     20  C   UNL     1       9.664  14.791  19.094  0.00  0.00    +0.000 A 
ATOM     21  C   UNL     1       9.454  15.797  20.013  0.00  0.00    +0.000 A 
ATOM     22  N   UNL     1       9.688  17.023  19.446  0.00  0.00    +0.000 NA
ATOM     23  C   UNL     1      10.027  16.724  18.212  0.00  0.00    +0.000 A 
ATOM     24  O   UNL     1      10.039  15.395  17.919  0.00  0.00    +0.000 OA
ENDBRANCH  17  20
ENDBRANCH   4  14
TORSDOF 3
ENDMDL
MODEL 9
REMARK VINA RESULT:      -7.2      6.337      7.954
REMARK  Name = 
REMARK  3 active torsions:
REMARK  status: ('A' for Active; 'I' for Inactive)
REMARK    1  A    between atoms: N_3  and  C_4
REMARK    2  A    between atoms: N_11  and  C_12
REMARK    3  A    between atoms: C_15  and  C_16
REMARK                            x       y       z     vdW  Elec       q    Type
REMARK                         _______ _______ _______ _____ _____    ______ ____
ROOT
ATOM      1  O   UNL     1       8.611   9.336  19.511  0.00  0.00    +0.000 OA
ATOM      2  C   UNL     1       8.706   9.475  18.296  0.00  0.00    +0.000 C 
ATOM      3  N   UNL     1       9.292  10.567  17.674  0.00  0.00    +0.000 N 
ATOM      4  N   UNL     1       8.208   8.564  17.379  0.00  0.00    +0.000 N 
ATOM      5  H   UNL     1       9.110  10.669  16.687  0.00  0.00    +0.000 HD
ATOM      6  H   UNL     1       8.670   8.523  16.483  0.00  0.00    +0.000 HD
ENDROOT
BRANCH   3   7
ATOM      7  C   UNL     1       9.810  11.701  18.344  0.00  0.00    +0.000 A 
ATOM      8  C   UNL     1       9.132  12.924  18.428  0.00  0.00    +0.000 A 
ATOM      9  C   UNL     1       9.737  14.045  19.001  0.00  0.00    +0.000 A 
ATOM     10  C   UNL     1      11.021  13.945  19.520  0.00  0.00    +0.000 A 
ATOM     11 CL   UNL     1      11.786  15.336  20.178  0.00  0.00    +0.000 Cl
ATOM     12  C   UNL     1      11.690  12.723  19.499  0.00  0.00    +0.000 A 
ATOM     13  C   UNL     1      11.082  11.600  18.919  0.00  0.00    +0.000 A 
ENDBRANCH   3   7
BRANCH   4  14
ATOM     14  C   UNL     1       7.360   7.483  17.718  0.00  0.00    +0.000 A 
ATOM     15  C   UNL     1       6.079   7.334  17.182  0.00  0.00    +0.000 A 
ATOM     16  C   UNL     1       5.264   6.260  17.548  0.00  0.00    +0.000 A 
ATOM     17  C   UNL     1       5.713   5.296  18.455  0.00  0.00    +0.000 A 
ATOM     18  C   UNL     1       7.007   5.436  18.977  0.00  0.00    +0.000 A 
ATOM     19  C   UNL     1       7.829   6.512  18.605  0.00  0.00    +0.000 A 
BRANCH  17  20
ATOM     20  C   UNL     1       4.847   4.187  18.827  0.00  0.00    +0.000 A 
ATOM     21  C   UNL     1       3.555   3.802  18.532  0.00  0.00    +0.000 A 
ATOM     22  N   UNL     1       3.242   2.636  19.180  0.00  0.00    +0.000 NA
ATOM     23  C   UNL     1       4.341   2.355  19.842  0.00  0.00    +0.000 A 
ATOM     24  O   UNL     1       5.360   3.242  19.680  0.00  0.00    +0.000 OA
ENDBRANCH  17  20
ENDBRANCH   4  14
TORSDOF 3
ENDMDL
