MODEL 1
REMARK VINA RESULT:      -9.4      0.000      0.000
REMARK  Name = 
REMARK  2 active torsions:
REMARK  status: ('A' for Active; 'I' for Inactive)
REMARK    1  A    between atoms: N_19  and  C_20
REMARK    2  A    between atoms: C_20  and  C_21
REMARK                            x       y       z     vdW  Elec       q    Type
REMARK                         _______ _______ _______ _____ _____    ______ ____
ROOT
ATOM      1  O   UNL     1       5.528   7.297  15.747  0.00  0.00    +0.000 OA
ATOM      2  C   UNL     1       5.226   6.661  16.753  0.00  0.00    +0.000 C 
ATOM      3  C   UNL     1       4.052   7.087  17.538  0.00  0.00    +0.000 A 
ATOM      4  C   UNL     1       3.466   8.329  17.251  0.00  0.00    +0.000 A 
ATOM      5  C   UNL     1       2.325   8.735  17.930  0.00  0.00    +0.000 A 
ATOM      6  C   UNL     1       1.762   7.889  18.885  0.00  0.00    +0.000 A 
ATOM      7  C   UNL     1       2.347   6.648  19.179  0.00  0.00    +0.000 A 
ATOM      8  C   UNL     1       1.755   5.805  20.124  0.00  0.00    +0.000 A 
ATOM      9  C   UNL     1       2.301   4.559  20.442  0.00  0.00    +0.000 A 
ATOM     10  C   UNL     1       1.637   3.755  21.387  0.00  0.00    +0.000 A 
ATOM     11  C   UNL     1       2.129   2.506  21.747  0.00  0.00    +0.000 A 
ATOM     12  C   UNL     1       3.296   2.045  21.163  0.00  0.00    +0.000 A 
ATOM     13  C   UNL     1       3.961   2.835  20.221  0.00  0.00    +0.000 A 
ATOM     14  C   UNL     1       3.496   4.120  19.820  0.00  0.00    +0.000 A 
ATOM     15  C   UNL     1       4.111   4.992  18.854  0.00  0.00    +0.000 A 
ATOM     16  C   UNL     1       3.524   6.234  18.520  0.00  0.00    +0.000 A 
ATOM     17  C   UNL     1       5.404   4.647  18.171  0.00  0.00    +0.000 C 
ATOM     18  O   UNL     1       6.024   3.628  18.463  0.00  0.00    +0.000 OA
ATOM     19  N   UNL     1       5.879   5.517  17.187  0.00  0.00    +0.000 N 
ENDROOT
BRANCH  19  20
ATOM     20  C   UNL     1       7.139   5.165  16.526  0.00  0.00    +0.000 C 
BRANCH  20  21
ATOM     21  C   UNL     1       6.937   4.836  15.057  0.00  0.00    +0.000 A 
ATOM     22  C   UNL     1       5.967   3.915  14.664  0.00  0.00    +0.000 A 
ATOM     23  C   UNL     1       5.880   3.552  13.323  0.00  0.00    +0.000 A 
ATOM     24  C   UNL     1       6.747   4.127  12.405  0.00  0.00    +0.000 A 
ATOM     25  C   UNL     1       7.660   5.060  12.866  0.00  0.00    +0.000 A 
ATOM     26  N   UNL     1       7.778   5.418  14.164  0.00  0.00    +0.000 NA
ENDBRANCH  20  21
ENDBRANCH  19  20
TORSDOF 2
ENDMDL
MODEL 2
REMARK VINA RESULT:      -8.0      2.951      6.913
REMARK  Name = 
REMARK  2 active torsions:
REMARK  status: ('A' for Active; 'I' for Inactive)
REMARK    1  A    between atoms: N_19  and  C_20
REMARK    2  A    between atoms: C_20  and  C_21
REMARK                            x       y       z     vdW  Elec       q    Type
REMARK                         _______ _______ _______ _____ _____    ______ ____
ROOT
ATOM      1  O   UNL     1       0.601   6.746  21.085  0.00  0.00    +0.000 OA
ATOM      2  C   UNL     1       1.535   6.497  20.327  0.00  0.00    +0.000 C 
ATOM      3  C   UNL     1       1.885   5.087  20.068  0.00  0.00    +0.000 A 
ATOM      4  C   UNL     1       1.304   4.093  20.869  0.00  0.00    +0.000 A 
ATOM      5  C   UNL     1       1.566   2.753  20.615  0.00  0.00    +0.000 A 
ATOM      6  C   UNL     1       2.395   2.409  19.549  0.00  0.00    +0.000 A 
ATOM      7  C   UNL     1       2.982   3.401  18.747  0.00  0.00    +0.000 A 
ATOM      8  C   UNL     1       3.793   3.035  17.670  0.00  0.00    +0.000 A 
ATOM      9  C   UNL     1       4.392   3.989  16.843  0.00  0.00    +0.000 A 
ATOM     10  C   UNL     1       5.177   3.546  15.763  0.00  0.00    +0.000 A 
ATOM     11  C   UNL     1       5.800   4.445  14.905  0.00  0.00    +0.000 A 
ATOM     12  C   UNL     1       5.642   5.803  15.118  0.00  0.00    +0.000 A 
ATOM     13  C   UNL     1       4.861   6.253  16.187  0.00  0.00    +0.000 A 
ATOM     14  C   UNL     1       4.204   5.372  17.091  0.00  0.00    +0.000 A 
ATOM     15  C   UNL     1       3.376   5.748  18.208  0.00  0.00    +0.000 A 
ATOM     16  C   UNL     1       2.751   4.768  19.011  0.00  0.00    +0.000 A 
ATOM     17  C   UNL     1       3.150   7.183  18.589  0.00  0.00    +0.000 C 
ATOM     18  O   UNL     1       3.721   8.095  17.997  0.00  0.00    +0.000 OA
ATOM     19  N   UNL     1       2.264   7.453  19.635  0.00  0.00    +0.000 N 
ENDROOT
BRANCH  19  20
ATOM     20  C   UNL     1       2.049   8.858  19.994  0.00  0.00    +0.000 C 
BRANCH  20  21
ATOM     21  C   UNL     1       0.754   9.400  19.415  0.00  0.00    +0.000 A 
ATOM     22  C   UNL     1       0.507   9.332  18.044  0.00  0.00    +0.000 A 
ATOM     23  C   UNL     1      -0.639   9.935  17.531  0.00  0.00    +0.000 A 
ATOM     24  C   UNL     1      -1.516  10.574  18.395  0.00  0.00    +0.000 A 
ATOM     25  C   UNL     1      -1.220  10.569  19.747  0.00  0.00    +0.000 A 
ATOM     26  N   UNL     1      -0.108  10.007  20.270  0.00  0.00    +0.000 NA
ENDBRANCH  20  21
ENDBRANCH  19  20
TORSDOF 2
ENDMDL
MODEL 3
REMARK VINA RESULT:      -7.8      1.186      3.804
REMARK  Name = 
REMARK  2 active torsions:
REMARK  status: ('A' for Active; 'I' for Inactive)
REMARK    1  A    between atoms: N_19  and  C_20
REMARK    2  A    between atoms: C_20  and  C_21
REMARK                            x       y       z     vdW  Elec       q    Type
REMARK                         _______ _______ _______ _____ _____    ______ ____
ROOT
ATOM      1  O   UNL     1       6.628   3.991  18.274  0.00  0.00    +0.000 OA
ATOM      2  C   UNL     1       5.610   4.670  18.377  0.00  0.00    +0.000 C 
ATOM      3  C   UNL     1       4.524   4.195  19.255  0.00  0.00    +0.000 A 
ATOM      4  C   UNL     1       4.587   2.885  19.754  0.00  0.00    +0.000 A 
ATOM      5  C   UNL     1       3.612   2.426  20.630  0.00  0.00    +0.000 A 
ATOM      6  C   UNL     1       2.586   3.284  21.020  0.00  0.00    +0.000 A 
ATOM      7  C   UNL     1       2.516   4.594  20.521  0.00  0.00    +0.000 A 
ATOM      8  C   UNL     1       1.491   5.445  20.940  0.00  0.00    +0.000 A 
ATOM      9  C   UNL     1       1.388   6.758  20.474  0.00  0.00    +0.000 A 
ATOM     10  C   UNL     1       0.342   7.565  20.959  0.00  0.00    +0.000 A 
ATOM     11  C   UNL     1       0.185   8.879  20.532  0.00  0.00    +0.000 A 
ATOM     12  C   UNL     1       1.077   9.403  19.614  0.00  0.00    +0.000 A 
ATOM     13  C   UNL     1       2.122   8.610  19.128  0.00  0.00    +0.000 A 
ATOM     14  C   UNL     1       2.323   7.261  19.534  0.00  0.00    +0.000 A 
ATOM     15  C   UNL     1       3.373   6.379  19.094  0.00  0.00    +0.000 A 
ATOM     16  C   UNL     1       3.481   5.066  19.605  0.00  0.00    +0.000 A 
ATOM     17  C   UNL     1       4.388   6.793  18.067  0.00  0.00    +0.000 C 
ATOM     18  O   UNL     1       4.319   7.886  17.510  0.00  0.00    +0.000 OA
ATOM     19  N   UNL     1       5.419   5.900  17.766  0.00  0.00    +0.000 N 
ENDROOT
BRANCH  19  20
ATOM     20  C   UNL     1       6.405   6.318  16.765  0.00  0.00    +0.000 C 
BRANCH  20  21
ATOM     21  C   UNL     1       6.308   5.493  15.493  0.00  0.00    +0.000 A 
ATOM     22  C   UNL     1       5.157   4.756  15.212  0.00  0.00    +0.000 A 
ATOM     23  C   UNL     1       5.141   3.924  14.096  0.00  0.00    +0.000 A 
ATOM     24  C   UNL     1       6.261   3.861  13.278  0.00  0.00    +0.000 A 
ATOM     25  C   UNL     1       7.351   4.649  13.603  0.00  0.00    +0.000 A 
ATOM     26  N   UNL     1       7.401   5.452  14.689  0.00  0.00    +0.000 NA
ENDBRANCH  20  21
ENDBRANCH  19  20
TORSDOF 2
ENDMDL
MODEL 4
REMARK VINA RESULT:      -7.6      5.267      8.279
REMARK  Name = 
REMARK  2 active torsions:
REMARK  status: ('A' for Active; 'I' for Inactive)
REMARK    1  A    between atoms: N_19  and  C_20
REMARK    2  A    between atoms: C_20  and  C_21
REMARK                            x       y       z     vdW  Elec       q    Type
REMARK                         _______ _______ _______ _____ _____    ______ ____
ROOT
ATOM      1  O   UNL     1      -0.622  13.574  20.418  0.00  0.00    +0.000 OA
ATOM      2  C   UNL     1       0.089  12.591  20.230  0.00  0.00    +0.000 C 
ATOM      3  C   UNL     1      -0.020  11.447  21.156  0.00  0.00    +0.000 A 
ATOM      4  C   UNL     1      -0.749  11.610  22.343  0.00  0.00    +0.000 A 
ATOM      5  C   UNL     1      -0.921  10.537  23.208  0.00  0.00    +0.000 A 
ATOM      6  C   UNL     1      -0.378   9.298  22.875  0.00  0.00    +0.000 A 
ATOM      7  C   UNL     1       0.355   9.130  21.690  0.00  0.00    +0.000 A 
ATOM      8  C   UNL     1       0.873   7.874  21.363  0.00  0.00    +0.000 A 
ATOM      9  C   UNL     1       1.604   7.662  20.192  0.00  0.00    +0.000 A 
ATOM     10  C   UNL     1       2.075   6.365  19.918  0.00  0.00    +0.000 A 
ATOM     11  C   UNL     1       2.809   6.089  18.769  0.00  0.00    +0.000 A 
ATOM     12  C   UNL     1       3.079   7.112  17.877  0.00  0.00    +0.000 A 
ATOM     13  C   UNL     1       2.613   8.405  18.140  0.00  0.00    +0.000 A 
ATOM     14  C   UNL     1       1.858   8.735  19.301  0.00  0.00    +0.000 A 
ATOM     15  C   UNL     1       1.333  10.031  19.643  0.00  0.00    +0.000 A 
ATOM     16  C   UNL     1       0.566  10.218  20.816  0.00  0.00    +0.000 A 
ATOM     17  C   UNL     1       1.583  11.246  18.796  0.00  0.00    +0.000 C 
ATOM     18  O   UNL     1       2.308  11.191  17.805  0.00  0.00    +0.000 OA
ATOM     19  N   UNL     1       0.962  12.442  19.163  0.00  0.00    +0.000 N 
ENDROOT
BRANCH  19  20
ATOM     20  C   UNL     1       1.212  13.618  18.325  0.00  0.00    +0.000 C 
BRANCH  20  21
ATOM     21  C   UNL     1       2.517  14.306  18.686  0.00  0.00    +0.000 A 
ATOM     22  C   UNL     1       3.263  14.967  17.711  0.00  0.00    +0.000 A 
ATOM     23  C   UNL     1       4.507  15.493  18.050  0.00  0.00    +0.000 A 
ATOM     24  C   UNL     1       4.968  15.363  19.353  0.00  0.00    +0.000 A 
ATOM     25  C   UNL     1       4.154  14.725  20.272  0.00  0.00    +0.000 A 
ATOM     26  N   UNL     1       2.951  14.191  19.967  0.00  0.00    +0.000 NA
ENDBRANCH  20  21
ENDBRANCH  19  20
TORSDOF 2
ENDMDL
MODEL 5
REMARK VINA RESULT:      -7.4      8.143     10.499
REMARK  Name = 
REMARK  2 active torsions:
REMARK  status: ('A' for Active; 'I' for Inactive)
REMARK    1  A    between atoms: N_19  and  C_20
REMARK    2  A    between atoms: C_20  and  C_21
REMARK                            x       y       z     vdW  Elec       q    Type
REMARK                         _______ _______ _______ _____ _____    ______ ____
ROOT
ATOM      1  O   UNL     1      -0.036   9.709  17.896  0.00  0.00    +0.000 OA
ATOM      2  C   UNL     1      -0.814  10.527  18.378  0.00  0.00    +0.000 C 
ATOM      3  C   UNL     1      -2.087  10.795  17.682  0.00  0.00    +0.000 A 
ATOM      4  C   UNL     1      -2.263  10.290  16.384  0.00  0.00    +0.000 A 
ATOM      5  C   UNL     1      -3.471  10.473  15.724  0.00  0.00    +0.000 A 
ATOM      6  C   UNL     1      -4.507  11.145  16.369  0.00  0.00    +0.000 A 
ATOM      7  C   UNL     1      -4.335  11.655  17.666  0.00  0.00    +0.000 A 
ATOM      8  C   UNL     1      -5.393  12.307  18.303  0.00  0.00    +0.000 A 
ATOM      9  C   UNL     1      -5.267  12.825  19.595  0.00  0.00    +0.000 A 
ATOM     10  C   UNL     1      -6.383  13.448  20.182  0.00  0.00    +0.000 A 
ATOM     11  C   UNL     1      -6.321  13.984  21.464  0.00  0.00    +0.000 A 
ATOM     12  C   UNL     1      -5.137  13.899  22.176  0.00  0.00    +0.000 A 
ATOM     13  C   UNL     1      -4.024  13.279  21.602  0.00  0.00    +0.000 A 
ATOM     14  C   UNL     1      -4.039  12.716  20.294  0.00  0.00    +0.000 A 
ATOM     15  C   UNL     1      -2.945  12.053  19.632  0.00  0.00    +0.000 A 
ATOM     16  C   UNL     1      -3.104  11.506  18.339  0.00  0.00    +0.000 A 
ATOM     17  C   UNL     1      -1.587  11.926  20.261  0.00  0.00    +0.000 C 
ATOM     18  O   UNL     1      -1.339  12.445  21.346  0.00  0.00    +0.000 OA
ATOM     19  N   UNL     1      -0.614  11.191  19.579  0.00  0.00    +0.000 N 
ENDROOT
BRANCH  19  20
ATOM     20  C   UNL     1       0.705  11.072  20.206  0.00  0.00    +0.000 C 
BRANCH  20  21
ATOM     21  C   UNL     1       1.583  12.277  19.917  0.00  0.00    +0.000 A 
ATOM     22  C   UNL     1       2.000  12.555  18.616  0.00  0.00    +0.000 A 
ATOM     23  C   UNL     1       2.892  13.602  18.399  0.00  0.00    +0.000 A 
ATOM     24  C   UNL     1       3.332  14.355  19.477  0.00  0.00    +0.000 A 
ATOM     25  C   UNL     1       2.846  14.040  20.734  0.00  0.00    +0.000 A 
ATOM     26  N   UNL     1       1.994  13.020  20.976  0.00  0.00    +0.000 NA
ENDBRANCH  20  21
ENDBRANCH  19  20
TORSDOF 2
ENDMDL
MODEL 6
REMARK VINA RESULT:      -7.3      7.007     10.085
REMARK  Name = 
REMARK  2 active torsions:
REMARK  status: ('A' for Active; 'I' for Inactive)
REMARK    1  A    between atoms: N_19  and  C_20
REMARK    2  A    between atoms: C_20  and  C_21
REMARK                            x       y       z     vdW  Elec       q    Type
REMARK                         _______ _______ _______ _____ _____    ______ ____
ROOT
ATOM      1  O   UNL     1       0.807  13.067  21.404  0.00  0.00    +0.000 OA
ATOM      2  C   UNL     1      -0.249  12.662  20.925  0.00  0.00    +0.000 C 
ATOM      3  C   UNL     1      -1.486  12.790  21.720  0.00  0.00    +0.000 A 
ATOM      4  C   UNL     1      -1.382  13.148  23.072  0.00  0.00    +0.000 A 
ATOM      5  C   UNL     1      -2.529  13.335  23.833  0.00  0.00    +0.000 A 
ATOM      6  C   UNL     1      -3.778  13.180  23.235  0.00  0.00    +0.000 A 
ATOM      7  C   UNL     1      -3.887  12.818  21.883  0.00  0.00    +0.000 A 
ATOM      8  C   UNL     1      -5.148  12.688  21.297  0.00  0.00    +0.000 A 
ATOM      9  C   UNL     1      -5.302  12.336  19.954  0.00  0.00    +0.000 A 
ATOM     10  C   UNL     1      -6.604  12.247  19.426  0.00  0.00    +0.000 A 
ATOM     11  C   UNL     1      -6.823  11.900  18.098  0.00  0.00    +0.000 A 
ATOM     12  C   UNL     1      -5.739  11.638  17.279  0.00  0.00    +0.000 A 
ATOM     13  C   UNL     1      -4.442  11.726  17.794  0.00  0.00    +0.000 A 
ATOM     14  C   UNL     1      -4.167  12.078  19.145  0.00  0.00    +0.000 A 
ATOM     15  C   UNL     1      -2.867  12.201  19.753  0.00  0.00    +0.000 A 
ATOM     16  C   UNL     1      -2.732  12.593  21.104  0.00  0.00    +0.000 A 
ATOM     17  C   UNL     1      -1.601  11.905  19.002  0.00  0.00    +0.000 C 
ATOM     18  O   UNL     1      -1.630  11.478  17.851  0.00  0.00    +0.000 OA
ATOM     19  N   UNL     1      -0.384  12.135  19.650  0.00  0.00    +0.000 N 
ENDROOT
BRANCH  19  20
ATOM     20  C   UNL     1       0.844  11.845  18.904  0.00  0.00    +0.000 C 
BRANCH  20  21
ATOM     21  C   UNL     1       1.225  10.377  18.986  0.00  0.00    +0.000 A 
ATOM     22  C   UNL     1       1.006   9.653  20.157  0.00  0.00    +0.000 A 
ATOM     23  C   UNL     1       1.466   8.341  20.239  0.00  0.00    +0.000 A 
ATOM     24  C   UNL     1       2.115   7.778  19.149  0.00  0.00    +0.000 A 
ATOM     25  C   UNL     1       2.263   8.550  18.009  0.00  0.00    +0.000 A 
ATOM     26  N   UNL     1       1.842   9.830  17.908  0.00  0.00    +0.000 NA
ENDBRANCH  20  21
ENDBRANCH  19  20
TORSDOF 2
ENDMDL
MODEL 7
REMARK VINA RESULT:      -7.3      8.029     11.260
REMARK  Name = 
REMARK  2 active torsions:
REMARK  status: ('A' for Active; 'I' for Inactive)
REMARK    1  A    between atoms: N_19  and  C_20
REMARK    2  A    between atoms: C_20  and  C_21
REMARK                            x       y       z     vdW  Elec       q    Type
REMARK                         _______ _______ _______ _____ _____    ______ ____
ROOT
ATOM      1  O   UNL     1      -0.683  13.318  23.071  0.00  0.00    +0.000 OA
ATOM      2  C   UNL     1      -1.537  12.914  22.286  0.00  0.00    +0.000 C 
ATOM      3  C   UNL     1      -2.949  12.899  22.717  0.00  0.00    +0.000 A 
ATOM      4  C   UNL     1      -3.241  13.119  24.072  0.00  0.00    +0.000 A 
ATOM      5  C   UNL     1      -4.561  13.170  24.500  0.00  0.00    +0.000 A 
ATOM      6  C   UNL     1      -5.587  13.019  23.569  0.00  0.00    +0.000 A 
ATOM      7  C   UNL     1      -5.300  12.795  22.214  0.00  0.00    +0.000 A 
ATOM      8  C   UNL     1      -6.343  12.667  21.293  0.00  0.00    +0.000 A 
ATOM      9  C   UNL     1      -6.102  12.449  19.934  0.00  0.00    +0.000 A 
ATOM     10  C   UNL     1      -7.203  12.353  19.062  0.00  0.00    +0.000 A 
ATOM     11  C   UNL     1      -7.029  12.136  17.700  0.00  0.00    +0.000 A 
ATOM     12  C   UNL     1      -5.748  12.013  17.193  0.00  0.00    +0.000 A 
ATOM     13  C   UNL     1      -4.648  12.110  18.051  0.00  0.00    +0.000 A 
ATOM     14  C   UNL     1      -4.775  12.331  19.451  0.00  0.00    +0.000 A 
ATOM     15  C   UNL     1      -3.700  12.453  20.402  0.00  0.00    +0.000 A 
ATOM     16  C   UNL     1      -3.964  12.708  21.767  0.00  0.00    +0.000 A 
ATOM     17  C   UNL     1      -2.260  12.297  20.007  0.00  0.00    +0.000 C 
ATOM     18  O   UNL     1      -1.945  11.993  18.859  0.00  0.00    +0.000 OA
ATOM     19  N   UNL     1      -1.284  12.517  20.982  0.00  0.00    +0.000 N 
ENDROOT
BRANCH  19  20
ATOM     20  C   UNL     1       0.118  12.366  20.581  0.00  0.00    +0.000 C 
BRANCH  20  21
ATOM     21  C   UNL     1       0.613  10.943  20.773  0.00  0.00    +0.000 A 
ATOM     22  C   UNL     1       0.887  10.134  19.671  0.00  0.00    +0.000 A 
ATOM     23  C   UNL     1       1.234   8.801  19.878  0.00  0.00    +0.000 A 
ATOM     24  C   UNL     1       1.316   8.313  21.174  0.00  0.00    +0.000 A 
ATOM     25  C   UNL     1       1.063   9.187  22.217  0.00  0.00    +0.000 A 
ATOM     26  N   UNL     1       0.708  10.479  22.045  0.00  0.00    +0.000 NA
ENDBRANCH  20  21
ENDBRANCH  19  20
TORSDOF 2
ENDMDL
MODEL 8
REMARK VINA RESULT:      -7.2      8.707     11.367
REMARK  Name = 
REMARK  2 active torsions:
REMARK  status: ('A' for Active; 'I' for Inactive)
REMARK    1  A    between atoms: N_19  and  C_20
REMARK    2  A    between atoms: C_20  and  C_21
REMARK                            x       y       z     vdW  Elec       q    Type
REMARK                         _______ _______ _______ _____ _____    ______ ____
ROOT
ATOM      1  O   UNL     1      -0.212  10.305  19.385  0.00  0.00    +0.000 OA
ATOM      2  C   UNL     1      -1.211  11.019  19.362  0.00  0.00    +0.000 C 
ATOM      3  C   UNL     1      -2.151  10.892  18.232  0.00  0.00    +0.000 A 
ATOM      4  C   UNL     1      -1.760  10.139  17.114  0.00  0.00    +0.000 A 
ATOM      5  C   UNL     1      -2.642   9.950  16.058  0.00  0.00    +0.000 A 
ATOM      6  C   UNL     1      -3.921  10.499  16.131  0.00  0.00    +0.000 A 
ATOM      7  C   UNL     1      -4.316  11.256  17.246  0.00  0.00    +0.000 A 
ATOM      8  C   UNL     1      -5.609  11.779  17.309  0.00  0.00    +0.000 A 
ATOM      9  C   UNL     1      -6.045  12.533  18.402  0.00  0.00    +0.000 A 
ATOM     10  C   UNL     1      -7.370  13.008  18.406  0.00  0.00    +0.000 A 
ATOM     11  C   UNL     1      -7.863  13.764  19.464  0.00  0.00    +0.000 A 
ATOM     12  C   UNL     1      -7.034  14.052  20.534  0.00  0.00    +0.000 A 
ATOM     13  C   UNL     1      -5.717  13.581  20.540  0.00  0.00    +0.000 A 
ATOM     14  C   UNL     1      -5.168  12.804  19.481  0.00  0.00    +0.000 A 
ATOM     15  C   UNL     1      -3.831  12.273  19.411  0.00  0.00    +0.000 A 
ATOM     16  C   UNL     1      -3.421  11.484  18.312  0.00  0.00    +0.000 A 
ATOM     17  C   UNL     1      -2.806  12.541  20.475  0.00  0.00    +0.000 C 
ATOM     18  O   UNL     1      -3.052  13.284  21.422  0.00  0.00    +0.000 OA
ATOM     19  N   UNL     1      -1.563  11.912  20.362  0.00  0.00    +0.000 N 
ENDROOT
BRANCH  19  20
ATOM     20  C   UNL     1      -0.574  12.179  21.410  0.00  0.00    +0.000 C 
BRANCH  20  21
ATOM     21  C   UNL     1       0.497  13.151  20.946  0.00  0.00    +0.000 A 
ATOM     22  C   UNL     1       0.148  14.328  20.285  0.00  0.00    +0.000 A 
ATOM     23  C   UNL     1       1.155  15.144  19.776  0.00  0.00    +0.000 A 
ATOM     24  C   UNL     1       2.482  14.779  19.953  0.00  0.00    +0.000 A 
ATOM     25  C   UNL     1       2.749  13.614  20.651  0.00  0.00    +0.000 A 
ATOM     26  N   UNL     1       1.793  12.795  21.141  0.00  0.00    +0.000 NA
ENDBRANCH  20  21
ENDBRANCH  19  20
TORSDOF 2
ENDMDL
MODEL 9
REMARK VINA RESULT:      -7.2      6.437      9.435
REMARK  Name = 
REMARK  2 active torsions:
REMARK  status: ('A' for Active; 'I' for Inactive)
REMARK    1  A    between atoms: N_19  and  C_20
REMARK    2  A    between atoms: C_20  and  C_21
REMARK                            x       y       z     vdW  Elec       q    Type
REMARK                         _______ _______ _______ _____ _____    ______ ____
ROOT
ATOM      1  O   UNL     1      -1.106   9.801  17.191  0.00  0.00    +0.000 OA
ATOM      2  C   UNL     1      -1.222  10.659  18.061  0.00  0.00    +0.000 C 
ATOM      3  C   UNL     1      -2.560  11.217  18.336  0.00  0.00    +0.000 A 
ATOM      4  C   UNL     1      -3.606  10.926  17.447  0.00  0.00    +0.000 A 
ATOM      5  C   UNL     1      -4.890  11.385  17.708  0.00  0.00    +0.000 A 
ATOM      6  C   UNL     1      -5.130  12.120  18.867  0.00  0.00    +0.000 A 
ATOM      7  C   UNL     1      -4.087  12.417  19.758  0.00  0.00    +0.000 A 
ATOM      8  C   UNL     1      -4.352  13.136  20.926  0.00  0.00    +0.000 A 
ATOM      9  C   UNL     1      -3.345  13.448  21.843  0.00  0.00    +0.000 A 
ATOM     10  C   UNL     1      -3.692  14.156  23.008  0.00  0.00    +0.000 A 
ATOM     11  C   UNL     1      -2.735  14.498  23.958  0.00  0.00    +0.000 A 
ATOM     12  C   UNL     1      -1.417  14.131  23.752  0.00  0.00    +0.000 A 
ATOM     13  C   UNL     1      -1.063  13.425  22.598  0.00  0.00    +0.000 A 
ATOM     14  C   UNL     1      -2.006  13.054  21.599  0.00  0.00    +0.000 A 
ATOM     15  C   UNL     1      -1.731  12.321  20.390  0.00  0.00    +0.000 A 
ATOM     16  C   UNL     1      -2.770  11.985  19.492  0.00  0.00    +0.000 A 
ATOM     17  C   UNL     1      -0.342  11.896  20.009  0.00  0.00    +0.000 C 
ATOM     18  O   UNL     1       0.630  12.218  20.689  0.00  0.00    +0.000 OA
ATOM     19  N   UNL     1      -0.185  11.116  18.861  0.00  0.00    +0.000 N 
ENDROOT
BRANCH  19  20
ATOM     20  C   UNL     1       1.176  10.705  18.504  0.00  0.00    +0.000 C 
BRANCH  20  21
ATOM     21  C   UNL     1       1.481   9.290  18.964  0.00  0.00    +0.000 A 
ATOM     22  C   UNL     1       1.187   8.889  20.267  0.00  0.00    +0.000 A 
ATOM     23  C   UNL     1       1.577   7.621  20.690  0.00  0.00    +0.000 A 
ATOM     24  C   UNL     1       2.233   6.779  19.803  0.00  0.00    +0.000 A 
ATOM     25  C   UNL     1       2.457   7.236  18.516  0.00  0.00    +0.000 A 
ATOM     26  N   UNL     1       2.105   8.466  18.083  0.00  0.00    +0.000 NA
ENDBRANCH  20  21
ENDBRANCH  19  20
TORSDOF 2
ENDMDL
