MODEL 1
REMARK VINA RESULT:      -7.8      0.000      0.000
REMARK  Name = 
REMARK  10 active torsions:
REMARK  status: ('A' for Active; 'I' for Inactive)
REMARK    1  A    between atoms: C_1  and  O_2
REMARK    2  A    between atoms: O_2  and  C_3
REMARK    3  A    between atoms: C_3  and  C_4
REMARK    4  A    between atoms: C_4  and  O_5
REMARK    5  A    between atoms: O_5  and  C_6
REMARK    6  A    between atoms: C_6  and  C_8
REMARK    7  A    between atoms: C_12  and  S_13
REMARK    8  A    between atoms: S_13  and  N_16
REMARK    9  A    between atoms: C_20  and  S_21
REMARK   10  A    between atoms: S_21  and  N_22
REMARK                            x       y       z     vdW  Elec       q    Type
REMARK                         _______ _______ _______ _____ _____    ______ ____
ROOT
ATOM      1  S   UNL     1       6.367   4.998  16.292  0.00  0.00    +0.000 S 
ATOM      2  O   UNL     1       7.660   4.827  16.905  0.00  0.00    +0.000 OA
ATOM      3  O   UNL     1       5.623   6.244  16.458  0.00  0.00    +0.000 OA
ENDROOT
BRANCH   1   4
ATOM      4  N   UNL     1       5.408   3.670  16.764  0.00  0.00    +0.000 N 
ATOM      5  C   UNL     1       4.758   3.851  18.017  0.00  0.00    +0.000 A 
ATOM      6  N   UNL     1       5.321   3.520  19.162  0.00  0.00    +0.000 NA
ATOM      7  N   UNL     1       4.427   3.584  20.226  0.00  0.00    +0.000 NA
ATOM      8  C   UNL     1       3.208   3.877  19.811  0.00  0.00    +0.000 A 
ATOM      9  S   UNL     1       3.066   4.159  18.132  0.00  0.00    +0.000 S 
ATOM     10  H   UNL     1       5.997   2.838  16.759  0.00  0.00    +0.000 HD
BRANCH   8  11
ATOM     11  S   UNL     1       1.772   3.951  20.850  0.00  0.00    +0.000 S 
ATOM     12  O   UNL     1       2.164   3.364  22.110  0.00  0.00    +0.000 OA
ATOM     13  O   UNL     1       1.266   5.301  20.739  0.00  0.00    +0.000 OA
BRANCH  11  14
ATOM     14  N   UNL     1       0.580   2.946  20.201  0.00  0.00    +0.000 NA
ATOM     15  H   UNL     1       0.863   1.967  20.177  0.00  0.00    +0.000 HD
ATOM     16  H   UNL     1       0.182   3.305  19.336  0.00  0.00    +0.000 HD
ENDBRANCH  11  14
ENDBRANCH   8  11
ENDBRANCH   1   4
BRANCH   1  21
ATOM     17  C   UNL     1       6.008   3.618  12.456  0.00  0.00    +0.000 A 
ATOM     18  C   UNL     1       7.062   4.284  11.815  0.00  0.00    +0.000 A 
ATOM     19  C   UNL     1       7.915   5.114  12.543  0.00  0.00    +0.000 A 
ATOM     20  C   UNL     1       7.675   5.336  13.899  0.00  0.00    +0.000 A 
ATOM     21  C   UNL     1       6.569   4.753  14.526  0.00  0.00    +0.000 A 
ATOM     22  C   UNL     1       5.737   3.876  13.812  0.00  0.00    +0.000 A 
BRANCH  17  23
ATOM     23  C   UNL     1       5.256   2.591  11.671  0.00  0.00    +0.000 C 
ATOM     24  O   UNL     1       5.783   1.685  11.068  0.00  0.00    +0.000 OA
BRANCH  23  25
ATOM     25  O   UNL     1       3.921   2.847  11.722  0.00  0.00    +0.000 OA
BRANCH  25  26
ATOM     26  C   UNL     1       3.294   2.976  10.439  0.00  0.00    +0.000 C 
BRANCH  26  27
ATOM     27  C   UNL     1       3.463   4.371   9.852  0.00  0.00    +0.000 C 
BRANCH  27  29
ATOM     28  C   UNL     1       1.858   5.377   8.451  0.00  0.00    +0.000 C 
ATOM     29  O   UNL     1       2.911   4.420   8.532  0.00  0.00    +0.000 OA
ENDBRANCH  27  29
ENDBRANCH  26  27
ENDBRANCH  25  26
ENDBRANCH  23  25
ENDBRANCH  17  23
ENDBRANCH   1  21
TORSDOF 9
ENDMDL
MODEL 2
REMARK VINA RESULT:      -6.8      2.819      4.312
REMARK  Name = 
REMARK  10 active torsions:
REMARK  status: ('A' for Active; 'I' for Inactive)
REMARK    1  A    between atoms: C_1  and  O_2
REMARK    2  A    between atoms: O_2  and  C_3
REMARK    3  A    between atoms: C_3  and  C_4
REMARK    4  A    between atoms: C_4  and  O_5
REMARK    5  A    between atoms: O_5  and  C_6
REMARK    6  A    between atoms: C_6  and  C_8
REMARK    7  A    between atoms: C_12  and  S_13
REMARK    8  A    between atoms: S_13  and  N_16
REMARK    9  A    between atoms: C_20  and  S_21
REMARK   10  A    between atoms: S_21  and  N_22
REMARK                            x       y       z     vdW  Elec       q    Type
REMARK                         _______ _______ _______ _____ _____    ______ ____
ROOT
ATOM      1  S   UNL     1       3.912   3.008  18.547  0.00  0.00    +0.000 S 
ATOM      2  O   UNL     1       3.891   1.824  17.727  0.00  0.00    +0.000 OA
ATOM      3  O   UNL     1       4.199   2.920  19.977  0.00  0.00    +0.000 OA
ENDROOT
BRANCH   1   4
ATOM      4  N   UNL     1       2.436   3.822  18.291  0.00  0.00    +0.000 N 
ATOM      5  C   UNL     1       2.157   4.821  19.265  0.00  0.00    +0.000 A 
ATOM      6  N   UNL     1       1.519   4.558  20.388  0.00  0.00    +0.000 NA
ATOM      7  N   UNL     1       1.171   5.714  21.079  0.00  0.00    +0.000 NA
ATOM      8  C   UNL     1       1.491   6.797  20.395  0.00  0.00    +0.000 A 
ATOM      9  S   UNL     1       2.285   6.503  18.911  0.00  0.00    +0.000 S 
ATOM     10  H   UNL     1       1.695   3.123  18.242  0.00  0.00    +0.000 HD
BRANCH   8  11
ATOM     11  S   UNL     1       1.122   8.459  20.892  0.00  0.00    +0.000 S 
ATOM     12  O   UNL     1       1.548   9.303  19.800  0.00  0.00    +0.000 OA
ATOM     13  O   UNL     1      -0.240   8.438  21.379  0.00  0.00    +0.000 OA
BRANCH  11  14
ATOM     14  N   UNL     1       2.090   8.859  22.216  0.00  0.00    +0.000 NA
ATOM     15  H   UNL     1       2.895   9.428  21.955  0.00  0.00    +0.000 HD
ATOM     16  H   UNL     1       2.296   8.062  22.815  0.00  0.00    +0.000 HD
ENDBRANCH  11  14
ENDBRANCH   8  11
ENDBRANCH   1   4
BRANCH   1  21
ATOM     17  C   UNL     1       6.440   4.950  15.981  0.00  0.00    +0.000 A 
ATOM     18  C   UNL     1       7.160   5.772  16.860  0.00  0.00    +0.000 A 
ATOM     19  C   UNL     1       6.922   5.710  18.233  0.00  0.00    +0.000 A 
ATOM     20  C   UNL     1       5.916   4.880  18.726  0.00  0.00    +0.000 A 
ATOM     21  C   UNL     1       5.126   4.129  17.849  0.00  0.00    +0.000 A 
ATOM     22  C   UNL     1       5.394   4.147  16.471  0.00  0.00    +0.000 A 
BRANCH  17  23
ATOM     23  C   UNL     1       6.876   4.912  14.551  0.00  0.00    +0.000 C 
ATOM     24  O   UNL     1       7.845   5.498  14.127  0.00  0.00    +0.000 OA
BRANCH  23  25
ATOM     25  O   UNL     1       6.017   4.154  13.819  0.00  0.00    +0.000 OA
BRANCH  25  26
ATOM     26  C   UNL     1       6.576   3.627  12.609  0.00  0.00    +0.000 C 
BRANCH  26  27
ATOM     27  C   UNL     1       5.566   2.812  11.813  0.00  0.00    +0.000 C 
BRANCH  27  29
ATOM     28  C   UNL     1       3.507   3.088  10.702  0.00  0.00    +0.000 C 
ATOM     29  O   UNL     1       4.286   3.452  11.839  0.00  0.00    +0.000 OA
ENDBRANCH  27  29
ENDBRANCH  26  27
ENDBRANCH  25  26
ENDBRANCH  23  25
ENDBRANCH  17  23
ENDBRANCH   1  21
TORSDOF 9
ENDMDL
MODEL 3
REMARK VINA RESULT:      -6.7      4.883      7.266
REMARK  Name = 
REMARK  10 active torsions:
REMARK  status: ('A' for Active; 'I' for Inactive)
REMARK    1  A    between atoms: C_1  and  O_2
REMARK    2  A    between atoms: O_2  and  C_3
REMARK    3  A    between atoms: C_3  and  C_4
REMARK    4  A    between atoms: C_4  and  O_5
REMARK    5  A    between atoms: O_5  and  C_6
REMARK    6  A    between atoms: C_6  and  C_8
REMARK    7  A    between atoms: C_12  and  S_13
REMARK    8  A    between atoms: S_13  and  N_16
REMARK    9  A    between atoms: C_20  and  S_21
REMARK   10  A    between atoms: S_21  and  N_22
REMARK                            x       y       z     vdW  Elec       q    Type
REMARK                         _______ _______ _______ _____ _____    ______ ____
ROOT
ATOM      1  S   UNL     1       1.875   4.390  20.803  0.00  0.00    +0.000 S 
ATOM      2  O   UNL     1       0.498   4.585  20.426  0.00  0.00    +0.000 OA
ATOM      3  O   UNL     1       2.235   3.421  21.836  0.00  0.00    +0.000 OA
ENDROOT
BRANCH   1   4
ATOM      4  N   UNL     1       2.512   5.925  21.187  0.00  0.00    +0.000 N 
ATOM      5  C   UNL     1       1.928   6.988  20.443  0.00  0.00    +0.000 A 
ATOM      6  N   UNL     1       2.395   7.374  19.273  0.00  0.00    +0.000 NA
ATOM      7  N   UNL     1       1.809   8.558  18.836  0.00  0.00    +0.000 NA
ATOM      8  C   UNL     1       0.989   9.051  19.746  0.00  0.00    +0.000 A 
ATOM      9  S   UNL     1       0.818   8.098  21.154  0.00  0.00    +0.000 S 
ATOM     10  H   UNL     1       3.523   5.886  21.064  0.00  0.00    +0.000 HD
BRANCH   8  11
ATOM     11  S   UNL     1       0.129  10.596  19.608  0.00  0.00    +0.000 S 
ATOM     12  O   UNL     1      -1.189  10.274  19.114  0.00  0.00    +0.000 OA
ATOM     13  O   UNL     1       0.348  11.290  20.858  0.00  0.00    +0.000 OA
BRANCH  11  14
ATOM     14  N   UNL     1       0.875  11.529  18.415  0.00  0.00    +0.000 NA
ATOM     15  H   UNL     1       0.208  12.069  17.865  0.00  0.00    +0.000 HD
ATOM     16  H   UNL     1       1.565  11.010  17.875  0.00  0.00    +0.000 HD
ENDBRANCH  11  14
ENDBRANCH   8  11
ENDBRANCH   1   4
BRANCH   1  21
ATOM     17  C   UNL     1       4.805   3.905  17.988  0.00  0.00    +0.000 A 
ATOM     18  C   UNL     1       4.086   3.343  16.924  0.00  0.00    +0.000 A 
ATOM     19  C   UNL     1       2.708   3.152  17.031  0.00  0.00    +0.000 A 
ATOM     20  C   UNL     1       2.056   3.456  18.226  0.00  0.00    +0.000 A 
ATOM     21  C   UNL     1       2.781   3.926  19.326  0.00  0.00    +0.000 A 
ATOM     22  C   UNL     1       4.159   4.170  19.209  0.00  0.00    +0.000 A 
BRANCH  17  23
ATOM     23  C   UNL     1       6.234   4.272  17.743  0.00  0.00    +0.000 C 
ATOM     24  O   UNL     1       6.824   4.036  16.714  0.00  0.00    +0.000 OA
BRANCH  23  25
ATOM     25  O   UNL     1       6.759   4.874  18.844  0.00  0.00    +0.000 OA
BRANCH  25  26
ATOM     26  C   UNL     1       7.631   5.975  18.557  0.00  0.00    +0.000 C 
BRANCH  26  27
ATOM     27  C   UNL     1       6.910   7.113  17.848  0.00  0.00    +0.000 C 
BRANCH  27  29
ATOM     28  C   UNL     1       8.034   9.183  17.866  0.00  0.00    +0.000 C 
ATOM     29  O   UNL     1       7.855   7.950  17.173  0.00  0.00    +0.000 OA
ENDBRANCH  27  29
ENDBRANCH  26  27
ENDBRANCH  25  26
ENDBRANCH  23  25
ENDBRANCH  17  23
ENDBRANCH   1  21
TORSDOF 9
ENDMDL
MODEL 4
REMARK VINA RESULT:      -6.6      5.400     10.265
REMARK  Name = 
REMARK  10 active torsions:
REMARK  status: ('A' for Active; 'I' for Inactive)
REMARK    1  A    between atoms: C_1  and  O_2
REMARK    2  A    between atoms: O_2  and  C_3
REMARK    3  A    between atoms: C_3  and  C_4
REMARK    4  A    between atoms: C_4  and  O_5
REMARK    5  A    between atoms: O_5  and  C_6
REMARK    6  A    between atoms: C_6  and  C_8
REMARK    7  A    between atoms: C_12  and  S_13
REMARK    8  A    between atoms: S_13  and  N_16
REMARK    9  A    between atoms: C_20  and  S_21
REMARK   10  A    between atoms: S_21  and  N_22
REMARK                            x       y       z     vdW  Elec       q    Type
REMARK                         _______ _______ _______ _____ _____    ______ ____
ROOT
ATOM      1  S   UNL     1       2.259   5.878  19.749  0.00  0.00    +0.000 S 
ATOM      2  O   UNL     1       3.607   5.756  20.241  0.00  0.00    +0.000 OA
ATOM      3  O   UNL     1       1.183   5.068  20.316  0.00  0.00    +0.000 OA
ENDROOT
BRANCH   1   4
ATOM      4  N   UNL     1       2.322   5.672  18.057  0.00  0.00    +0.000 N 
ATOM      5  C   UNL     1       3.641   5.721  17.524  0.00  0.00    +0.000 A 
ATOM      6  N   UNL     1       4.212   6.848  17.149  0.00  0.00    +0.000 NA
ATOM      7  N   UNL     1       5.404   6.632  16.465  0.00  0.00    +0.000 NA
ATOM      8  C   UNL     1       5.627   5.343  16.285  0.00  0.00    +0.000 A 
ATOM      9  S   UNL     1       4.458   4.306  16.976  0.00  0.00    +0.000 S 
ATOM     10  H   UNL     1       1.715   6.371  17.632  0.00  0.00    +0.000 HD
BRANCH   8  11
ATOM     11  S   UNL     1       6.988   4.665  15.372  0.00  0.00    +0.000 S 
ATOM     12  O   UNL     1       7.444   5.721  14.499  0.00  0.00    +0.000 OA
ATOM     13  O   UNL     1       7.847   4.028  16.346  0.00  0.00    +0.000 OA
BRANCH  11  14
ATOM     14  N   UNL     1       6.412   3.431  14.374  0.00  0.00    +0.000 NA
ATOM     15  H   UNL     1       5.421   3.534  14.154  0.00  0.00    +0.000 HD
ATOM     16  H   UNL     1       6.695   2.503  14.682  0.00  0.00    +0.000 HD
ENDBRANCH  11  14
ENDBRANCH   8  11
ENDBRANCH   1   4
BRANCH   1  21
ATOM     17  C   UNL     1       0.786   9.397  21.230  0.00  0.00    +0.000 A 
ATOM     18  C   UNL     1       0.845  10.226  20.101  0.00  0.00    +0.000 A 
ATOM     19  C   UNL     1       1.282   9.717  18.878  0.00  0.00    +0.000 A 
ATOM     20  C   UNL     1       1.728   8.399  18.795  0.00  0.00    +0.000 A 
ATOM     21  C   UNL     1       1.765   7.592  19.937  0.00  0.00    +0.000 A 
ATOM     22  C   UNL     1       1.278   8.081  21.160  0.00  0.00    +0.000 A 
BRANCH  17  23
ATOM     23  C   UNL     1       0.122   9.938  22.456  0.00  0.00    +0.000 C 
ATOM     24  O   UNL     1       0.494   9.704  23.582  0.00  0.00    +0.000 OA
BRANCH  23  25
ATOM     25  O   UNL     1      -0.955  10.694  22.111  0.00  0.00    +0.000 OA
BRANCH  25  26
ATOM     26  C   UNL     1      -1.217  11.789  22.997  0.00  0.00    +0.000 C 
BRANCH  26  27
ATOM     27  C   UNL     1      -1.078  13.138  22.305  0.00  0.00    +0.000 C 
BRANCH  27  29
ATOM     28  C   UNL     1       0.993  13.726  21.348  0.00  0.00    +0.000 C 
ATOM     29  O   UNL     1       0.223  13.684  22.547  0.00  0.00    +0.000 OA
ENDBRANCH  27  29
ENDBRANCH  26  27
ENDBRANCH  25  26
ENDBRANCH  23  25
ENDBRANCH  17  23
ENDBRANCH   1  21
TORSDOF 9
ENDMDL
MODEL 5
REMARK VINA RESULT:      -6.6      4.827      7.250
REMARK  Name = 
REMARK  10 active torsions:
REMARK  status: ('A' for Active; 'I' for Inactive)
REMARK    1  A    between atoms: C_1  and  O_2
REMARK    2  A    between atoms: O_2  and  C_3
REMARK    3  A    between atoms: C_3  and  C_4
REMARK    4  A    between atoms: C_4  and  O_5
REMARK    5  A    between atoms: O_5  and  C_6
REMARK    6  A    between atoms: C_6  and  C_8
REMARK    7  A    between atoms: C_12  and  S_13
REMARK    8  A    between atoms: S_13  and  N_16
REMARK    9  A    between atoms: C_20  and  S_21
REMARK   10  A    between atoms: S_21  and  N_22
REMARK                            x       y       z     vdW  Elec       q    Type
REMARK                         _______ _______ _______ _____ _____    ______ ____
ROOT
ATOM      1  S   UNL     1       1.766   4.356  20.879  0.00  0.00    +0.000 S 
ATOM      2  O   UNL     1       0.420   4.651  20.458  0.00  0.00    +0.000 OA
ATOM      3  O   UNL     1       2.015   3.472  22.015  0.00  0.00    +0.000 OA
ENDROOT
BRANCH   1   4
ATOM      4  N   UNL     1       2.557   5.849  21.108  0.00  0.00    +0.000 N 
ATOM      5  C   UNL     1       1.987   6.919  20.363  0.00  0.00    +0.000 A 
ATOM      6  N   UNL     1       2.362   7.204  19.133  0.00  0.00    +0.000 NA
ATOM      7  N   UNL     1       1.830   8.410  18.686  0.00  0.00    +0.000 NA
ATOM      8  C   UNL     1       1.148   9.016  19.641  0.00  0.00    +0.000 A 
ATOM      9  S   UNL     1       1.046   8.154  21.112  0.00  0.00    +0.000 S 
ATOM     10  H   UNL     1       3.545   5.719  20.890  0.00  0.00    +0.000 HD
BRANCH   8  11
ATOM     11  S   UNL     1       0.403  10.619  19.496  0.00  0.00    +0.000 S 
ATOM     12  O   UNL     1       1.485  11.570  19.605  0.00  0.00    +0.000 OA
ATOM     13  O   UNL     1      -0.468  10.554  18.344  0.00  0.00    +0.000 OA
BRANCH  11  14
ATOM     14  N   UNL     1      -0.599  10.875  20.830  0.00  0.00    +0.000 NA
ATOM     15  H   UNL     1      -1.508  10.423  20.731  0.00  0.00    +0.000 HD
ATOM     16  H   UNL     1      -0.628  11.849  21.127  0.00  0.00    +0.000 HD
ENDBRANCH  11  14
ENDBRANCH   8  11
ENDBRANCH   1   4
BRANCH   1  21
ATOM     17  C   UNL     1       4.498   3.589  17.930  0.00  0.00    +0.000 A 
ATOM     18  C   UNL     1       3.831   2.617  17.172  0.00  0.00    +0.000 A 
ATOM     19  C   UNL     1       2.538   2.223  17.515  0.00  0.00    +0.000 A 
ATOM     20  C   UNL     1       1.934   2.747  18.658  0.00  0.00    +0.000 A 
ATOM     21  C   UNL     1       2.629   3.644  19.476  0.00  0.00    +0.000 A 
ATOM     22  C   UNL     1       3.910   4.084  19.108  0.00  0.00    +0.000 A 
BRANCH  17  23
ATOM     23  C   UNL     1       5.794   4.116  17.400  0.00  0.00    +0.000 C 
ATOM     24  O   UNL     1       6.033   4.255  16.223  0.00  0.00    +0.000 OA
BRANCH  23  25
ATOM     25  O   UNL     1       6.646   4.383  18.425  0.00  0.00    +0.000 OA
BRANCH  25  26
ATOM     26  C   UNL     1       7.840   5.075  18.038  0.00  0.00    +0.000 C 
BRANCH  26  27
ATOM     27  C   UNL     1       7.821   6.538  18.457  0.00  0.00    +0.000 C 
BRANCH  27  29
ATOM     28  C   UNL     1       7.846   8.751  17.650  0.00  0.00    +0.000 C 
ATOM     29  O   UNL     1       7.675   7.378  17.307  0.00  0.00    +0.000 OA
ENDBRANCH  27  29
ENDBRANCH  26  27
ENDBRANCH  25  26
ENDBRANCH  23  25
ENDBRANCH  17  23
ENDBRANCH   1  21
TORSDOF 9
ENDMDL
MODEL 6
REMARK VINA RESULT:      -6.5      4.722      7.830
REMARK  Name = 
REMARK  10 active torsions:
REMARK  status: ('A' for Active; 'I' for Inactive)
REMARK    1  A    between atoms: C_1  and  O_2
REMARK    2  A    between atoms: O_2  and  C_3
REMARK    3  A    between atoms: C_3  and  C_4
REMARK    4  A    between atoms: C_4  and  O_5
REMARK    5  A    between atoms: O_5  and  C_6
REMARK    6  A    between atoms: C_6  and  C_8
REMARK    7  A    between atoms: C_12  and  S_13
REMARK    8  A    between atoms: S_13  and  N_16
REMARK    9  A    between atoms: C_20  and  S_21
REMARK   10  A    between atoms: S_21  and  N_22
REMARK                            x       y       z     vdW  Elec       q    Type
REMARK                         _______ _______ _______ _____ _____    ______ ____
ROOT
ATOM      1  S   UNL     1       1.609   2.938  19.409  0.00  0.00    +0.000 S 
ATOM      2  O   UNL     1       1.086   2.401  20.640  0.00  0.00    +0.000 OA
ATOM      3  O   UNL     1       0.920   2.702  18.142  0.00  0.00    +0.000 OA
ENDROOT
BRANCH   1   4
ATOM      4  N   UNL     1       3.236   2.442  19.297  0.00  0.00    +0.000 N 
ATOM      5  C   UNL     1       4.024   3.255  18.433  0.00  0.00    +0.000 A 
ATOM      6  N   UNL     1       4.133   3.018  17.142  0.00  0.00    +0.000 NA
ATOM      7  N   UNL     1       5.115   3.802  16.544  0.00  0.00    +0.000 NA
ATOM      8  C   UNL     1       5.758   4.531  17.439  0.00  0.00    +0.000 A 
ATOM      9  S   UNL     1       5.186   4.373  19.041  0.00  0.00    +0.000 S 
ATOM     10  H   UNL     1       3.249   1.463  19.011  0.00  0.00    +0.000 HD
BRANCH   8  11
ATOM     11  S   UNL     1       7.141   5.583  17.088  0.00  0.00    +0.000 S 
ATOM     12  O   UNL     1       7.908   5.650  18.310  0.00  0.00    +0.000 OA
ATOM     13  O   UNL     1       7.699   5.109  15.840  0.00  0.00    +0.000 OA
BRANCH  11  14
ATOM     14  N   UNL     1       6.575   7.144  16.787  0.00  0.00    +0.000 NA
ATOM     15  H   UNL     1       6.812   7.475  15.852  0.00  0.00    +0.000 HD
ATOM     16  H   UNL     1       6.779   7.796  17.543  0.00  0.00    +0.000 HD
ENDBRANCH  11  14
ENDBRANCH   8  11
ENDBRANCH   1   4
BRANCH   1  21
ATOM     17  C   UNL     1       2.272   6.921  18.741  0.00  0.00    +0.000 A 
ATOM     18  C   UNL     1       2.087   7.457  20.023  0.00  0.00    +0.000 A 
ATOM     19  C   UNL     1       1.811   6.618  21.102  0.00  0.00    +0.000 A 
ATOM     20  C   UNL     1       1.647   5.250  20.893  0.00  0.00    +0.000 A 
ATOM     21  C   UNL     1       1.733   4.717  19.602  0.00  0.00    +0.000 A 
ATOM     22  C   UNL     1       2.062   5.547  18.519  0.00  0.00    +0.000 A 
BRANCH  17  23
ATOM     23  C   UNL     1       2.763   7.838  17.667  0.00  0.00    +0.000 C 
ATOM     24  O   UNL     1       3.874   7.785  17.192  0.00  0.00    +0.000 OA
BRANCH  23  25
ATOM     25  O   UNL     1       1.795   8.735  17.337  0.00  0.00    +0.000 OA
BRANCH  25  26
ATOM     26  C   UNL     1       1.968  10.033  17.921  0.00  0.00    +0.000 C 
BRANCH  26  27
ATOM     27  C   UNL     1       0.727  10.497  18.671  0.00  0.00    +0.000 C 
BRANCH  27  29
ATOM     28  C   UNL     1      -1.629  10.507  18.658  0.00  0.00    +0.000 C 
ATOM     29  O   UNL     1      -0.452  10.141  17.942  0.00  0.00    +0.000 OA
ENDBRANCH  27  29
ENDBRANCH  26  27
ENDBRANCH  25  26
ENDBRANCH  23  25
ENDBRANCH  17  23
ENDBRANCH   1  21
TORSDOF 9
ENDMDL
MODEL 7
REMARK VINA RESULT:      -6.5      4.638      7.029
REMARK  Name = 
REMARK  10 active torsions:
REMARK  status: ('A' for Active; 'I' for Inactive)
REMARK    1  A    between atoms: C_1  and  O_2
REMARK    2  A    between atoms: O_2  and  C_3
REMARK    3  A    between atoms: C_3  and  C_4
REMARK    4  A    between atoms: C_4  and  O_5
REMARK    5  A    between atoms: O_5  and  C_6
REMARK    6  A    between atoms: C_6  and  C_8
REMARK    7  A    between atoms: C_12  and  S_13
REMARK    8  A    between atoms: S_13  and  N_16
REMARK    9  A    between atoms: C_20  and  S_21
REMARK   10  A    between atoms: S_21  and  N_22
REMARK                            x       y       z     vdW  Elec       q    Type
REMARK                         _______ _______ _______ _____ _____    ______ ____
ROOT
ATOM      1  S   UNL     1       1.711   4.296  20.894  0.00  0.00    +0.000 S 
ATOM      2  O   UNL     1       0.387   4.598  20.412  0.00  0.00    +0.000 OA
ATOM      3  O   UNL     1       1.909   3.338  21.979  0.00  0.00    +0.000 OA
ENDROOT
BRANCH   1   4
ATOM      4  N   UNL     1       2.457   5.781  21.275  0.00  0.00    +0.000 N 
ATOM      5  C   UNL     1       1.950   6.883  20.531  0.00  0.00    +0.000 A 
ATOM      6  N   UNL     1       2.442   7.233  19.360  0.00  0.00    +0.000 NA
ATOM      7  N   UNL     1       1.942   8.456  18.923  0.00  0.00    +0.000 NA
ATOM      8  C   UNL     1       1.160   9.008  19.833  0.00  0.00    +0.000 A 
ATOM      9  S   UNL     1       0.923   8.071  21.242  0.00  0.00    +0.000 S 
ATOM     10  H   UNL     1       3.463   5.670  21.151  0.00  0.00    +0.000 HD
BRANCH   8  11
ATOM     11  S   UNL     1       0.413  10.610  19.694  0.00  0.00    +0.000 S 
ATOM     12  O   UNL     1      -0.973  10.434  20.060  0.00  0.00    +0.000 OA
ATOM     13  O   UNL     1       1.295  11.525  20.386  0.00  0.00    +0.000 OA
BRANCH  11  14
ATOM     14  N   UNL     1       0.427  11.078  18.072  0.00  0.00    +0.000 NA
ATOM     15  H   UNL     1      -0.473  10.936  17.615  0.00  0.00    +0.000 HD
ATOM     16  H   UNL     1       1.234  10.725  17.562  0.00  0.00    +0.000 HD
ENDBRANCH  11  14
ENDBRANCH   8  11
ENDBRANCH   1   4
BRANCH   1  21
ATOM     17  C   UNL     1       4.701   3.666  18.172  0.00  0.00    +0.000 A 
ATOM     18  C   UNL     1       4.049   2.881  17.211  0.00  0.00    +0.000 A 
ATOM     19  C   UNL     1       2.695   2.577  17.353  0.00  0.00    +0.000 A 
ATOM     20  C   UNL     1       2.006   2.998  18.491  0.00  0.00    +0.000 A 
ATOM     21  C   UNL     1       2.672   3.699  19.501  0.00  0.00    +0.000 A 
ATOM     22  C   UNL     1       4.021   4.052  19.341  0.00  0.00    +0.000 A 
BRANCH  17  23
ATOM     23  C   UNL     1       6.091   4.126  17.866  0.00  0.00    +0.000 C 
ATOM     24  O   UNL     1       6.941   4.307  18.707  0.00  0.00    +0.000 OA
BRANCH  23  25
ATOM     25  O   UNL     1       6.235   4.328  16.529  0.00  0.00    +0.000 OA
BRANCH  25  26
ATOM     26  C   UNL     1       6.697   5.638  16.175  0.00  0.00    +0.000 C 
BRANCH  26  27
ATOM     27  C   UNL     1       5.734   6.730  16.619  0.00  0.00    +0.000 C 
BRANCH  27  29
ATOM     28  C   UNL     1       7.733   7.505  17.594  0.00  0.00    +0.000 C 
ATOM     29  O   UNL     1       6.463   7.877  17.066  0.00  0.00    +0.000 OA
ENDBRANCH  27  29
ENDBRANCH  26  27
ENDBRANCH  25  26
ENDBRANCH  23  25
ENDBRANCH  17  23
ENDBRANCH   1  21
TORSDOF 9
ENDMDL
MODEL 8
REMARK VINA RESULT:      -6.5      4.980      9.264
REMARK  Name = 
REMARK  10 active torsions:
REMARK  status: ('A' for Active; 'I' for Inactive)
REMARK    1  A    between atoms: C_1  and  O_2
REMARK    2  A    between atoms: O_2  and  C_3
REMARK    3  A    between atoms: C_3  and  C_4
REMARK    4  A    between atoms: C_4  and  O_5
REMARK    5  A    between atoms: O_5  and  C_6
REMARK    6  A    between atoms: C_6  and  C_8
REMARK    7  A    between atoms: C_12  and  S_13
REMARK    8  A    between atoms: S_13  and  N_16
REMARK    9  A    between atoms: C_20  and  S_21
REMARK   10  A    between atoms: S_21  and  N_22
REMARK                            x       y       z     vdW  Elec       q    Type
REMARK                         _______ _______ _______ _____ _____    ______ ____
ROOT
ATOM      1  S   UNL     1       1.574   3.483  19.847  0.00  0.00    +0.000 S 
ATOM      2  O   UNL     1       1.082   3.373  21.196  0.00  0.00    +0.000 OA
ATOM      3  O   UNL     1       0.790   2.973  18.724  0.00  0.00    +0.000 OA
ENDROOT
BRANCH   1   4
ATOM      4  N   UNL     1       3.140   2.811  19.827  0.00  0.00    +0.000 N 
ATOM      5  C   UNL     1       4.011   3.415  18.877  0.00  0.00    +0.000 A 
ATOM      6  N   UNL     1       4.097   2.999  17.630  0.00  0.00    +0.000 NA
ATOM      7  N   UNL     1       5.157   3.590  16.950  0.00  0.00    +0.000 NA
ATOM      8  C   UNL     1       5.871   4.360  17.751  0.00  0.00    +0.000 A 
ATOM      9  S   UNL     1       5.283   4.477  19.351  0.00  0.00    +0.000 S 
ATOM     10  H   UNL     1       3.051   1.807  19.674  0.00  0.00    +0.000 HD
BRANCH   8  11
ATOM     11  S   UNL     1       7.359   5.206  17.286  0.00  0.00    +0.000 S 
ATOM     12  O   UNL     1       7.548   6.245  18.272  0.00  0.00    +0.000 OA
ATOM     13  O   UNL     1       8.344   4.177  17.036  0.00  0.00    +0.000 OA
BRANCH  11  14
ATOM     14  N   UNL     1       7.104   5.984  15.810  0.00  0.00    +0.000 NA
ATOM     15  H   UNL     1       6.351   6.670  15.853  0.00  0.00    +0.000 HD
ATOM     16  H   UNL     1       7.061   5.341  15.022  0.00  0.00    +0.000 HD
ENDBRANCH  11  14
ENDBRANCH   8  11
ENDBRANCH   1   4
BRANCH   1  21
ATOM     17  C   UNL     1       1.764   7.559  20.165  0.00  0.00    +0.000 A 
ATOM     18  C   UNL     1       2.175   7.925  18.875  0.00  0.00    +0.000 A 
ATOM     19  C   UNL     1       2.350   6.952  17.891  0.00  0.00    +0.000 A 
ATOM     20  C   UNL     1       2.184   5.605  18.211  0.00  0.00    +0.000 A 
ATOM     21  C   UNL     1       1.869   5.223  19.519  0.00  0.00    +0.000 A 
ATOM     22  C   UNL     1       1.640   6.199  20.501  0.00  0.00    +0.000 A 
BRANCH  17  23
ATOM     23  C   UNL     1       1.398   8.655  21.115  0.00  0.00    +0.000 C 
ATOM     24  O   UNL     1       1.682   8.649  22.291  0.00  0.00    +0.000 OA
BRANCH  23  25
ATOM     25  O   UNL     1       0.692   9.620  20.468  0.00  0.00    +0.000 OA
BRANCH  25  26
ATOM     26  C   UNL     1      -0.440  10.112  21.196  0.00  0.00    +0.000 C 
BRANCH  26  27
ATOM     27  C   UNL     1      -0.214  11.519  21.733  0.00  0.00    +0.000 C 
BRANCH  27  29
ATOM     28  C   UNL     1      -2.070  11.793  23.158  0.00  0.00    +0.000 C 
ATOM     29  O   UNL     1      -0.659  11.604  23.091  0.00  0.00    +0.000 OA
ENDBRANCH  27  29
ENDBRANCH  26  27
ENDBRANCH  25  26
ENDBRANCH  23  25
ENDBRANCH  17  23
ENDBRANCH   1  21
TORSDOF 9
ENDMDL
MODEL 9
REMARK VINA RESULT:      -6.5      4.606      9.136
REMARK  Name = 
REMARK  10 active torsions:
REMARK  status: ('A' for Active; 'I' for Inactive)
REMARK    1  A    between atoms: C_1  and  O_2
REMARK    2  A    between atoms: O_2  and  C_3
REMARK    3  A    between atoms: C_3  and  C_4
REMARK    4  A    between atoms: C_4  and  O_5
REMARK    5  A    between atoms: O_5  and  C_6
REMARK    6  A    between atoms: C_6  and  C_8
REMARK    7  A    between atoms: C_12  and  S_13
REMARK    8  A    between atoms: S_13  and  N_16
REMARK    9  A    between atoms: C_20  and  S_21
REMARK   10  A    between atoms: S_21  and  N_22
REMARK                            x       y       z     vdW  Elec       q    Type
REMARK                         _______ _______ _______ _____ _____    ______ ____
ROOT
ATOM      1  S   UNL     1       1.575   3.462  19.853  0.00  0.00    +0.000 S 
ATOM      2  O   UNL     1       1.091   3.240  21.192  0.00  0.00    +0.000 OA
ATOM      3  O   UNL     1       0.799   3.019  18.697  0.00  0.00    +0.000 OA
ENDROOT
BRANCH   1   4
ATOM      4  N   UNL     1       3.156   2.827  19.780  0.00  0.00    +0.000 N 
ATOM      5  C   UNL     1       3.953   3.394  18.746  0.00  0.00    +0.000 A 
ATOM      6  N   UNL     1       3.978   2.904  17.523  0.00  0.00    +0.000 NA
ATOM      7  N   UNL     1       4.981   3.478  16.747  0.00  0.00    +0.000 NA
ATOM      8  C   UNL     1       5.718   4.313  17.456  0.00  0.00    +0.000 A 
ATOM      9  S   UNL     1       5.221   4.513  19.078  0.00  0.00    +0.000 S 
ATOM     10  H   UNL     1       3.086   1.814  19.693  0.00  0.00    +0.000 HD
BRANCH   8  11
ATOM     11  S   UNL     1       7.152   5.165  16.854  0.00  0.00    +0.000 S 
ATOM     12  O   UNL     1       8.266   4.274  17.080  0.00  0.00    +0.000 OA
ATOM     13  O   UNL     1       6.801   5.662  15.541  0.00  0.00    +0.000 OA
BRANCH  11  14
ATOM     14  N   UNL     1       7.420   6.526  17.817  0.00  0.00    +0.000 NA
ATOM     15  H   UNL     1       8.354   6.538  18.226  0.00  0.00    +0.000 HD
ATOM     16  H   UNL     1       6.658   6.712  18.466  0.00  0.00    +0.000 HD
ENDBRANCH  11  14
ENDBRANCH   8  11
ENDBRANCH   1   4
BRANCH   1  21
ATOM     17  C   UNL     1       1.629   7.510  20.449  0.00  0.00    +0.000 A 
ATOM     18  C   UNL     1       2.081   7.974  19.205  0.00  0.00    +0.000 A 
ATOM     19  C   UNL     1       2.325   7.074  18.167  0.00  0.00    +0.000 A 
ATOM     20  C   UNL     1       2.187   5.705  18.389  0.00  0.00    +0.000 A 
ATOM     21  C   UNL     1       1.830   5.226  19.654  0.00  0.00    +0.000 A 
ATOM     22  C   UNL     1       1.533   6.127  20.689  0.00  0.00    +0.000 A 
BRANCH  17  23
ATOM     23  C   UNL     1       1.192   8.529  21.453  0.00  0.00    +0.000 C 
ATOM     24  O   UNL     1       1.921   8.999  22.296  0.00  0.00    +0.000 OA
BRANCH  23  25
ATOM     25  O   UNL     1      -0.127   8.814  21.288  0.00  0.00    +0.000 OA
BRANCH  25  26
ATOM     26  C   UNL     1      -0.384  10.059  20.624  0.00  0.00    +0.000 C 
BRANCH  26  27
ATOM     27  C   UNL     1      -0.813  11.152  21.593  0.00  0.00    +0.000 C 
BRANCH  27  29
ATOM     28  C   UNL     1       0.552  12.996  21.057  0.00  0.00    +0.000 C 
ATOM     29  O   UNL     1       0.320  11.937  21.982  0.00  0.00    +0.000 OA
ENDBRANCH  27  29
ENDBRANCH  26  27
ENDBRANCH  25  26
ENDBRANCH  23  25
ENDBRANCH  17  23
ENDBRANCH   1  21
TORSDOF 9
ENDMDL
