MODEL 1
REMARK VINA RESULT:      -7.3      0.000      0.000
REMARK  Name = 
REMARK  4 active torsions:
REMARK  status: ('A' for Active; 'I' for Inactive)
REMARK    1  A    between atoms: C_1  and  C_2
REMARK    2  A    between atoms: N_8  and  C_9
REMARK    3  A    between atoms: C_11  and  C_12
REMARK    4  A    between atoms: C_15  and  O_16
REMARK                            x       y       z     vdW  Elec       q    Type
REMARK                         _______ _______ _______ _____ _____    ______ ____
ROOT
ATOM      1  C   UNL     1       7.734   7.779  17.442  0.00  0.00    +0.000 C 
ATOM      2  C   UNL     1       6.685   6.786  17.816  0.00  0.00    +0.000 A 
ATOM      3  C   UNL     1       5.336   6.890  17.507  0.00  0.00    +0.000 A 
ATOM      4  C   UNL     1       4.583   5.809  17.983  0.00  0.00    +0.000 A 
ATOM      5  C   UNL     1       5.333   4.861  18.637  0.00  0.00    +0.000 A 
ATOM      6  S   UNL     1       6.941   5.361  18.681  0.00  0.00    +0.000 S 
ATOM      7  C   UNL     1       4.787   3.596  19.208  0.00  0.00    +0.000 C 
ATOM      8  N   UNL     1       3.410   3.315  18.736  0.00  0.00    +0.000 NA
ATOM      9  C   UNL     1       3.224   2.088  17.959  0.00  0.00    +0.000 C 
ATOM     10  C   UNL     1       2.477   4.431  18.477  0.00  0.00    +0.000 C 
ATOM     11  C   UNL     1       3.103   5.704  17.803  0.00  0.00    +0.000 C 
ENDROOT
BRANCH  11  12
ATOM     12  C   UNL     1       2.467   6.941  18.430  0.00  0.00    +0.000 A 
ATOM     13  C   UNL     1       2.225   6.965  19.820  0.00  0.00    +0.000 A 
ATOM     14  C   UNL     1       1.646   8.076  20.427  0.00  0.00    +0.000 A 
ATOM     15  C   UNL     1       1.310   9.195  19.661  0.00  0.00    +0.000 A 
ATOM     16  C   UNL     1       1.560   9.192  18.281  0.00  0.00    +0.000 A 
ATOM     17  C   UNL     1       2.131   8.070  17.664  0.00  0.00    +0.000 A 
BRANCH  15  18
ATOM     18  O   UNL     1       0.750  10.276  20.240  0.00  0.00    +0.000 OA
ATOM     19  H   UNL     1       0.581  11.092  19.743  0.00  0.00    +0.000 HD
ENDBRANCH  15  18
ENDBRANCH  11  12
TORSDOF 2
ENDMDL
MODEL 2
REMARK VINA RESULT:      -7.3      0.083      1.145
REMARK  Name = 
REMARK  4 active torsions:
REMARK  status: ('A' for Active; 'I' for Inactive)
REMARK    1  A    between atoms: C_1  and  C_2
REMARK    2  A    between atoms: N_8  and  C_9
REMARK    3  A    between atoms: C_11  and  C_12
REMARK    4  A    between atoms: C_15  and  O_16
REMARK                            x       y       z     vdW  Elec       q    Type
REMARK                         _______ _______ _______ _____ _____    ______ ____
ROOT
ATOM      1  C   UNL     1       7.714   7.690  17.448  0.00  0.00    +0.000 C 
ATOM      2  C   UNL     1       6.650   6.711  17.820  0.00  0.00    +0.000 A 
ATOM      3  C   UNL     1       5.300   6.845  17.527  0.00  0.00    +0.000 A 
ATOM      4  C   UNL     1       4.532   5.771  17.996  0.00  0.00    +0.000 A 
ATOM      5  C   UNL     1       5.272   4.800  18.627  0.00  0.00    +0.000 A 
ATOM      6  S   UNL     1       6.889   5.270  18.661  0.00  0.00    +0.000 S 
ATOM      7  C   UNL     1       4.708   3.537  19.187  0.00  0.00    +0.000 C 
ATOM      8  N   UNL     1       3.321   3.288  18.725  0.00  0.00    +0.000 NA
ATOM      9  C   UNL     1       3.105   2.076  17.933  0.00  0.00    +0.000 C 
ATOM     10  C   UNL     1       2.406   4.425  18.492  0.00  0.00    +0.000 C 
ATOM     11  C   UNL     1       3.049   5.696  17.830  0.00  0.00    +0.000 C 
ENDROOT
BRANCH  11  12
ATOM     12  C   UNL     1       2.442   6.935  18.481  0.00  0.00    +0.000 A 
ATOM     13  C   UNL     1       2.093   8.039  17.675  0.00  0.00    +0.000 A 
ATOM     14  C   UNL     1       1.537   9.186  18.234  0.00  0.00    +0.000 A 
ATOM     15  C   UNL     1       1.303   9.251  19.610  0.00  0.00    +0.000 A 
ATOM     16  C   UNL     1       1.629   8.155  20.422  0.00  0.00    +0.000 A 
ATOM     17  C   UNL     1       2.201   7.002  19.864  0.00  0.00    +0.000 A 
BRANCH  15  18
ATOM     18  O   UNL     1       0.763  10.357  20.161  0.00  0.00    +0.000 OA
ATOM     19  H   UNL     1       0.982  11.245  19.841  0.00  0.00    +0.000 HD
ENDBRANCH  15  18
ENDBRANCH  11  12
TORSDOF 2
ENDMDL
MODEL 3
REMARK VINA RESULT:      -6.8      3.373      5.830
REMARK  Name = 
REMARK  4 active torsions:
REMARK  status: ('A' for Active; 'I' for Inactive)
REMARK    1  A    between atoms: C_1  and  C_2
REMARK    2  A    between atoms: N_8  and  C_9
REMARK    3  A    between atoms: C_11  and  C_12
REMARK    4  A    between atoms: C_15  and  O_16
REMARK                            x       y       z     vdW  Elec       q    Type
REMARK                         _______ _______ _______ _____ _____    ______ ____
ROOT
ATOM      1  C   UNL     1       1.222   2.067  19.580  0.00  0.00    +0.000 C 
ATOM      2  C   UNL     1       1.587   3.504  19.414  0.00  0.00    +0.000 A 
ATOM      3  C   UNL     1       2.329   4.026  18.363  0.00  0.00    +0.000 A 
ATOM      4  C   UNL     1       2.517   5.411  18.464  0.00  0.00    +0.000 A 
ATOM      5  C   UNL     1       1.912   5.970  19.564  0.00  0.00    +0.000 A 
ATOM      6  S   UNL     1       1.169   4.754  20.465  0.00  0.00    +0.000 S 
ATOM      7  C   UNL     1       1.925   7.426  19.890  0.00  0.00    +0.000 C 
ATOM      8  N   UNL     1       2.392   8.251  18.750  0.00  0.00    +0.000 NA
ATOM      9  C   UNL     1       1.432   9.212  18.204  0.00  0.00    +0.000 C 
ATOM     10  C   UNL     1       3.424   7.725  17.832  0.00  0.00    +0.000 C 
ATOM     11  C   UNL     1       3.306   6.201  17.471  0.00  0.00    +0.000 C 
ENDROOT
BRANCH  11  12
ATOM     12  C   UNL     1       4.712   5.611  17.416  0.00  0.00    +0.000 A 
ATOM     13  C   UNL     1       5.533   5.673  18.561  0.00  0.00    +0.000 A 
ATOM     14  C   UNL     1       6.821   5.145  18.548  0.00  0.00    +0.000 A 
ATOM     15  C   UNL     1       7.313   4.529  17.393  0.00  0.00    +0.000 A 
ATOM     16  C   UNL     1       6.502   4.446  16.253  0.00  0.00    +0.000 A 
ATOM     17  C   UNL     1       5.208   4.988  16.259  0.00  0.00    +0.000 A 
BRANCH  15  18
ATOM     18  O   UNL     1       8.558   4.014  17.371  0.00  0.00    +0.000 OA
ATOM     19  H   UNL     1       8.867   3.396  18.051  0.00  0.00    +0.000 HD
ENDBRANCH  15  18
ENDBRANCH  11  12
TORSDOF 2
ENDMDL
MODEL 4
REMARK VINA RESULT:      -6.7      3.536      4.959
REMARK  Name = 
REMARK  4 active torsions:
REMARK  status: ('A' for Active; 'I' for Inactive)
REMARK    1  A    between atoms: C_1  and  C_2
REMARK    2  A    between atoms: N_8  and  C_9
REMARK    3  A    between atoms: C_11  and  C_12
REMARK    4  A    between atoms: C_15  and  O_16
REMARK                            x       y       z     vdW  Elec       q    Type
REMARK                         _______ _______ _______ _____ _____    ______ ____
ROOT
ATOM      1  C   UNL     1       5.809   3.416  12.956  0.00  0.00    +0.000 C 
ATOM      2  C   UNL     1       5.956   4.066  14.291  0.00  0.00    +0.000 A 
ATOM      3  C   UNL     1       5.654   3.472  15.509  0.00  0.00    +0.000 A 
ATOM      4  C   UNL     1       5.892   4.317  16.601  0.00  0.00    +0.000 A 
ATOM      5  C   UNL     1       6.394   5.546  16.247  0.00  0.00    +0.000 A 
ATOM      6  S   UNL     1       6.511   5.633  14.568  0.00  0.00    +0.000 S 
ATOM      7  C   UNL     1       6.769   6.619  17.214  0.00  0.00    +0.000 C 
ATOM      8  N   UNL     1       6.836   6.119  18.608  0.00  0.00    +0.000 NA
ATOM      9  C   UNL     1       8.141   6.196  19.267  0.00  0.00    +0.000 C 
ATOM     10  C   UNL     1       5.910   5.058  19.057  0.00  0.00    +0.000 C 
ATOM     11  C   UNL     1       5.619   3.919  18.015  0.00  0.00    +0.000 C 
ENDROOT
BRANCH  11  12
ATOM     12  C   UNL     1       4.144   3.541  18.118  0.00  0.00    +0.000 A 
ATOM     13  C   UNL     1       3.791   2.252  18.571  0.00  0.00    +0.000 A 
ATOM     14  C   UNL     1       2.456   1.871  18.678  0.00  0.00    +0.000 A 
ATOM     15  C   UNL     1       1.443   2.776  18.348  0.00  0.00    +0.000 A 
ATOM     16  C   UNL     1       1.778   4.066  17.912  0.00  0.00    +0.000 A 
ATOM     17  C   UNL     1       3.123   4.448  17.791  0.00  0.00    +0.000 A 
BRANCH  15  18
ATOM     18  O   UNL     1       0.147   2.418  18.450  0.00  0.00    +0.000 OA
ATOM     19  H   UNL     1      -0.522   2.741  17.828  0.00  0.00    +0.000 HD
ENDBRANCH  15  18
ENDBRANCH  11  12
TORSDOF 2
ENDMDL
MODEL 5
REMARK VINA RESULT:      -6.6      3.385      5.920
REMARK  Name = 
REMARK  4 active torsions:
REMARK  status: ('A' for Active; 'I' for Inactive)
REMARK    1  A    between atoms: C_1  and  C_2
REMARK    2  A    between atoms: N_8  and  C_9
REMARK    3  A    between atoms: C_11  and  C_12
REMARK    4  A    between atoms: C_15  and  O_16
REMARK                            x       y       z     vdW  Elec       q    Type
REMARK                         _______ _______ _______ _____ _____    ______ ____
ROOT
ATOM      1  C   UNL     1       1.203   2.113  19.625  0.00  0.00    +0.000 C 
ATOM      2  C   UNL     1       1.566   3.549  19.441  0.00  0.00    +0.000 A 
ATOM      3  C   UNL     1       2.323   4.056  18.394  0.00  0.00    +0.000 A 
ATOM      4  C   UNL     1       2.505   5.443  18.474  0.00  0.00    +0.000 A 
ATOM      5  C   UNL     1       1.880   6.018  19.555  0.00  0.00    +0.000 A 
ATOM      6  S   UNL     1       1.127   4.815  20.464  0.00  0.00    +0.000 S 
ATOM      7  C   UNL     1       1.883   7.479  19.856  0.00  0.00    +0.000 C 
ATOM      8  N   UNL     1       2.366   8.287  18.711  0.00  0.00    +0.000 NA
ATOM      9  C   UNL     1       1.412   9.235  18.133  0.00  0.00    +0.000 C 
ATOM     10  C   UNL     1       3.415   7.749  17.819  0.00  0.00    +0.000 C 
ATOM     11  C   UNL     1       3.308   6.219  17.482  0.00  0.00    +0.000 C 
ENDROOT
BRANCH  11  12
ATOM     12  C   UNL     1       4.716   5.633  17.459  0.00  0.00    +0.000 A 
ATOM     13  C   UNL     1       5.194   5.028  16.277  0.00  0.00    +0.000 A 
ATOM     14  C   UNL     1       6.474   4.483  16.218  0.00  0.00    +0.000 A 
ATOM     15  C   UNL     1       7.312   4.544  17.336  0.00  0.00    +0.000 A 
ATOM     16  C   UNL     1       6.856   5.158  18.512  0.00  0.00    +0.000 A 
ATOM     17  C   UNL     1       5.563   5.696  18.578  0.00  0.00    +0.000 A 
BRANCH  15  18
ATOM     18  O   UNL     1       8.553   4.021  17.289  0.00  0.00    +0.000 OA
ATOM     19  H   UNL     1       9.135   4.155  16.526  0.00  0.00    +0.000 HD
ENDBRANCH  15  18
ENDBRANCH  11  12
TORSDOF 2
ENDMDL
MODEL 6
REMARK VINA RESULT:      -6.5      3.531      5.060
REMARK  Name = 
REMARK  4 active torsions:
REMARK  status: ('A' for Active; 'I' for Inactive)
REMARK    1  A    between atoms: C_1  and  C_2
REMARK    2  A    between atoms: N_8  and  C_9
REMARK    3  A    between atoms: C_11  and  C_12
REMARK    4  A    between atoms: C_15  and  O_16
REMARK                            x       y       z     vdW  Elec       q    Type
REMARK                         _______ _______ _______ _____ _____    ______ ____
ROOT
ATOM      1  C   UNL     1       5.798   3.332  12.972  0.00  0.00    +0.000 C 
ATOM      2  C   UNL     1       5.941   4.007  14.295  0.00  0.00    +0.000 A 
ATOM      3  C   UNL     1       5.667   3.426  15.525  0.00  0.00    +0.000 A 
ATOM      4  C   UNL     1       5.894   4.295  16.601  0.00  0.00    +0.000 A 
ATOM      5  C   UNL     1       6.361   5.530  16.221  0.00  0.00    +0.000 A 
ATOM      6  S   UNL     1       6.460   5.593  14.540  0.00  0.00    +0.000 S 
ATOM      7  C   UNL     1       6.718   6.628  17.167  0.00  0.00    +0.000 C 
ATOM      8  N   UNL     1       6.811   6.153  18.569  0.00  0.00    +0.000 NA
ATOM      9  C   UNL     1       8.120   6.274  19.213  0.00  0.00    +0.000 C 
ATOM     10  C   UNL     1       5.916   5.077  19.043  0.00  0.00    +0.000 C 
ATOM     11  C   UNL     1       5.644   3.913  18.024  0.00  0.00    +0.000 C 
ENDROOT
BRANCH  11  12
ATOM     12  C   UNL     1       4.180   3.500  18.147  0.00  0.00    +0.000 A 
ATOM     13  C   UNL     1       3.170   4.438  17.847  0.00  0.00    +0.000 A 
ATOM     14  C   UNL     1       1.824   4.097  17.948  0.00  0.00    +0.000 A 
ATOM     15  C   UNL     1       1.457   2.805  18.336  0.00  0.00    +0.000 A 
ATOM     16  C   UNL     1       2.450   1.858  18.621  0.00  0.00    +0.000 A 
ATOM     17  C   UNL     1       3.807   2.202  18.533  0.00  0.00    +0.000 A 
BRANCH  15  18
ATOM     18  O   UNL     1       0.157   2.465  18.435  0.00  0.00    +0.000 OA
ATOM     19  H   UNL     1      -0.452   2.551  17.686  0.00  0.00    +0.000 HD
ENDBRANCH  15  18
ENDBRANCH  11  12
TORSDOF 2
ENDMDL
MODEL 7
REMARK VINA RESULT:      -6.5      2.883      4.576
REMARK  Name = 
REMARK  4 active torsions:
REMARK  status: ('A' for Active; 'I' for Inactive)
REMARK    1  A    between atoms: C_1  and  C_2
REMARK    2  A    between atoms: N_8  and  C_9
REMARK    3  A    between atoms: C_11  and  C_12
REMARK    4  A    between atoms: C_15  and  O_16
REMARK                            x       y       z     vdW  Elec       q    Type
REMARK                         _______ _______ _______ _____ _____    ______ ____
ROOT
ATOM      1  C   UNL     1       1.820   8.908  18.175  0.00  0.00    +0.000 C 
ATOM      2  C   UNL     1       2.715   7.750  17.884  0.00  0.00    +0.000 A 
ATOM      3  C   UNL     1       2.321   6.420  17.853  0.00  0.00    +0.000 A 
ATOM      4  C   UNL     1       3.374   5.547  17.549  0.00  0.00    +0.000 A 
ATOM      5  C   UNL     1       4.571   6.185  17.324  0.00  0.00    +0.000 A 
ATOM      6  S   UNL     1       4.363   7.843  17.541  0.00  0.00    +0.000 S 
ATOM      7  C   UNL     1       5.840   5.496  16.947  0.00  0.00    +0.000 C 
ATOM      8  N   UNL     1       5.615   4.088  16.541  0.00  0.00    +0.000 NA
ATOM      9  C   UNL     1       5.971   3.742  15.164  0.00  0.00    +0.000 C 
ATOM     10  C   UNL     1       4.548   3.295  17.186  0.00  0.00    +0.000 C 
ATOM     11  C   UNL     1       3.211   4.063  17.485  0.00  0.00    +0.000 C 
ENDROOT
BRANCH  11  12
ATOM     12  C   UNL     1       2.679   3.592  18.836  0.00  0.00    +0.000 A 
ATOM     13  C   UNL     1       1.286   3.460  19.022  0.00  0.00    +0.000 A 
ATOM     14  C   UNL     1       0.765   3.033  20.240  0.00  0.00    +0.000 A 
ATOM     15  C   UNL     1       1.624   2.714  21.295  0.00  0.00    +0.000 A 
ATOM     16  C   UNL     1       3.010   2.825  21.119  0.00  0.00    +0.000 A 
ATOM     17  C   UNL     1       3.539   3.267  19.897  0.00  0.00    +0.000 A 
BRANCH  15  18
ATOM     18  O   UNL     1       1.129   2.298  22.478  0.00  0.00    +0.000 OA
ATOM     19  H   UNL     1       0.175   2.235  22.638  0.00  0.00    +0.000 HD
ENDBRANCH  15  18
ENDBRANCH  11  12
TORSDOF 2
ENDMDL
MODEL 8
REMARK VINA RESULT:      -6.5      2.885      4.515
REMARK  Name = 
REMARK  4 active torsions:
REMARK  status: ('A' for Active; 'I' for Inactive)
REMARK    1  A    between atoms: C_1  and  C_2
REMARK    2  A    between atoms: N_8  and  C_9
REMARK    3  A    between atoms: C_11  and  C_12
REMARK    4  A    between atoms: C_15  and  O_16
REMARK                            x       y       z     vdW  Elec       q    Type
REMARK                         _______ _______ _______ _____ _____    ______ ____
ROOT
ATOM      1  C   UNL     1       1.870   8.908  18.196  0.00  0.00    +0.000 C 
ATOM      2  C   UNL     1       2.747   7.738  17.899  0.00  0.00    +0.000 A 
ATOM      3  C   UNL     1       2.328   6.416  17.839  0.00  0.00    +0.000 A 
ATOM      4  C   UNL     1       3.368   5.527  17.538  0.00  0.00    +0.000 A 
ATOM      5  C   UNL     1       4.581   6.145  17.342  0.00  0.00    +0.000 A 
ATOM      6  S   UNL     1       4.402   7.803  17.584  0.00  0.00    +0.000 S 
ATOM      7  C   UNL     1       5.842   5.438  16.975  0.00  0.00    +0.000 C 
ATOM      8  N   UNL     1       5.596   4.041  16.541  0.00  0.00    +0.000 NA
ATOM      9  C   UNL     1       5.969   3.711  15.164  0.00  0.00    +0.000 C 
ATOM     10  C   UNL     1       4.503   3.259  17.155  0.00  0.00    +0.000 C 
ATOM     11  C   UNL     1       3.177   4.048  17.446  0.00  0.00    +0.000 C 
ENDROOT
BRANCH  11  12
ATOM     12  C   UNL     1       2.613   3.566  18.779  0.00  0.00    +0.000 A 
ATOM     13  C   UNL     1       3.488   3.371  19.869  0.00  0.00    +0.000 A 
ATOM     14  C   UNL     1       3.011   2.932  21.101  0.00  0.00    +0.000 A 
ATOM     15  C   UNL     1       1.645   2.692  21.276  0.00  0.00    +0.000 A 
ATOM     16  C   UNL     1       0.761   2.898  20.207  0.00  0.00    +0.000 A 
ATOM     17  C   UNL     1       1.241   3.328  18.960  0.00  0.00    +0.000 A 
BRANCH  15  18
ATOM     18  O   UNL     1       1.172   2.269  22.465  0.00  0.00    +0.000 OA
ATOM     19  H   UNL     1       0.223   2.252  22.661  0.00  0.00    +0.000 HD
ENDBRANCH  15  18
ENDBRANCH  11  12
TORSDOF 2
ENDMDL
MODEL 9
REMARK VINA RESULT:      -6.4      2.091      3.750
REMARK  Name = 
REMARK  4 active torsions:
REMARK  status: ('A' for Active; 'I' for Inactive)
REMARK    1  A    between atoms: C_1  and  C_2
REMARK    2  A    between atoms: N_8  and  C_9
REMARK    3  A    between atoms: C_11  and  C_12
REMARK    4  A    between atoms: C_15  and  O_16
REMARK                            x       y       z     vdW  Elec       q    Type
REMARK                         _______ _______ _______ _____ _____    ______ ____
ROOT
ATOM      1  C   UNL     1       1.337   2.731  21.635  0.00  0.00    +0.000 C 
ATOM      2  C   UNL     1       2.036   3.264  20.429  0.00  0.00    +0.000 A 
ATOM      3  C   UNL     1       2.626   4.517  20.333  0.00  0.00    +0.000 A 
ATOM      4  C   UNL     1       3.212   4.748  19.082  0.00  0.00    +0.000 A 
ATOM      5  C   UNL     1       3.104   3.684  18.218  0.00  0.00    +0.000 A 
ATOM      6  S   UNL     1       2.238   2.449  18.968  0.00  0.00    +0.000 S 
ATOM      7  C   UNL     1       3.673   3.652  16.839  0.00  0.00    +0.000 C 
ATOM      8  N   UNL     1       4.629   4.760  16.600  0.00  0.00    +0.000 NA
ATOM      9  C   UNL     1       6.010   4.377  16.301  0.00  0.00    +0.000 C 
ATOM     10  C   UNL     1       4.412   6.073  17.242  0.00  0.00    +0.000 C 
ATOM     11  C   UNL     1       3.884   6.033  18.721  0.00  0.00    +0.000 C 
ENDROOT
BRANCH  11  12
ATOM     12  C   UNL     1       2.869   7.158  18.899  0.00  0.00    +0.000 A 
ATOM     13  C   UNL     1       2.566   7.995  17.805  0.00  0.00    +0.000 A 
ATOM     14  C   UNL     1       1.645   9.032  17.930  0.00  0.00    +0.000 A 
ATOM     15  C   UNL     1       0.994   9.245  19.149  0.00  0.00    +0.000 A 
ATOM     16  C   UNL     1       1.273   8.410  20.240  0.00  0.00    +0.000 A 
ATOM     17  C   UNL     1       2.210   7.373  20.121  0.00  0.00    +0.000 A 
BRANCH  15  18
ATOM     18  O   UNL     1       0.099  10.245  19.279  0.00  0.00    +0.000 OA
ATOM     19  H   UNL     1      -0.753  10.113  19.723  0.00  0.00    +0.000 HD
ENDBRANCH  15  18
ENDBRANCH  11  12
TORSDOF 2
ENDMDL
