MODEL 1
REMARK VINA RESULT:      -8.1      0.000      0.000
REMARK  Name = 
REMARK  5 active torsions:
REMARK  status: ('A' for Active; 'I' for Inactive)
REMARK    1  A    between atoms: C_1  and  C_2
REMARK    2  A    between atoms: C_5  and  C_6
REMARK    3  A    between atoms: C_12  and  C_14
REMARK    4  A    between atoms: C_16  and  C_17
REMARK    5  A    between atoms: N_18  and  C_19
REMARK                            x       y       z     vdW  Elec       q    Type
REMARK                         _______ _______ _______ _____ _____    ______ ____
ROOT
ATOM      1  C   UNL     1       3.896   3.879  18.301  0.00  0.00    +0.000 C 
ATOM      2  C   UNL     1       3.044   2.708  17.763  0.00  0.00    +0.000 C 
ATOM      3  C   UNL     1       1.939   2.305  18.734  0.00  0.00    +0.000 C 
ATOM      4  C   UNL     1       1.099   3.510  19.115  0.00  0.00    +0.000 C 
ATOM      5  C   UNL     1       1.969   4.645  19.642  0.00  0.00    +0.000 C 
ATOM      6  N   UNL     1       3.019   5.019  18.684  0.00  0.00    +0.000 N 
ATOM      7  C   UNL     1       3.217   6.331  18.210  0.00  0.00    +0.000 C 
ATOM      8  O   UNL     1       4.022   6.610  17.329  0.00  0.00    +0.000 OA
ENDROOT
BRANCH   7   9
ATOM      9  C   UNL     1       2.389   7.444  18.749  0.00  0.00    +0.000 A 
ATOM     10  C   UNL     1       1.890   8.535  17.984  0.00  0.00    +0.000 A 
ATOM     11  C   UNL     1       1.198   9.337  18.865  0.00  0.00    +0.000 A 
ATOM     12  C   UNL     1       0.459  10.601  18.640  0.00  0.00    +0.000 C 
ATOM     13  N   UNL     1       1.336   8.733  20.085  0.00  0.00    +0.000 N 
ATOM     14  C   UNL     1       0.816   9.153  21.363  0.00  0.00    +0.000 C 
ATOM     15  N   UNL     1       2.091   7.621  20.050  0.00  0.00    +0.000 NA
ENDBRANCH   7   9
BRANCH   1  20
ATOM     16  C   UNL     1       6.312   4.130  13.965  0.00  0.00    +0.000 C 
ATOM     17  C   UNL     1       6.191   4.254  15.439  0.00  0.00    +0.000 A 
ATOM     18  C   UNL     1       7.172   4.668  16.319  0.00  0.00    +0.000 A 
ATOM     19  S   UNL     1       6.570   4.668  17.922  0.00  0.00    +0.000 S 
ATOM     20  C   UNL     1       5.030   4.153  17.332  0.00  0.00    +0.000 A 
ATOM     21  N   UNL     1       4.984   3.928  16.031  0.00  0.00    +0.000 NA
ENDBRANCH   1  20
TORSDOF 2
ENDMDL
MODEL 2
REMARK VINA RESULT:      -7.6      0.917      1.461
REMARK  Name = 
REMARK  5 active torsions:
REMARK  status: ('A' for Active; 'I' for Inactive)
REMARK    1  A    between atoms: C_1  and  C_2
REMARK    2  A    between atoms: C_5  and  C_6
REMARK    3  A    between atoms: C_12  and  C_14
REMARK    4  A    between atoms: C_16  and  C_17
REMARK    5  A    between atoms: N_18  and  C_19
REMARK                            x       y       z     vdW  Elec       q    Type
REMARK                         _______ _______ _______ _____ _____    ______ ____
ROOT
ATOM      1  C   UNL     1       3.733   3.915  19.023  0.00  0.00    +0.000 C 
ATOM      2  C   UNL     1       2.860   2.722  18.573  0.00  0.00    +0.000 C 
ATOM      3  C   UNL     1       1.825   2.336  19.624  0.00  0.00    +0.000 C 
ATOM      4  C   UNL     1       0.999   3.543  20.025  0.00  0.00    +0.000 C 
ATOM      5  C   UNL     1       1.888   4.700  20.464  0.00  0.00    +0.000 C 
ATOM      6  N   UNL     1       2.870   5.057  19.431  0.00  0.00    +0.000 N 
ATOM      7  C   UNL     1       3.022   6.357  18.910  0.00  0.00    +0.000 C 
ATOM      8  O   UNL     1       3.766   6.619  17.971  0.00  0.00    +0.000 OA
ENDROOT
BRANCH   7   9
ATOM      9  C   UNL     1       2.218   7.477  19.470  0.00  0.00    +0.000 A 
ATOM     10  C   UNL     1       1.692   7.524  20.791  0.00  0.00    +0.000 A 
ATOM     11  C   UNL     1       1.004   8.713  20.888  0.00  0.00    +0.000 A 
ATOM     12  C   UNL     1       0.261   9.306  22.024  0.00  0.00    +0.000 C 
ATOM     13  N   UNL     1       1.112   9.292  19.653  0.00  0.00    +0.000 N 
ATOM     14  C   UNL     1       0.569  10.549  19.197  0.00  0.00    +0.000 C 
ATOM     15  N   UNL     1       1.794   8.545  18.768  0.00  0.00    +0.000 NA
ENDBRANCH   7   9
BRANCH   1  20
ATOM     16  C   UNL     1       5.867   4.055  14.537  0.00  0.00    +0.000 C 
ATOM     17  C   UNL     1       5.837   4.226  16.010  0.00  0.00    +0.000 A 
ATOM     18  C   UNL     1       6.864   4.683  16.812  0.00  0.00    +0.000 A 
ATOM     19  S   UNL     1       6.365   4.728  18.450  0.00  0.00    +0.000 S 
ATOM     20  C   UNL     1       4.799   4.173  17.975  0.00  0.00    +0.000 A 
ATOM     21  N   UNL     1       4.675   3.902  16.688  0.00  0.00    +0.000 NA
ENDBRANCH   1  20
TORSDOF 2
ENDMDL
MODEL 3
REMARK VINA RESULT:      -7.2      1.540      1.889
REMARK  Name = 
REMARK  5 active torsions:
REMARK  status: ('A' for Active; 'I' for Inactive)
REMARK    1  A    between atoms: C_1  and  C_2
REMARK    2  A    between atoms: C_5  and  C_6
REMARK    3  A    between atoms: C_12  and  C_14
REMARK    4  A    between atoms: C_16  and  C_17
REMARK    5  A    between atoms: N_18  and  C_19
REMARK                            x       y       z     vdW  Elec       q    Type
REMARK                         _______ _______ _______ _____ _____    ______ ____
ROOT
ATOM      1  C   UNL     1       3.534   4.035  19.636  0.00  0.00    +0.000 C 
ATOM      2  C   UNL     1       2.764   2.837  19.034  0.00  0.00    +0.000 C 
ATOM      3  C   UNL     1       1.540   2.463  19.863  0.00  0.00    +0.000 C 
ATOM      4  C   UNL     1       0.653   3.675  20.080  0.00  0.00    +0.000 C 
ATOM      5  C   UNL     1       1.441   4.836  20.675  0.00  0.00    +0.000 C 
ATOM      6  N   UNL     1       2.609   5.181  19.853  0.00  0.00    +0.000 N 
ATOM      7  C   UNL     1       2.866   6.476  19.359  0.00  0.00    +0.000 C 
ATOM      8  O   UNL     1       3.781   6.727  18.583  0.00  0.00    +0.000 OA
ENDROOT
BRANCH   7   9
ATOM      9  C   UNL     1       1.970   7.602  19.737  0.00  0.00    +0.000 A 
ATOM     10  C   UNL     1       1.597   8.673  18.878  0.00  0.00    +0.000 A 
ATOM     11  C   UNL     1       0.783   9.497  19.623  0.00  0.00    +0.000 A 
ATOM     12  C   UNL     1       0.090  10.755  19.257  0.00  0.00    +0.000 C 
ATOM     13  N   UNL     1       0.732   8.924  20.864  0.00  0.00    +0.000 N 
ATOM     14  C   UNL     1       0.025   9.378  22.038  0.00  0.00    +0.000 C 
ATOM     15  N   UNL     1       1.479   7.812  20.973  0.00  0.00    +0.000 NA
ENDBRANCH   7   9
BRANCH   1  20
ATOM     16  C   UNL     1       8.188   5.451  18.622  0.00  0.00    +0.000 C 
ATOM     17  C   UNL     1       6.842   4.930  18.277  0.00  0.00    +0.000 A 
ATOM     18  C   UNL     1       6.402   4.537  17.028  0.00  0.00    +0.000 A 
ATOM     19  S   UNL     1       4.781   3.991  17.115  0.00  0.00    +0.000 S 
ATOM     20  C   UNL     1       4.787   4.280  18.818  0.00  0.00    +0.000 A 
ATOM     21  N   UNL     1       5.901   4.814  19.285  0.00  0.00    +0.000 NA
ENDBRANCH   1  20
TORSDOF 2
ENDMDL
MODEL 4
REMARK VINA RESULT:      -7.1      1.517      2.159
REMARK  Name = 
REMARK  5 active torsions:
REMARK  status: ('A' for Active; 'I' for Inactive)
REMARK    1  A    between atoms: C_1  and  C_2
REMARK    2  A    between atoms: C_5  and  C_6
REMARK    3  A    between atoms: C_12  and  C_14
REMARK    4  A    between atoms: C_16  and  C_17
REMARK    5  A    between atoms: N_18  and  C_19
REMARK                            x       y       z     vdW  Elec       q    Type
REMARK                         _______ _______ _______ _____ _____    ______ ____
ROOT
ATOM      1  C   UNL     1       3.435   3.837  19.481  0.00  0.00    +0.000 C 
ATOM      2  C   UNL     1       2.554   2.693  18.928  0.00  0.00    +0.000 C 
ATOM      3  C   UNL     1       1.394   2.358  19.858  0.00  0.00    +0.000 C 
ATOM      4  C   UNL     1       0.593   3.605  20.182  0.00  0.00    +0.000 C 
ATOM      5  C   UNL     1       1.488   4.711  20.725  0.00  0.00    +0.000 C 
ATOM      6  N   UNL     1       2.592   5.021  19.807  0.00  0.00    +0.000 N 
ATOM      7  C   UNL     1       2.867   6.314  19.318  0.00  0.00    +0.000 C 
ATOM      8  O   UNL     1       3.720   6.540  18.466  0.00  0.00    +0.000 OA
ENDROOT
BRANCH   7   9
ATOM      9  C   UNL     1       2.067   7.472  19.800  0.00  0.00    +0.000 A 
ATOM     10  C   UNL     1       1.464   7.569  21.085  0.00  0.00    +0.000 A 
ATOM     11  C   UNL     1       0.808   8.780  21.111  0.00  0.00    +0.000 A 
ATOM     12  C   UNL     1       0.017   9.425  22.185  0.00  0.00    +0.000 C 
ATOM     13  N   UNL     1       1.010   9.324  19.872  0.00  0.00    +0.000 N 
ATOM     14  C   UNL     1       0.536  10.584  19.352  0.00  0.00    +0.000 C 
ATOM     15  N   UNL     1       1.720   8.533  19.048  0.00  0.00    +0.000 NA
ENDBRANCH   7   9
BRANCH   1  20
ATOM     16  C   UNL     1       8.087   4.899  18.095  0.00  0.00    +0.000 C 
ATOM     17  C   UNL     1       6.667   4.546  17.853  0.00  0.00    +0.000 A 
ATOM     18  C   UNL     1       6.065   4.324  16.631  0.00  0.00    +0.000 A 
ATOM     19  S   UNL     1       4.412   3.929  16.845  0.00  0.00    +0.000 S 
ATOM     20  C   UNL     1       4.619   4.043  18.556  0.00  0.00    +0.000 A 
ATOM     21  N   UNL     1       5.824   4.420  18.944  0.00  0.00    +0.000 NA
ENDBRANCH   1  20
TORSDOF 2
ENDMDL
MODEL 5
REMARK VINA RESULT:      -6.8      1.689      2.349
REMARK  Name = 
REMARK  5 active torsions:
REMARK  status: ('A' for Active; 'I' for Inactive)
REMARK    1  A    between atoms: C_1  and  C_2
REMARK    2  A    between atoms: C_5  and  C_6
REMARK    3  A    between atoms: C_12  and  C_14
REMARK    4  A    between atoms: C_16  and  C_17
REMARK    5  A    between atoms: N_18  and  C_19
REMARK                            x       y       z     vdW  Elec       q    Type
REMARK                         _______ _______ _______ _____ _____    ______ ____
ROOT
ATOM      1  C   UNL     1       3.621   4.671  19.356  0.00  0.00    +0.000 C 
ATOM      2  C   UNL     1       2.898   3.400  18.857  0.00  0.00    +0.000 C 
ATOM      3  C   UNL     1       1.916   2.853  19.887  0.00  0.00    +0.000 C 
ATOM      4  C   UNL     1       0.951   3.935  20.331  0.00  0.00    +0.000 C 
ATOM      5  C   UNL     1       1.695   5.173  20.819  0.00  0.00    +0.000 C 
ATOM      6  N   UNL     1       2.627   5.684  19.804  0.00  0.00    +0.000 N 
ATOM      7  C   UNL     1       2.622   7.013  19.334  0.00  0.00    +0.000 C 
ATOM      8  O   UNL     1       3.329   7.398  18.410  0.00  0.00    +0.000 OA
ENDROOT
BRANCH   7   9
ATOM      9  C   UNL     1       1.690   8.006  19.934  0.00  0.00    +0.000 A 
ATOM     10  C   UNL     1       1.217   7.976  21.275  0.00  0.00    +0.000 A 
ATOM     11  C   UNL     1       0.370   9.054  21.407  0.00  0.00    +0.000 A 
ATOM     12  C   UNL     1      -0.403   9.535  22.577  0.00  0.00    +0.000 C 
ATOM     13  N   UNL     1       0.343   9.643  20.173  0.00  0.00    +0.000 N 
ATOM     14  C   UNL     1      -0.393  10.809  19.746  0.00  0.00    +0.000 C 
ATOM     15  N   UNL     1       1.088   9.002  19.256  0.00  0.00    +0.000 NA
ENDBRANCH   7   9
BRANCH   1  20
ATOM     16  C   UNL     1       7.625   6.940  17.482  0.00  0.00    +0.000 C 
ATOM     17  C   UNL     1       6.397   6.112  17.403  0.00  0.00    +0.000 A 
ATOM     18  C   UNL     1       5.875   5.509  16.275  0.00  0.00    +0.000 A 
ATOM     19  S   UNL     1       4.453   4.641  16.669  0.00  0.00    +0.000 S 
ATOM     20  C   UNL     1       4.649   5.095  18.324  0.00  0.00    +0.000 A 
ATOM     21  N   UNL     1       5.669   5.900  18.561  0.00  0.00    +0.000 NA
ENDBRANCH   1  20
TORSDOF 2
ENDMDL
MODEL 6
REMARK VINA RESULT:      -6.7      3.219      6.804
REMARK  Name = 
REMARK  5 active torsions:
REMARK  status: ('A' for Active; 'I' for Inactive)
REMARK    1  A    between atoms: C_1  and  C_2
REMARK    2  A    between atoms: C_5  and  C_6
REMARK    3  A    between atoms: C_12  and  C_14
REMARK    4  A    between atoms: C_16  and  C_17
REMARK    5  A    between atoms: N_18  and  C_19
REMARK                            x       y       z     vdW  Elec       q    Type
REMARK                         _______ _______ _______ _____ _____    ______ ____
ROOT
ATOM      1  C   UNL     1       5.461   4.318  18.758  0.00  0.00    +0.000 C 
ATOM      2  C   UNL     1       5.926   5.483  19.661  0.00  0.00    +0.000 C 
ATOM      3  C   UNL     1       7.444   5.620  19.689  0.00  0.00    +0.000 C 
ATOM      4  C   UNL     1       7.996   5.720  18.279  0.00  0.00    +0.000 C 
ATOM      5  C   UNL     1       7.520   4.557  17.416  0.00  0.00    +0.000 C 
ATOM      6  N   UNL     1       6.055   4.453  17.400  0.00  0.00    +0.000 N 
ATOM      7  C   UNL     1       5.283   4.430  16.221  0.00  0.00    +0.000 C 
ATOM      8  O   UNL     1       4.057   4.455  16.223  0.00  0.00    +0.000 OA
ENDROOT
BRANCH   7   9
ATOM      9  C   UNL     1       5.959   4.426  14.895  0.00  0.00    +0.000 A 
ATOM     10  C   UNL     1       5.770   3.442  13.885  0.00  0.00    +0.000 A 
ATOM     11  C   UNL     1       6.591   3.803  12.840  0.00  0.00    +0.000 A 
ATOM     12  C   UNL     1       6.807   3.165  11.520  0.00  0.00    +0.000 C 
ATOM     13  N   UNL     1       7.242   4.928  13.266  0.00  0.00    +0.000 N 
ATOM     14  C   UNL     1       8.227   5.719  12.568  0.00  0.00    +0.000 C 
ATOM     15  N   UNL     1       6.917   5.293  14.519  0.00  0.00    +0.000 NA
ENDBRANCH   7   9
BRANCH   1  20
ATOM     16  C   UNL     1       1.007   2.112  18.743  0.00  0.00    +0.000 C 
ATOM     17  C   UNL     1       1.924   3.276  18.828  0.00  0.00    +0.000 A 
ATOM     18  C   UNL     1       1.571   4.597  19.023  0.00  0.00    +0.000 A 
ATOM     19  S   UNL     1       2.969   5.585  19.068  0.00  0.00    +0.000 S 
ATOM     20  C   UNL     1       3.954   4.181  18.862  0.00  0.00    +0.000 A 
ATOM     21  N   UNL     1       3.285   3.054  18.700  0.00  0.00    +0.000 NA
ENDBRANCH   1  20
TORSDOF 2
ENDMDL
MODEL 7
REMARK VINA RESULT:      -6.6      1.518      1.759
REMARK  Name = 
REMARK  5 active torsions:
REMARK  status: ('A' for Active; 'I' for Inactive)
REMARK    1  A    between atoms: C_1  and  C_2
REMARK    2  A    between atoms: C_5  and  C_6
REMARK    3  A    between atoms: C_12  and  C_14
REMARK    4  A    between atoms: C_16  and  C_17
REMARK    5  A    between atoms: N_18  and  C_19
REMARK                            x       y       z     vdW  Elec       q    Type
REMARK                         _______ _______ _______ _____ _____    ______ ____
ROOT
ATOM      1  C   UNL     1       4.139   5.230  19.197  0.00  0.00    +0.000 C 
ATOM      2  C   UNL     1       3.400   3.881  19.351  0.00  0.00    +0.000 C 
ATOM      3  C   UNL     1       2.419   3.890  20.518  0.00  0.00    +0.000 C 
ATOM      4  C   UNL     1       1.467   5.066  20.404  0.00  0.00    +0.000 C 
ATOM      5  C   UNL     1       2.226   6.379  20.255  0.00  0.00    +0.000 C 
ATOM      6  N   UNL     1       3.157   6.346  19.120  0.00  0.00    +0.000 N 
ATOM      7  C   UNL     1       3.164   7.300  18.082  0.00  0.00    +0.000 C 
ATOM      8  O   UNL     1       3.869   7.200  17.085  0.00  0.00    +0.000 OA
ENDROOT
BRANCH   7   9
ATOM      9  C   UNL     1       2.244   8.468  18.147  0.00  0.00    +0.000 A 
ATOM     10  C   UNL     1       0.857   8.434  17.835  0.00  0.00    +0.000 A 
ATOM     11  C   UNL     1       0.393   9.720  18.006  0.00  0.00    +0.000 A 
ATOM     12  C   UNL     1      -0.966  10.285  17.838  0.00  0.00    +0.000 C 
ATOM     13  N   UNL     1       1.491  10.453  18.367  0.00  0.00    +0.000 N 
ATOM     14  C   UNL     1       1.577  11.863  18.662  0.00  0.00    +0.000 C 
ATOM     15  N   UNL     1       2.626   9.733  18.409  0.00  0.00    +0.000 NA
ENDBRANCH   7   9
BRANCH   1  20
ATOM     16  C   UNL     1       6.094   3.861  14.838  0.00  0.00    +0.000 C 
ATOM     17  C   UNL     1       6.124   4.501  16.177  0.00  0.00    +0.000 A 
ATOM     18  C   UNL     1       7.188   5.168  16.752  0.00  0.00    +0.000 A 
ATOM     19  S   UNL     1       6.754   5.753  18.302  0.00  0.00    +0.000 S 
ATOM     20  C   UNL     1       5.165   5.110  18.087  0.00  0.00    +0.000 A 
ATOM     21  N   UNL     1       4.986   4.441  16.962  0.00  0.00    +0.000 NA
ENDBRANCH   1  20
TORSDOF 2
ENDMDL
MODEL 8
REMARK VINA RESULT:      -6.4      3.145      6.861
REMARK  Name = 
REMARK  5 active torsions:
REMARK  status: ('A' for Active; 'I' for Inactive)
REMARK    1  A    between atoms: C_1  and  C_2
REMARK    2  A    between atoms: C_5  and  C_6
REMARK    3  A    between atoms: C_12  and  C_14
REMARK    4  A    between atoms: C_16  and  C_17
REMARK    5  A    between atoms: N_18  and  C_19
REMARK                            x       y       z     vdW  Elec       q    Type
REMARK                         _______ _______ _______ _____ _____    ______ ____
ROOT
ATOM      1  C   UNL     1       5.685   4.073  18.855  0.00  0.00    +0.000 C 
ATOM      2  C   UNL     1       5.956   5.317  19.732  0.00  0.00    +0.000 C 
ATOM      3  C   UNL     1       7.416   5.751  19.680  0.00  0.00    +0.000 C 
ATOM      4  C   UNL     1       7.865   5.942  18.243  0.00  0.00    +0.000 C 
ATOM      5  C   UNL     1       7.586   4.699  17.408  0.00  0.00    +0.000 C 
ATOM      6  N   UNL     1       6.171   4.307  17.468  0.00  0.00    +0.000 N 
ATOM      7  C   UNL     1       5.360   4.119  16.330  0.00  0.00    +0.000 C 
ATOM      8  O   UNL     1       4.155   3.902  16.396  0.00  0.00    +0.000 OA
ENDROOT
BRANCH   7   9
ATOM      9  C   UNL     1       5.956   4.234  14.972  0.00  0.00    +0.000 A 
ATOM     10  C   UNL     1       5.679   3.361  13.883  0.00  0.00    +0.000 A 
ATOM     11  C   UNL     1       6.446   3.807  12.829  0.00  0.00    +0.000 A 
ATOM     12  C   UNL     1       6.566   3.301  11.441  0.00  0.00    +0.000 C 
ATOM     13  N   UNL     1       7.153   4.869  13.324  0.00  0.00    +0.000 N 
ATOM     14  C   UNL     1       8.116   5.705  12.648  0.00  0.00    +0.000 C 
ATOM     15  N   UNL     1       6.914   5.113  14.624  0.00  0.00    +0.000 NA
ENDBRANCH   7   9
BRANCH   1  20
ATOM     16  C   UNL     1       0.874   4.420  20.052  0.00  0.00    +0.000 C 
ATOM     17  C   UNL     1       2.090   3.706  19.590  0.00  0.00    +0.000 A 
ATOM     18  C   UNL     1       2.179   2.382  19.207  0.00  0.00    +0.000 A 
ATOM     19  S   UNL     1       3.781   2.005  18.736  0.00  0.00    +0.000 S 
ATOM     20  C   UNL     1       4.242   3.643  19.037  0.00  0.00    +0.000 A 
ATOM     21  N   UNL     1       3.282   4.407  19.525  0.00  0.00    +0.000 NA
ENDBRANCH   1  20
TORSDOF 2
ENDMDL
MODEL 9
REMARK VINA RESULT:      -6.3      3.197      6.857
REMARK  Name = 
REMARK  5 active torsions:
REMARK  status: ('A' for Active; 'I' for Inactive)
REMARK    1  A    between atoms: C_1  and  C_2
REMARK    2  A    between atoms: C_5  and  C_6
REMARK    3  A    between atoms: C_12  and  C_14
REMARK    4  A    between atoms: C_16  and  C_17
REMARK    5  A    between atoms: N_18  and  C_19
REMARK                            x       y       z     vdW  Elec       q    Type
REMARK                         _______ _______ _______ _____ _____    ______ ____
ROOT
ATOM      1  C   UNL     1       5.652   4.039  18.889  0.00  0.00    +0.000 C 
ATOM      2  C   UNL     1       5.917   5.315  19.720  0.00  0.00    +0.000 C 
ATOM      3  C   UNL     1       7.370   5.768  19.631  0.00  0.00    +0.000 C 
ATOM      4  C   UNL     1       7.794   5.918  18.182  0.00  0.00    +0.000 C 
ATOM      5  C   UNL     1       7.521   4.644  17.392  0.00  0.00    +0.000 C 
ATOM      6  N   UNL     1       6.113   4.234  17.487  0.00  0.00    +0.000 N 
ATOM      7  C   UNL     1       5.288   3.997  16.369  0.00  0.00    +0.000 C 
ATOM      8  O   UNL     1       4.088   3.765  16.461  0.00  0.00    +0.000 OA
ENDROOT
BRANCH   7   9
ATOM      9  C   UNL     1       5.861   4.075  14.998  0.00  0.00    +0.000 A 
ATOM     10  C   UNL     1       6.754   5.084  14.543  0.00  0.00    +0.000 A 
ATOM     11  C   UNL     1       7.019   4.794  13.222  0.00  0.00    +0.000 A 
ATOM     12  C   UNL     1       7.886   5.485  12.239  0.00  0.00    +0.000 C 
ATOM     13  N   UNL     1       6.272   3.683  12.942  0.00  0.00    +0.000 N 
ATOM     14  C   UNL     1       6.166   2.959  11.698  0.00  0.00    +0.000 C 
ATOM     15  N   UNL     1       5.527   3.262  13.979  0.00  0.00    +0.000 NA
ENDBRANCH   7   9
BRANCH   1  20
ATOM     16  C   UNL     1       0.853   4.359  20.140  0.00  0.00    +0.000 C 
ATOM     17  C   UNL     1       2.073   3.646  19.688  0.00  0.00    +0.000 A 
ATOM     18  C   UNL     1       2.177   2.310  19.355  0.00  0.00    +0.000 A 
ATOM     19  S   UNL     1       3.779   1.940  18.876  0.00  0.00    +0.000 S 
ATOM     20  C   UNL     1       4.218   3.594  19.108  0.00  0.00    +0.000 A 
ATOM     21  N   UNL     1       3.253   4.363  19.579  0.00  0.00    +0.000 NA
ENDBRANCH   1  20
TORSDOF 2
ENDMDL
