MODEL 1
REMARK VINA RESULT:      -7.1      0.000      0.000
REMARK  Name = 
REMARK  5 active torsions:
REMARK  status: ('A' for Active; 'I' for Inactive)
REMARK    1  A    between atoms: C_1  and  N_2
REMARK    2  A    between atoms: C_4  and  C_5
REMARK    3  A    between atoms: C_7  and  C_9
REMARK    4  A    between atoms: C_19  and  C_20
REMARK    5  A    between atoms: C_19  and  C_21
REMARK                            x       y       z     vdW  Elec       q    Type
REMARK                         _______ _______ _______ _____ _____    ______ ____
ROOT
ATOM      1  C   UNL     1      -0.279  11.066  19.600  0.00  0.00    +0.000 C 
ATOM      2  N   UNL     1       0.662   9.991  19.223  0.00  0.00    +0.000 N 
ATOM      3  C   UNL     1       0.956   8.852  19.948  0.00  0.00    +0.000 C 
ATOM      4  O   UNL     1       0.430   8.596  21.025  0.00  0.00    +0.000 OA
ATOM      5  C   UNL     1       1.622  10.888  18.584  0.00  0.00    +0.000 C 
ATOM      6  C   UNL     1       0.899  12.048  19.291  0.00  0.00    +0.000 C 
ATOM      7  C   UNL     1       0.713  13.274  18.398  0.00  0.00    +0.000 C 
ATOM      8  C   UNL     1       1.599  12.485  20.596  0.00  0.00    +0.000 C 
ENDROOT
BRANCH   3   9
ATOM      9  C   UNL     1       1.952   7.984  19.345  0.00  0.00    +0.000 A 
ATOM     10  C   UNL     1       2.530   8.028  18.083  0.00  0.00    +0.000 A 
ATOM     11  C   UNL     1       3.507   7.002  17.997  0.00  0.00    +0.000 A 
ATOM     12  C   UNL     1       4.414   6.600  17.010  0.00  0.00    +0.000 A 
ATOM     13  N   UNL     1       5.285   5.589  17.246  0.00  0.00    +0.000 NA
ATOM     14  C   UNL     1       5.248   4.967  18.445  0.00  0.00    +0.000 A 
ATOM     15  C   UNL     1       4.364   5.267  19.473  0.00  0.00    +0.000 A 
ATOM     16  C   UNL     1       3.483   6.315  19.209  0.00  0.00    +0.000 A 
ATOM     17  N   UNL     1       2.480   6.873  19.971  0.00  0.00    +0.000 N 
ATOM     18  H   UNL     1       2.189   6.548  20.885  0.00  0.00    +0.000 HD
ENDBRANCH   3   9
BRANCH   1  22
ATOM     19  C   UNL     1      -3.145  10.208  15.597  0.00  0.00    +0.000 C 
ATOM     20  N   UNL     1      -2.723  10.586  16.924  0.00  0.00    +0.000 N 
ATOM     21  C   UNL     1      -1.573  10.208  17.556  0.00  0.00    +0.000 A 
ATOM     22  C   UNL     1      -1.491  10.995  18.683  0.00  0.00    +0.000 A 
ATOM     23  C   UNL     1      -2.683  11.740  18.691  0.00  0.00    +0.000 A 
ATOM     24  N   UNL     1      -3.452  11.472  17.630  0.00  0.00    +0.000 NA
ENDBRANCH   1  22
TORSDOF 2
ENDMDL
MODEL 2
REMARK VINA RESULT:      -7.0      0.596      1.080
REMARK  Name = 
REMARK  5 active torsions:
REMARK  status: ('A' for Active; 'I' for Inactive)
REMARK    1  A    between atoms: C_1  and  N_2
REMARK    2  A    between atoms: C_4  and  C_5
REMARK    3  A    between atoms: C_7  and  C_9
REMARK    4  A    between atoms: C_19  and  C_20
REMARK    5  A    between atoms: C_19  and  C_21
REMARK                            x       y       z     vdW  Elec       q    Type
REMARK                         _______ _______ _______ _____ _____    ______ ____
ROOT
ATOM      1  C   UNL     1      -0.313  11.139  19.715  0.00  0.00    +0.000 C 
ATOM      2  N   UNL     1       0.606  10.051  19.321  0.00  0.00    +0.000 N 
ATOM      3  C   UNL     1       0.928   8.927  20.057  0.00  0.00    +0.000 C 
ATOM      4  O   UNL     1       0.449   8.697  21.162  0.00  0.00    +0.000 OA
ATOM      5  C   UNL     1       1.539  10.928  18.620  0.00  0.00    +0.000 C 
ATOM      6  C   UNL     1       0.854  12.108  19.331  0.00  0.00    +0.000 C 
ATOM      7  C   UNL     1       0.633  13.314  18.420  0.00  0.00    +0.000 C 
ATOM      8  C   UNL     1       1.612  12.571  20.594  0.00  0.00    +0.000 C 
ENDROOT
BRANCH   3   9
ATOM      9  C   UNL     1       1.893   8.041  19.430  0.00  0.00    +0.000 A 
ATOM     10  C   UNL     1       2.454   8.085  18.162  0.00  0.00    +0.000 A 
ATOM     11  C   UNL     1       3.403   7.036  18.049  0.00  0.00    +0.000 A 
ATOM     12  C   UNL     1       4.286   6.622  17.045  0.00  0.00    +0.000 A 
ATOM     13  N   UNL     1       5.133   5.586  17.256  0.00  0.00    +0.000 NA
ATOM     14  C   UNL     1       5.095   4.950  18.449  0.00  0.00    +0.000 A 
ATOM     15  C   UNL     1       4.234   5.260  19.492  0.00  0.00    +0.000 A 
ATOM     16  C   UNL     1       3.377   6.334  19.253  0.00  0.00    +0.000 A 
ATOM     17  N   UNL     1       2.399   6.908  20.035  0.00  0.00    +0.000 N 
ATOM     18  H   UNL     1       2.112   6.580  20.949  0.00  0.00    +0.000 HD
ENDBRANCH   3   9
BRANCH   1  22
ATOM     19  C   UNL     1      -5.021  11.699  18.136  0.00  0.00    +0.000 C 
ATOM     20  N   UNL     1      -3.626  11.335  18.181  0.00  0.00    +0.000 N 
ATOM     21  C   UNL     1      -2.667  11.866  18.996  0.00  0.00    +0.000 A 
ATOM     22  C   UNL     1      -1.565  11.053  18.854  0.00  0.00    +0.000 A 
ATOM     23  C   UNL     1      -1.926  10.124  17.863  0.00  0.00    +0.000 A 
ATOM     24  N   UNL     1      -3.177  10.311  17.429  0.00  0.00    +0.000 NA
ENDBRANCH   1  22
TORSDOF 2
ENDMDL
MODEL 3
REMARK VINA RESULT:      -6.8      3.948      6.918
REMARK  Name = 
REMARK  5 active torsions:
REMARK  status: ('A' for Active; 'I' for Inactive)
REMARK    1  A    between atoms: C_1  and  N_2
REMARK    2  A    between atoms: C_4  and  C_5
REMARK    3  A    between atoms: C_7  and  C_9
REMARK    4  A    between atoms: C_19  and  C_20
REMARK    5  A    between atoms: C_19  and  C_21
REMARK                            x       y       z     vdW  Elec       q    Type
REMARK                         _______ _______ _______ _____ _____    ______ ____
ROOT
ATOM      1  C   UNL     1      -6.516  12.226  17.867  0.00  0.00    +0.000 C 
ATOM      2  N   UNL     1      -5.066  12.032  18.069  0.00  0.00    +0.000 N 
ATOM      3  C   UNL     1      -4.171  11.465  17.181  0.00  0.00    +0.000 C 
ATOM      4  O   UNL     1      -4.503  11.058  16.074  0.00  0.00    +0.000 OA
ATOM      5  C   UNL     1      -5.180  11.740  19.495  0.00  0.00    +0.000 C 
ATOM      6  C   UNL     1      -6.686  11.534  19.260  0.00  0.00    +0.000 C 
ATOM      7  C   UNL     1      -7.555  12.142  20.360  0.00  0.00    +0.000 C 
ATOM      8  C   UNL     1      -7.070  10.049  19.086  0.00  0.00    +0.000 C 
ENDROOT
BRANCH   3   9
ATOM      9  C   UNL     1      -2.805  11.372  17.666  0.00  0.00    +0.000 A 
ATOM     10  C   UNL     1      -2.015  10.256  17.901  0.00  0.00    +0.000 A 
ATOM     11  C   UNL     1      -0.724  10.691  18.300  0.00  0.00    +0.000 A 
ATOM     12  C   UNL     1       0.471  10.036  18.622  0.00  0.00    +0.000 A 
ATOM     13  N   UNL     1       1.585  10.745  18.922  0.00  0.00    +0.000 NA
ATOM     14  C   UNL     1       1.516  12.094  18.923  0.00  0.00    +0.000 A 
ATOM     15  C   UNL     1       0.373  12.835  18.655  0.00  0.00    +0.000 A 
ATOM     16  C   UNL     1      -0.760  12.084  18.341  0.00  0.00    +0.000 A 
ATOM     17  N   UNL     1      -2.048  12.465  18.037  0.00  0.00    +0.000 N 
ATOM     18  H   UNL     1      -2.393  13.417  18.039  0.00  0.00    +0.000 HD
ENDBRANCH   3   9
BRANCH   1  22
ATOM     19  C   UNL     1      -7.350  16.681  15.761  0.00  0.00    +0.000 C 
ATOM     20  N   UNL     1      -7.175  15.644  16.749  0.00  0.00    +0.000 N 
ATOM     21  C   UNL     1      -7.262  14.297  16.546  0.00  0.00    +0.000 A 
ATOM     22  C   UNL     1      -6.790  13.714  17.700  0.00  0.00    +0.000 A 
ATOM     23  C   UNL     1      -6.538  14.788  18.570  0.00  0.00    +0.000 A 
ATOM     24  N   UNL     1      -6.799  15.970  18.001  0.00  0.00    +0.000 NA
ENDBRANCH   1  22
TORSDOF 2
ENDMDL
MODEL 4
REMARK VINA RESULT:      -6.7      2.320      3.985
REMARK  Name = 
REMARK  5 active torsions:
REMARK  status: ('A' for Active; 'I' for Inactive)
REMARK    1  A    between atoms: C_1  and  N_2
REMARK    2  A    between atoms: C_4  and  C_5
REMARK    3  A    between atoms: C_7  and  C_9
REMARK    4  A    between atoms: C_19  and  C_20
REMARK    5  A    between atoms: C_19  and  C_21
REMARK                            x       y       z     vdW  Elec       q    Type
REMARK                         _______ _______ _______ _____ _____    ______ ____
ROOT
ATOM      1  C   UNL     1      -2.245  12.081  18.588  0.00  0.00    +0.000 C 
ATOM      2  N   UNL     1      -1.205  11.045  18.756  0.00  0.00    +0.000 N 
ATOM      3  C   UNL     1       0.161  11.209  18.624  0.00  0.00    +0.000 C 
ATOM      4  O   UNL     1       0.677  12.288  18.353  0.00  0.00    +0.000 OA
ATOM      5  C   UNL     1      -2.011   9.969  18.188  0.00  0.00    +0.000 C 
ATOM      6  C   UNL     1      -2.945  11.059  17.632  0.00  0.00    +0.000 C 
ATOM      7  C   UNL     1      -4.426  10.710  17.771  0.00  0.00    +0.000 C 
ATOM      8  C   UNL     1      -2.652  11.407  16.157  0.00  0.00    +0.000 C 
ENDROOT
BRANCH   3   9
ATOM      9  C   UNL     1       0.943  10.000  18.812  0.00  0.00    +0.000 A 
ATOM     10  C   UNL     1       0.985   9.121  19.885  0.00  0.00    +0.000 A 
ATOM     11  C   UNL     1       1.854   8.048  19.558  0.00  0.00    +0.000 A 
ATOM     12  C   UNL     1       2.246   6.875  20.214  0.00  0.00    +0.000 A 
ATOM     13  N   UNL     1       3.073   5.990  19.607  0.00  0.00    +0.000 NA
ATOM     14  C   UNL     1       3.524   6.270  18.365  0.00  0.00    +0.000 A 
ATOM     15  C   UNL     1       3.224   7.420  17.646  0.00  0.00    +0.000 A 
ATOM     16  C   UNL     1       2.366   8.312  18.289  0.00  0.00    +0.000 A 
ATOM     17  N   UNL     1       1.867   9.535  17.898  0.00  0.00    +0.000 N 
ATOM     18  H   UNL     1       2.104  10.017  17.040  0.00  0.00    +0.000 HD
ENDBRANCH   3   9
BRANCH   1  22
ATOM     19  C   UNL     1      -2.969  12.180  23.533  0.00  0.00    +0.000 C 
ATOM     20  N   UNL     1      -3.115  12.442  22.121  0.00  0.00    +0.000 N 
ATOM     21  C   UNL     1      -2.177  12.240  21.150  0.00  0.00    +0.000 A 
ATOM     22  C   UNL     1      -2.839  12.400  19.953  0.00  0.00    +0.000 A 
ATOM     23  C   UNL     1      -4.141  12.792  20.310  0.00  0.00    +0.000 A 
ATOM     24  N   UNL     1      -4.305  12.846  21.636  0.00  0.00    +0.000 NA
ENDBRANCH   1  22
TORSDOF 2
ENDMDL
MODEL 5
REMARK VINA RESULT:      -6.6      3.296      7.673
REMARK  Name = 
REMARK  5 active torsions:
REMARK  status: ('A' for Active; 'I' for Inactive)
REMARK    1  A    between atoms: C_1  and  N_2
REMARK    2  A    between atoms: C_4  and  C_5
REMARK    3  A    between atoms: C_7  and  C_9
REMARK    4  A    between atoms: C_19  and  C_20
REMARK    5  A    between atoms: C_19  and  C_21
REMARK                            x       y       z     vdW  Elec       q    Type
REMARK                         _______ _______ _______ _____ _____    ______ ____
ROOT
ATOM      1  C   UNL     1      -1.069  11.013  19.527  0.00  0.00    +0.000 C 
ATOM      2  N   UNL     1      -0.582  12.358  19.160  0.00  0.00    +0.000 N 
ATOM      3  C   UNL     1      -0.490  13.463  19.985  0.00  0.00    +0.000 C 
ATOM      4  O   UNL     1      -0.806  13.436  21.169  0.00  0.00    +0.000 OA
ATOM      5  C   UNL     1      -1.136  12.324  17.809  0.00  0.00    +0.000 C 
ATOM      6  C   UNL     1      -1.989  11.128  18.266  0.00  0.00    +0.000 C 
ATOM      7  C   UNL     1      -2.070  10.014  17.224  0.00  0.00    +0.000 C 
ATOM      8  C   UNL     1      -3.421  11.533  18.675  0.00  0.00    +0.000 C 
ENDROOT
BRANCH   3   9
ATOM      9  C   UNL     1      -0.005  14.670  19.338  0.00  0.00    +0.000 A 
ATOM     10  C   UNL     1       1.291  15.068  19.047  0.00  0.00    +0.000 A 
ATOM     11  C   UNL     1       1.239  16.299  18.340  0.00  0.00    +0.000 A 
ATOM     12  C   UNL     1       2.204  17.136  17.766  0.00  0.00    +0.000 A 
ATOM     13  N   UNL     1       1.834  18.250  17.090  0.00  0.00    +0.000 NA
ATOM     14  C   UNL     1       0.518  18.545  16.997  0.00  0.00    +0.000 A 
ATOM     15  C   UNL     1      -0.510  17.801  17.561  0.00  0.00    +0.000 A 
ATOM     16  C   UNL     1      -0.105  16.656  18.245  0.00  0.00    +0.000 A 
ATOM     17  N   UNL     1      -0.826  15.701  18.927  0.00  0.00    +0.000 N 
ATOM     18  H   UNL     1      -1.827  15.720  19.076  0.00  0.00    +0.000 HD
ENDBRANCH   3   9
BRANCH   1  22
ATOM     19  C   UNL     1       2.588   7.981  17.974  0.00  0.00    +0.000 C 
ATOM     20  N   UNL     1       1.719   8.752  18.829  0.00  0.00    +0.000 N 
ATOM     21  C   UNL     1       0.926   9.800  18.458  0.00  0.00    +0.000 A 
ATOM     22  C   UNL     1       0.113  10.054  19.540  0.00  0.00    +0.000 A 
ATOM     23  C   UNL     1       0.561   9.176  20.542  0.00  0.00    +0.000 A 
ATOM     24  N   UNL     1       1.562   8.396  20.118  0.00  0.00    +0.000 NA
ENDBRANCH   1  22
TORSDOF 2
ENDMDL
MODEL 6
REMARK VINA RESULT:      -6.6      0.674      1.220
REMARK  Name = 
REMARK  5 active torsions:
REMARK  status: ('A' for Active; 'I' for Inactive)
REMARK    1  A    between atoms: C_1  and  N_2
REMARK    2  A    between atoms: C_4  and  C_5
REMARK    3  A    between atoms: C_7  and  C_9
REMARK    4  A    between atoms: C_19  and  C_20
REMARK    5  A    between atoms: C_19  and  C_21
REMARK                            x       y       z     vdW  Elec       q    Type
REMARK                         _______ _______ _______ _____ _____    ______ ____
ROOT
ATOM      1  C   UNL     1      -0.420  10.976  19.584  0.00  0.00    +0.000 C 
ATOM      2  N   UNL     1       0.543   9.889  19.309  0.00  0.00    +0.000 N 
ATOM      3  C   UNL     1       0.785   8.776  20.090  0.00  0.00    +0.000 C 
ATOM      4  O   UNL     1       0.186   8.556  21.137  0.00  0.00    +0.000 OA
ATOM      5  C   UNL     1       1.545  10.764  18.706  0.00  0.00    +0.000 C 
ATOM      6  C   UNL     1       0.778  11.947  19.322  0.00  0.00    +0.000 C 
ATOM      7  C   UNL     1       0.655  13.141  18.377  0.00  0.00    +0.000 C 
ATOM      8  C   UNL     1       1.388  12.430  20.656  0.00  0.00    +0.000 C 
ENDROOT
BRANCH   3   9
ATOM      9  C   UNL     1       1.819   7.888  19.587  0.00  0.00    +0.000 A 
ATOM     10  C   UNL     1       2.313   6.704  20.113  0.00  0.00    +0.000 A 
ATOM     11  C   UNL     1       3.268   6.170  19.208  0.00  0.00    +0.000 A 
ATOM     12  C   UNL     1       4.046   5.007  19.185  0.00  0.00    +0.000 A 
ATOM     13  N   UNL     1       4.851   4.738  18.128  0.00  0.00    +0.000 NA
ATOM     14  C   UNL     1       4.900   5.623  17.108  0.00  0.00    +0.000 A 
ATOM     15  C   UNL     1       4.198   6.819  17.054  0.00  0.00    +0.000 A 
ATOM     16  C   UNL     1       3.371   7.070  18.149  0.00  0.00    +0.000 A 
ATOM     17  N   UNL     1       2.550   8.137  18.443  0.00  0.00    +0.000 N 
ATOM     18  H   UNL     1       2.455   8.974  17.882  0.00  0.00    +0.000 HD
ENDBRANCH   3   9
BRANCH   1  22
ATOM     19  C   UNL     1      -2.985  10.082  15.389  0.00  0.00    +0.000 C 
ATOM     20  N   UNL     1      -2.666  10.449  16.748  0.00  0.00    +0.000 N 
ATOM     21  C   UNL     1      -1.543  10.108  17.445  0.00  0.00    +0.000 A 
ATOM     22  C   UNL     1      -1.567  10.872  18.589  0.00  0.00    +0.000 A 
ATOM     23  C   UNL     1      -2.789  11.565  18.535  0.00  0.00    +0.000 A 
ATOM     24  N   UNL     1      -3.477  11.287  17.422  0.00  0.00    +0.000 NA
ENDBRANCH   1  22
TORSDOF 2
ENDMDL
MODEL 7
REMARK VINA RESULT:      -6.5      2.258      4.214
REMARK  Name = 
REMARK  5 active torsions:
REMARK  status: ('A' for Active; 'I' for Inactive)
REMARK    1  A    between atoms: C_1  and  N_2
REMARK    2  A    between atoms: C_4  and  C_5
REMARK    3  A    between atoms: C_7  and  C_9
REMARK    4  A    between atoms: C_19  and  C_20
REMARK    5  A    between atoms: C_19  and  C_21
REMARK                            x       y       z     vdW  Elec       q    Type
REMARK                         _______ _______ _______ _____ _____    ______ ____
ROOT
ATOM      1  C   UNL     1       0.709  11.339  18.688  0.00  0.00    +0.000 C 
ATOM      2  N   UNL     1       1.136   9.965  19.024  0.00  0.00    +0.000 N 
ATOM      3  C   UNL     1       1.892   9.114  18.241  0.00  0.00    +0.000 C 
ATOM      4  O   UNL     1       2.320   9.432  17.137  0.00  0.00    +0.000 OA
ATOM      5  C   UNL     1      -0.091   9.628  19.741  0.00  0.00    +0.000 C 
ATOM      6  C   UNL     1      -0.728  10.867  19.086  0.00  0.00    +0.000 C 
ATOM      7  C   UNL     1      -1.603  11.671  20.046  0.00  0.00    +0.000 C 
ATOM      8  C   UNL     1      -1.554  10.523  17.828  0.00  0.00    +0.000 C 
ENDROOT
BRANCH   3   9
ATOM      9  C   UNL     1       2.129   7.802  18.817  0.00  0.00    +0.000 A 
ATOM     10  C   UNL     1       1.901   7.337  20.104  0.00  0.00    +0.000 A 
ATOM     11  C   UNL     1       2.229   5.956  20.152  0.00  0.00    +0.000 A 
ATOM     12  C   UNL     1       2.166   4.972  21.145  0.00  0.00    +0.000 A 
ATOM     13  N   UNL     1       2.508   3.691  20.868  0.00  0.00    +0.000 NA
ATOM     14  C   UNL     1       2.928   3.387  19.619  0.00  0.00    +0.000 A 
ATOM     15  C   UNL     1       3.061   4.296  18.578  0.00  0.00    +0.000 A 
ATOM     16  C   UNL     1       2.695   5.606  18.886  0.00  0.00    +0.000 A 
ATOM     17  N   UNL     1       2.704   6.755  18.125  0.00  0.00    +0.000 N 
ATOM     18  H   UNL     1       3.043   6.825  17.174  0.00  0.00    +0.000 HD
ENDBRANCH   3   9
BRANCH   1  22
ATOM     19  C   UNL     1       4.093  14.685  20.215  0.00  0.00    +0.000 C 
ATOM     20  N   UNL     1       2.957  13.795  20.198  0.00  0.00    +0.000 N 
ATOM     21  C   UNL     1       2.335  13.283  19.096  0.00  0.00    +0.000 A 
ATOM     22  C   UNL     1       1.477  12.316  19.568  0.00  0.00    +0.000 A 
ATOM     23  C   UNL     1       1.583  12.390  20.968  0.00  0.00    +0.000 A 
ATOM     24  N   UNL     1       2.468  13.314  21.357  0.00  0.00    +0.000 NA
ENDBRANCH   1  22
TORSDOF 2
ENDMDL
MODEL 8
REMARK VINA RESULT:      -6.5      0.900      1.592
REMARK  Name = 
REMARK  5 active torsions:
REMARK  status: ('A' for Active; 'I' for Inactive)
REMARK    1  A    between atoms: C_1  and  N_2
REMARK    2  A    between atoms: C_4  and  C_5
REMARK    3  A    between atoms: C_7  and  C_9
REMARK    4  A    between atoms: C_19  and  C_20
REMARK    5  A    between atoms: C_19  and  C_21
REMARK                            x       y       z     vdW  Elec       q    Type
REMARK                         _______ _______ _______ _____ _____    ______ ____
ROOT
ATOM      1  C   UNL     1      -0.557  11.064  19.622  0.00  0.00    +0.000 C 
ATOM      2  N   UNL     1       0.411   9.978  19.364  0.00  0.00    +0.000 N 
ATOM      3  C   UNL     1       0.657   8.876  20.160  0.00  0.00    +0.000 C 
ATOM      4  O   UNL     1       0.056   8.668  21.209  0.00  0.00    +0.000 OA
ATOM      5  C   UNL     1       1.411  10.849  18.751  0.00  0.00    +0.000 C 
ATOM      6  C   UNL     1       0.637  12.037  19.349  0.00  0.00    +0.000 C 
ATOM      7  C   UNL     1       0.511  13.218  18.388  0.00  0.00    +0.000 C 
ATOM      8  C   UNL     1       1.242  12.540  20.678  0.00  0.00    +0.000 C 
ENDROOT
BRANCH   3   9
ATOM      9  C   UNL     1       1.695   7.987  19.671  0.00  0.00    +0.000 A 
ATOM     10  C   UNL     1       2.236   6.844  20.243  0.00  0.00    +0.000 A 
ATOM     11  C   UNL     1       3.175   6.284  19.337  0.00  0.00    +0.000 A 
ATOM     12  C   UNL     1       3.981   5.140  19.350  0.00  0.00    +0.000 A 
ATOM     13  N   UNL     1       4.757   4.832  18.283  0.00  0.00    +0.000 NA
ATOM     14  C   UNL     1       4.751   5.661  17.216  0.00  0.00    +0.000 A 
ATOM     15  C   UNL     1       4.017   6.836  17.121  0.00  0.00    +0.000 A 
ATOM     16  C   UNL     1       3.220   7.127  18.228  0.00  0.00    +0.000 A 
ATOM     17  N   UNL     1       2.383   8.189  18.491  0.00  0.00    +0.000 N 
ATOM     18  H   UNL     1       2.249   8.992  17.889  0.00  0.00    +0.000 HD
ENDBRANCH   3   9
BRANCH   1  22
ATOM     19  C   UNL     1      -5.067  11.504  17.513  0.00  0.00    +0.000 C 
ATOM     20  N   UNL     1      -3.678  11.171  17.721  0.00  0.00    +0.000 N 
ATOM     21  C   UNL     1      -2.829  11.731  18.632  0.00  0.00    +0.000 A 
ATOM     22  C   UNL     1      -1.701  10.942  18.626  0.00  0.00    +0.000 A 
ATOM     23  C   UNL     1      -1.928   9.996  17.611  0.00  0.00    +0.000 A 
ATOM     24  N   UNL     1      -3.125  10.151  17.036  0.00  0.00    +0.000 NA
ENDBRANCH   1  22
TORSDOF 2
ENDMDL
MODEL 9
REMARK VINA RESULT:      -6.4      2.475      3.836
REMARK  Name = 
REMARK  5 active torsions:
REMARK  status: ('A' for Active; 'I' for Inactive)
REMARK    1  A    between atoms: C_1  and  N_2
REMARK    2  A    between atoms: C_4  and  C_5
REMARK    3  A    between atoms: C_7  and  C_9
REMARK    4  A    between atoms: C_19  and  C_20
REMARK    5  A    between atoms: C_19  and  C_21
REMARK                            x       y       z     vdW  Elec       q    Type
REMARK                         _______ _______ _______ _____ _____    ______ ____
ROOT
ATOM      1  C   UNL     1      -0.770  12.190  19.369  0.00  0.00    +0.000 C 
ATOM      2  N   UNL     1      -0.065  10.896  19.275  0.00  0.00    +0.000 N 
ATOM      3  C   UNL     1       1.238  10.686  18.868  0.00  0.00    +0.000 C 
ATOM      4  O   UNL     1       1.986  11.600  18.539  0.00  0.00    +0.000 OA
ATOM      5  C   UNL     1      -1.243  10.147  18.844  0.00  0.00    +0.000 C 
ATOM      6  C   UNL     1      -1.905  11.502  18.540  0.00  0.00    +0.000 C 
ATOM      7  C   UNL     1      -3.369  11.566  18.970  0.00  0.00    +0.000 C 
ATOM      8  C   UNL     1      -1.806  11.898  17.051  0.00  0.00    +0.000 C 
ENDROOT
BRANCH   3   9
ATOM      9  C   UNL     1       1.654   9.295  18.841  0.00  0.00    +0.000 A 
ATOM     10  C   UNL     1       2.192   8.543  17.806  0.00  0.00    +0.000 A 
ATOM     11  C   UNL     1       2.503   7.249  18.300  0.00  0.00    +0.000 A 
ATOM     12  C   UNL     1       3.089   6.106  17.743  0.00  0.00    +0.000 A 
ATOM     13  N   UNL     1       3.310   5.006  18.502  0.00  0.00    +0.000 NA
ATOM     14  C   UNL     1       2.939   5.029  19.801  0.00  0.00    +0.000 A 
ATOM     15  C   UNL     1       2.319   6.096  20.436  0.00  0.00    +0.000 A 
ATOM     16  C   UNL     1       2.108   7.219  19.637  0.00  0.00    +0.000 A 
ATOM     17  N   UNL     1       1.524   8.436  19.913  0.00  0.00    +0.000 N 
ATOM     18  H   UNL     1       1.093   8.691  20.793  0.00  0.00    +0.000 HD
ENDBRANCH   3   9
BRANCH   1  22
ATOM     19  C   UNL     1      -1.200  14.784  23.619  0.00  0.00    +0.000 C 
ATOM     20  N   UNL     1      -1.183  13.691  22.677  0.00  0.00    +0.000 N 
ATOM     21  C   UNL     1      -1.281  13.780  21.318  0.00  0.00    +0.000 A 
ATOM     22  C   UNL     1      -0.978  12.526  20.839  0.00  0.00    +0.000 A 
ATOM     23  C   UNL     1      -0.809  11.732  21.986  0.00  0.00    +0.000 A 
ATOM     24  N   UNL     1      -0.961  12.436  23.113  0.00  0.00    +0.000 NA
ENDBRANCH   1  22
TORSDOF 2
ENDMDL
