MODEL 1
REMARK VINA RESULT:      -6.8      0.000      0.000
REMARK  Name = 
REMARK  12 active torsions:
REMARK  status: ('A' for Active; 'I' for Inactive)
REMARK    1  A    between atoms: C_1  and  O_2
REMARK    2  A    between atoms: O_2  and  C_3
REMARK    3  A    between atoms: C_5  and  C_6
REMARK    4  A    between atoms: C_6  and  N_7
REMARK    5  A    between atoms: N_7  and  C_8
REMARK    6  A    between atoms: C_8  and  C_9
REMARK    7  A    between atoms: C_9  and  C_10
REMARK    8  A    between atoms: C_10  and  C_11
REMARK    9  A    between atoms: C_10  and  C_12
REMARK   10  A    between atoms: C_15  and  O_16
REMARK   11  A    between atoms: O_16  and  C_17
REMARK   12  A    between atoms: C_17  and  C_18
REMARK                            x       y       z     vdW  Elec       q    Type
REMARK                         _______ _______ _______ _____ _____    ______ ____
ROOT
ATOM      1  C   UNL     1       3.949   4.020  18.170  0.00  0.00    +0.000 A 
ATOM      2  C   UNL     1       5.100   4.238  17.389  0.00  0.00    +0.000 A 
ATOM      3  C   UNL     1       5.543   5.531  17.099  0.00  0.00    +0.000 A 
ATOM      4  C   UNL     1       4.742   6.613  17.475  0.00  0.00    +0.000 A 
ATOM      5  C   UNL     1       3.542   6.400  18.156  0.00  0.00    +0.000 A 
ATOM      6  C   UNL     1       3.127   5.106  18.507  0.00  0.00    +0.000 A 
ENDROOT
BRANCH   1   8
ATOM      7  C   UNL     1       4.472   2.280  19.690  0.00  0.00    +0.000 C 
ATOM      8  O   UNL     1       3.642   2.765  18.628  0.00  0.00    +0.000 OA
ENDBRANCH   1   8
BRANCH   3   9
ATOM      9  C   UNL     1       6.900   5.743  16.470  0.00  0.00    +0.000 C 
BRANCH   9  10
ATOM     10  N   UNL     1       7.252   4.596  15.631  0.00  0.00    +0.000 NA
ATOM     11  H   UNL     1       6.759   3.770  15.968  0.00  0.00    +0.000 HD
BRANCH  10  12
ATOM     12  C   UNL     1       6.921   4.838  14.228  0.00  0.00    +0.000 C 
BRANCH  12  13
ATOM     13  C   UNL     1       5.748   3.944  13.807  0.00  0.00    +0.000 C 
BRANCH  13  14
ATOM     14  C   UNL     1       5.959   3.266  12.439  0.00  0.00    +0.000 C 
ATOM     15  C   UNL     1       4.685   3.244  11.591  0.00  0.00    +0.000 C 
ATOM     16  C   UNL     1       7.073   3.979  11.665  0.00  0.00    +0.000 C 
ENDBRANCH  13  14
ENDBRANCH  12  13
ENDBRANCH  10  12
ENDBRANCH   9  10
ENDBRANCH   3   9
BRANCH   6  17
ATOM     17  O   UNL     1       1.955   5.096  19.216  0.00  0.00    +0.000 OA
BRANCH  17  18
ATOM     18  C   UNL     1       2.044   4.983  20.632  0.00  0.00    +0.000 C 
BRANCH  18  19
ATOM     19  C   UNL     1       1.533   3.628  21.142  0.00  0.00    +0.000 C 
ATOM     20  N   UNL     1       0.674   2.943  20.332  0.00  0.00    +0.000 N 
ATOM     21  O   UNL     1       1.866   3.157  22.230  0.00  0.00    +0.000 OA
ATOM     22  H   UNL     1       0.351   3.343  19.459  0.00  0.00    +0.000 HD
ATOM     23  H   UNL     1       0.312   2.055  20.646  0.00  0.00    +0.000 HD
ENDBRANCH  18  19
ENDBRANCH  17  18
ENDBRANCH   6  17
TORSDOF 9
ENDMDL
MODEL 2
REMARK VINA RESULT:      -6.8      0.897      1.028
REMARK  Name = 
REMARK  12 active torsions:
REMARK  status: ('A' for Active; 'I' for Inactive)
REMARK    1  A    between atoms: C_1  and  O_2
REMARK    2  A    between atoms: O_2  and  C_3
REMARK    3  A    between atoms: C_5  and  C_6
REMARK    4  A    between atoms: C_6  and  N_7
REMARK    5  A    between atoms: N_7  and  C_8
REMARK    6  A    between atoms: C_8  and  C_9
REMARK    7  A    between atoms: C_9  and  C_10
REMARK    8  A    between atoms: C_10  and  C_11
REMARK    9  A    between atoms: C_10  and  C_12
REMARK   10  A    between atoms: C_15  and  O_16
REMARK   11  A    between atoms: O_16  and  C_17
REMARK   12  A    between atoms: C_17  and  C_18
REMARK                            x       y       z     vdW  Elec       q    Type
REMARK                         _______ _______ _______ _____ _____    ______ ____
ROOT
ATOM      1  C   UNL     1       3.477   3.720  17.742  0.00  0.00    +0.000 A 
ATOM      2  C   UNL     1       4.613   3.651  16.913  0.00  0.00    +0.000 A 
ATOM      3  C   UNL     1       5.463   4.749  16.757  0.00  0.00    +0.000 A 
ATOM      4  C   UNL     1       5.087   5.971  17.324  0.00  0.00    +0.000 A 
ATOM      5  C   UNL     1       3.905   6.076  18.057  0.00  0.00    +0.000 A 
ATOM      6  C   UNL     1       3.084   4.959  18.272  0.00  0.00    +0.000 A 
ENDROOT
BRANCH   1   8
ATOM      7  C   UNL     1       3.559   1.489  18.535  0.00  0.00    +0.000 C 
ATOM      8  O   UNL     1       2.773   2.588  18.060  0.00  0.00    +0.000 OA
ENDBRANCH   1   8
BRANCH   3   9
ATOM      9  C   UNL     1       6.794   4.584  16.063  0.00  0.00    +0.000 C 
BRANCH   9  10
ATOM     10  N   UNL     1       6.699   5.040  14.675  0.00  0.00    +0.000 NA
ATOM     11  H   UNL     1       7.607   4.932  14.224  0.00  0.00    +0.000 HD
BRANCH  10  12
ATOM     12  C   UNL     1       5.681   4.298  13.936  0.00  0.00    +0.000 C 
BRANCH  12  13
ATOM     13  C   UNL     1       6.293   3.696  12.666  0.00  0.00    +0.000 C 
BRANCH  13  14
ATOM     14  C   UNL     1       5.415   2.603  12.024  0.00  0.00    +0.000 C 
ATOM     15  C   UNL     1       4.262   3.183  11.203  0.00  0.00    +0.000 C 
ATOM     16  C   UNL     1       6.272   1.697  11.133  0.00  0.00    +0.000 C 
ENDBRANCH  13  14
ENDBRANCH  12  13
ENDBRANCH  10  12
ENDBRANCH   9  10
ENDBRANCH   3   9
BRANCH   6  17
ATOM     17  O   UNL     1       1.996   5.239  19.057  0.00  0.00    +0.000 OA
BRANCH  17  18
ATOM     18  C   UNL     1       2.171   5.176  20.468  0.00  0.00    +0.000 C 
BRANCH  18  19
ATOM     19  C   UNL     1       1.698   3.839  21.055  0.00  0.00    +0.000 C 
ATOM     20  N   UNL     1       0.690   3.194  20.399  0.00  0.00    +0.000 N 
ATOM     21  O   UNL     1       2.188   3.347  22.072  0.00  0.00    +0.000 OA
ATOM     22  H   UNL     1       0.242   3.613  19.592  0.00  0.00    +0.000 HD
ATOM     23  H   UNL     1       0.350   2.319  20.768  0.00  0.00    +0.000 HD
ENDBRANCH  18  19
ENDBRANCH  17  18
ENDBRANCH   6  17
TORSDOF 9
ENDMDL
MODEL 3
REMARK VINA RESULT:      -6.7      1.162      1.363
REMARK  Name = 
REMARK  12 active torsions:
REMARK  status: ('A' for Active; 'I' for Inactive)
REMARK    1  A    between atoms: C_1  and  O_2
REMARK    2  A    between atoms: O_2  and  C_3
REMARK    3  A    between atoms: C_5  and  C_6
REMARK    4  A    between atoms: C_6  and  N_7
REMARK    5  A    between atoms: N_7  and  C_8
REMARK    6  A    between atoms: C_8  and  C_9
REMARK    7  A    between atoms: C_9  and  C_10
REMARK    8  A    between atoms: C_10  and  C_11
REMARK    9  A    between atoms: C_10  and  C_12
REMARK   10  A    between atoms: C_15  and  O_16
REMARK   11  A    between atoms: O_16  and  C_17
REMARK   12  A    between atoms: C_17  and  C_18
REMARK                            x       y       z     vdW  Elec       q    Type
REMARK                         _______ _______ _______ _____ _____    ______ ____
ROOT
ATOM      1  C   UNL     1       3.493   3.848  17.990  0.00  0.00    +0.000 A 
ATOM      2  C   UNL     1       3.898   4.399  16.759  0.00  0.00    +0.000 A 
ATOM      3  C   UNL     1       4.841   5.428  16.703  0.00  0.00    +0.000 A 
ATOM      4  C   UNL     1       5.272   6.006  17.901  0.00  0.00    +0.000 A 
ATOM      5  C   UNL     1       4.791   5.538  19.125  0.00  0.00    +0.000 A 
ATOM      6  C   UNL     1       3.895   4.460  19.187  0.00  0.00    +0.000 A 
ENDROOT
BRANCH   1   8
ATOM      7  C   UNL     1       3.466   1.496  18.273  0.00  0.00    +0.000 C 
ATOM      8  O   UNL     1       2.738   2.705  18.029  0.00  0.00    +0.000 OA
ENDBRANCH   1   8
BRANCH   3   9
ATOM      9  C   UNL     1       5.437   5.838  15.377  0.00  0.00    +0.000 C 
BRANCH   9  10
ATOM     10  N   UNL     1       6.723   5.167  15.175  0.00  0.00    +0.000 NA
ATOM     11  H   UNL     1       6.794   4.377  15.815  0.00  0.00    +0.000 HD
BRANCH  10  12
ATOM     12  C   UNL     1       6.876   4.709  13.795  0.00  0.00    +0.000 C 
BRANCH  12  13
ATOM     13  C   UNL     1       5.844   3.616  13.491  0.00  0.00    +0.000 C 
BRANCH  13  14
ATOM     14  C   UNL     1       5.724   3.291  11.989  0.00  0.00    +0.000 C 
ATOM     15  C   UNL     1       6.301   1.918  11.637  0.00  0.00    +0.000 C 
ATOM     16  C   UNL     1       4.256   3.355  11.553  0.00  0.00    +0.000 C 
ENDBRANCH  13  14
ENDBRANCH  12  13
ENDBRANCH  10  12
ENDBRANCH   9  10
ENDBRANCH   3   9
BRANCH   6  17
ATOM     17  O   UNL     1       3.575   4.105  20.471  0.00  0.00    +0.000 OA
BRANCH  17  18
ATOM     18  C   UNL     1       2.288   4.475  20.954  0.00  0.00    +0.000 C 
BRANCH  18  19
ATOM     19  C   UNL     1       1.363   3.263  21.135  0.00  0.00    +0.000 C 
ATOM     20  N   UNL     1       0.468   3.010  20.137  0.00  0.00    +0.000 N 
ATOM     21  O   UNL     1       1.406   2.535  22.128  0.00  0.00    +0.000 OA
ATOM     22  H   UNL     1       0.387   3.631  19.340  0.00  0.00    +0.000 HD
ATOM     23  H   UNL     1      -0.161   2.227  20.234  0.00  0.00    +0.000 HD
ENDBRANCH  18  19
ENDBRANCH  17  18
ENDBRANCH   6  17
TORSDOF 9
ENDMDL
MODEL 4
REMARK VINA RESULT:      -6.7      1.150      1.192
REMARK  Name = 
REMARK  12 active torsions:
REMARK  status: ('A' for Active; 'I' for Inactive)
REMARK    1  A    between atoms: C_1  and  O_2
REMARK    2  A    between atoms: O_2  and  C_3
REMARK    3  A    between atoms: C_5  and  C_6
REMARK    4  A    between atoms: C_6  and  N_7
REMARK    5  A    between atoms: N_7  and  C_8
REMARK    6  A    between atoms: C_8  and  C_9
REMARK    7  A    between atoms: C_9  and  C_10
REMARK    8  A    between atoms: C_10  and  C_11
REMARK    9  A    between atoms: C_10  and  C_12
REMARK   10  A    between atoms: C_15  and  O_16
REMARK   11  A    between atoms: O_16  and  C_17
REMARK   12  A    between atoms: C_17  and  C_18
REMARK                            x       y       z     vdW  Elec       q    Type
REMARK                         _______ _______ _______ _____ _____    ______ ____
ROOT
ATOM      1  C   UNL     1       4.579   4.346  18.902  0.00  0.00    +0.000 A 
ATOM      2  C   UNL     1       5.042   4.597  17.597  0.00  0.00    +0.000 A 
ATOM      3  C   UNL     1       4.650   5.742  16.898  0.00  0.00    +0.000 A 
ATOM      4  C   UNL     1       3.672   6.567  17.461  0.00  0.00    +0.000 A 
ATOM      5  C   UNL     1       3.126   6.265  18.710  0.00  0.00    +0.000 A 
ATOM      6  C   UNL     1       3.566   5.153  19.443  0.00  0.00    +0.000 A 
ENDROOT
BRANCH   1   8
ATOM      7  C   UNL     1       4.337   2.155  19.769  0.00  0.00    +0.000 C 
ATOM      8  O   UNL     1       5.128   3.343  19.658  0.00  0.00    +0.000 OA
ENDBRANCH   1   8
BRANCH   3   9
ATOM      9  C   UNL     1       5.339   6.114  15.606  0.00  0.00    +0.000 C 
BRANCH   9  10
ATOM     10  N   UNL     1       6.723   5.637  15.618  0.00  0.00    +0.000 NA
ATOM     11  H   UNL     1       6.880   5.083  16.460  0.00  0.00    +0.000 HD
BRANCH  10  12
ATOM     12  C   UNL     1       7.025   4.839  14.431  0.00  0.00    +0.000 C 
BRANCH  12  13
ATOM     13  C   UNL     1       5.764   4.101  13.965  0.00  0.00    +0.000 C 
BRANCH  13  14
ATOM     14  C   UNL     1       5.954   3.352  12.631  0.00  0.00    +0.000 C 
ATOM     15  C   UNL     1       4.688   3.350  11.772  0.00  0.00    +0.000 C 
ATOM     16  C   UNL     1       7.108   3.976  11.838  0.00  0.00    +0.000 C 
ENDBRANCH  13  14
ENDBRANCH  12  13
ENDBRANCH  10  12
ENDBRANCH   9  10
ENDBRANCH   3   9
BRANCH   6  17
ATOM     17  O   UNL     1       2.957   5.045  20.666  0.00  0.00    +0.000 OA
BRANCH  17  18
ATOM     18  C   UNL     1       1.540   4.916  20.685  0.00  0.00    +0.000 C 
BRANCH  18  19
ATOM     19  C   UNL     1       1.085   3.459  20.516  0.00  0.00    +0.000 C 
ATOM     20  N   UNL     1       1.087   2.675  21.634  0.00  0.00    +0.000 N 
ATOM     21  O   UNL     1       0.729   2.992  19.434  0.00  0.00    +0.000 OA
ATOM     22  H   UNL     1       1.427   3.031  22.519  0.00  0.00    +0.000 HD
ATOM     23  H   UNL     1       0.805   1.709  21.552  0.00  0.00    +0.000 HD
ENDBRANCH  18  19
ENDBRANCH  17  18
ENDBRANCH   6  17
TORSDOF 9
ENDMDL
MODEL 5
REMARK VINA RESULT:      -6.6      1.093      1.215
REMARK  Name = 
REMARK  12 active torsions:
REMARK  status: ('A' for Active; 'I' for Inactive)
REMARK    1  A    between atoms: C_1  and  O_2
REMARK    2  A    between atoms: O_2  and  C_3
REMARK    3  A    between atoms: C_5  and  C_6
REMARK    4  A    between atoms: C_6  and  N_7
REMARK    5  A    between atoms: N_7  and  C_8
REMARK    6  A    between atoms: C_8  and  C_9
REMARK    7  A    between atoms: C_9  and  C_10
REMARK    8  A    between atoms: C_10  and  C_11
REMARK    9  A    between atoms: C_10  and  C_12
REMARK   10  A    between atoms: C_15  and  O_16
REMARK   11  A    between atoms: O_16  and  C_17
REMARK   12  A    between atoms: C_17  and  C_18
REMARK                            x       y       z     vdW  Elec       q    Type
REMARK                         _______ _______ _______ _____ _____    ______ ____
ROOT
ATOM      1  C   UNL     1       5.092   4.307  18.804  0.00  0.00    +0.000 A 
ATOM      2  C   UNL     1       5.968   4.213  17.706  0.00  0.00    +0.000 A 
ATOM      3  C   UNL     1       6.094   5.259  16.788  0.00  0.00    +0.000 A 
ATOM      4  C   UNL     1       5.224   6.349  16.894  0.00  0.00    +0.000 A 
ATOM      5  C   UNL     1       4.277   6.400  17.918  0.00  0.00    +0.000 A 
ATOM      6  C   UNL     1       4.194   5.382  18.880  0.00  0.00    +0.000 A 
ENDROOT
BRANCH   1   8
ATOM      7  C   UNL     1       4.375   2.184  19.573  0.00  0.00    +0.000 C 
ATOM      8  O   UNL     1       5.130   3.378  19.810  0.00  0.00    +0.000 OA
ENDBRANCH   1   8
BRANCH   3   9
ATOM      9  C   UNL     1       7.204   5.240  15.764  0.00  0.00    +0.000 C 
BRANCH   9  10
ATOM     10  N   UNL     1       6.641   5.220  14.412  0.00  0.00    +0.000 NA
ATOM     11  H   UNL     1       7.350   5.534  13.749  0.00  0.00    +0.000 HD
BRANCH  10  12
ATOM     12  C   UNL     1       6.171   3.885  14.047  0.00  0.00    +0.000 C 
BRANCH  12  13
ATOM     13  C   UNL     1       6.277   3.691  12.530  0.00  0.00    +0.000 C 
BRANCH  13  14
ATOM     14  C   UNL     1       5.323   2.610  11.985  0.00  0.00    +0.000 C 
ATOM     15  C   UNL     1       4.194   3.197  11.135  0.00  0.00    +0.000 C 
ATOM     16  C   UNL     1       6.106   1.587  11.156  0.00  0.00    +0.000 C 
ENDBRANCH  13  14
ENDBRANCH  12  13
ENDBRANCH  10  12
ENDBRANCH   9  10
ENDBRANCH   3   9
BRANCH   6  17
ATOM     17  O   UNL     1       3.243   5.628  19.835  0.00  0.00    +0.000 OA
BRANCH  17  18
ATOM     18  C   UNL     1       1.938   5.101  19.614  0.00  0.00    +0.000 C 
BRANCH  18  19
ATOM     19  C   UNL     1       1.554   4.040  20.655  0.00  0.00    +0.000 C 
ATOM     20  N   UNL     1       0.514   3.213  20.344  0.00  0.00    +0.000 N 
ATOM     21  O   UNL     1       2.142   3.917  21.730  0.00  0.00    +0.000 OA
ATOM     22  H   UNL     1      -0.011   3.337  19.486  0.00  0.00    +0.000 HD
ATOM     23  H   UNL     1       0.231   2.513  21.013  0.00  0.00    +0.000 HD
ENDBRANCH  18  19
ENDBRANCH  17  18
ENDBRANCH   6  17
TORSDOF 9
ENDMDL
MODEL 6
REMARK VINA RESULT:      -6.5      2.646      6.473
REMARK  Name = 
REMARK  12 active torsions:
REMARK  status: ('A' for Active; 'I' for Inactive)
REMARK    1  A    between atoms: C_1  and  O_2
REMARK    2  A    between atoms: O_2  and  C_3
REMARK    3  A    between atoms: C_5  and  C_6
REMARK    4  A    between atoms: C_6  and  N_7
REMARK    5  A    between atoms: N_7  and  C_8
REMARK    6  A    between atoms: C_8  and  C_9
REMARK    7  A    between atoms: C_9  and  C_10
REMARK    8  A    between atoms: C_10  and  C_11
REMARK    9  A    between atoms: C_10  and  C_12
REMARK   10  A    between atoms: C_15  and  O_16
REMARK   11  A    between atoms: O_16  and  C_17
REMARK   12  A    between atoms: C_17  and  C_18
REMARK                            x       y       z     vdW  Elec       q    Type
REMARK                         _______ _______ _______ _____ _____    ______ ____
ROOT
ATOM      1  C   UNL     1       5.671   4.738  18.239  0.00  0.00    +0.000 A 
ATOM      2  C   UNL     1       4.839   5.572  19.010  0.00  0.00    +0.000 A 
ATOM      3  C   UNL     1       3.462   5.634  18.778  0.00  0.00    +0.000 A 
ATOM      4  C   UNL     1       2.940   4.962  17.669  0.00  0.00    +0.000 A 
ATOM      5  C   UNL     1       3.777   4.219  16.835  0.00  0.00    +0.000 A 
ATOM      6  C   UNL     1       5.149   4.101  17.103  0.00  0.00    +0.000 A 
ENDROOT
BRANCH   1   8
ATOM      7  C   UNL     1       7.712   5.688  18.978  0.00  0.00    +0.000 C 
ATOM      8  O   UNL     1       6.973   4.518  18.606  0.00  0.00    +0.000 OA
ENDBRANCH   1   8
BRANCH   3   9
ATOM      9  C   UNL     1       2.560   6.342  19.761  0.00  0.00    +0.000 C 
BRANCH   9  10
ATOM     10  N   UNL     1       2.302   5.483  20.918  0.00  0.00    +0.000 NA
ATOM     11  H   UNL     1       2.131   6.066  21.737  0.00  0.00    +0.000 HD
BRANCH  10  12
ATOM     12  C   UNL     1       1.163   4.598  20.685  0.00  0.00    +0.000 C 
BRANCH  12  13
ATOM     13  C   UNL     1       1.474   3.195  21.220  0.00  0.00    +0.000 C 
BRANCH  13  14
ATOM     14  C   UNL     1       1.711   2.157  20.105  0.00  0.00    +0.000 C 
ATOM     15  C   UNL     1       0.893   2.449  18.846  0.00  0.00    +0.000 C 
ATOM     16  C   UNL     1       3.200   2.104  19.745  0.00  0.00    +0.000 C 
ENDBRANCH  13  14
ENDBRANCH  12  13
ENDBRANCH  10  12
ENDBRANCH   9  10
ENDBRANCH   3   9
BRANCH   6  17
ATOM     17  O   UNL     1       5.800   3.292  16.209  0.00  0.00    +0.000 OA
BRANCH  17  18
ATOM     18  C   UNL     1       5.978   3.786  14.886  0.00  0.00    +0.000 C 
BRANCH  18  19
ATOM     19  C   UNL     1       6.577   5.200  14.866  0.00  0.00    +0.000 C 
ATOM     20  N   UNL     1       5.701   6.246  14.887  0.00  0.00    +0.000 N 
ATOM     21  O   UNL     1       7.790   5.409  14.834  0.00  0.00    +0.000 OA
ATOM     22  H   UNL     1       4.700   6.088  14.860  0.00  0.00    +0.000 HD
ATOM     23  H   UNL     1       6.065   7.187  14.863  0.00  0.00    +0.000 HD
ENDBRANCH  18  19
ENDBRANCH  17  18
ENDBRANCH   6  17
TORSDOF 9
ENDMDL
MODEL 7
REMARK VINA RESULT:      -6.5      1.567      2.138
REMARK  Name = 
REMARK  12 active torsions:
REMARK  status: ('A' for Active; 'I' for Inactive)
REMARK    1  A    between atoms: C_1  and  O_2
REMARK    2  A    between atoms: O_2  and  C_3
REMARK    3  A    between atoms: C_5  and  C_6
REMARK    4  A    between atoms: C_6  and  N_7
REMARK    5  A    between atoms: N_7  and  C_8
REMARK    6  A    between atoms: C_8  and  C_9
REMARK    7  A    between atoms: C_9  and  C_10
REMARK    8  A    between atoms: C_10  and  C_11
REMARK    9  A    between atoms: C_10  and  C_12
REMARK   10  A    between atoms: C_15  and  O_16
REMARK   11  A    between atoms: O_16  and  C_17
REMARK   12  A    between atoms: C_17  and  C_18
REMARK                            x       y       z     vdW  Elec       q    Type
REMARK                         _______ _______ _______ _____ _____    ______ ____
ROOT
ATOM      1  C   UNL     1       5.805   4.720  18.755  0.00  0.00    +0.000 A 
ATOM      2  C   UNL     1       6.206   4.880  17.415  0.00  0.00    +0.000 A 
ATOM      3  C   UNL     1       5.276   4.849  16.373  0.00  0.00    +0.000 A 
ATOM      4  C   UNL     1       3.952   4.510  16.668  0.00  0.00    +0.000 A 
ATOM      5  C   UNL     1       3.568   4.242  17.983  0.00  0.00    +0.000 A 
ATOM      6  C   UNL     1       4.486   4.338  19.040  0.00  0.00    +0.000 A 
ENDROOT
BRANCH   1   8
ATOM      7  C   UNL     1       7.793   5.804  19.452  0.00  0.00    +0.000 C 
ATOM      8  O   UNL     1       6.681   4.963  19.780  0.00  0.00    +0.000 OA
ENDBRANCH   1   8
BRANCH   3   9
ATOM      9  C   UNL     1       5.686   5.260  14.978  0.00  0.00    +0.000 C 
BRANCH   9  10
ATOM     10  N   UNL     1       6.894   4.537  14.575  0.00  0.00    +0.000 NA
ATOM     11  H   UNL     1       7.037   3.746  15.203  0.00  0.00    +0.000 HD
BRANCH  10  12
ATOM     12  C   UNL     1       6.803   4.068  13.194  0.00  0.00    +0.000 C 
BRANCH  12  13
ATOM     13  C   UNL     1       5.348   3.716  12.858  0.00  0.00    +0.000 C 
BRANCH  13  14
ATOM     14  C   UNL     1       5.178   3.107  11.452  0.00  0.00    +0.000 C 
ATOM     15  C   UNL     1       5.757   1.695  11.350  0.00  0.00    +0.000 C 
ATOM     16  C   UNL     1       3.694   3.079  11.068  0.00  0.00    +0.000 C 
ENDBRANCH  13  14
ENDBRANCH  12  13
ENDBRANCH  10  12
ENDBRANCH   9  10
ENDBRANCH   3   9
BRANCH   6  17
ATOM     17  O   UNL     1       3.918   4.092  20.263  0.00  0.00    +0.000 OA
BRANCH  17  18
ATOM     18  C   UNL     1       2.589   4.556  20.475  0.00  0.00    +0.000 C 
BRANCH  18  19
ATOM     19  C   UNL     1       1.701   3.495  21.140  0.00  0.00    +0.000 C 
ATOM     20  N   UNL     1       0.544   3.160  20.496  0.00  0.00    +0.000 N 
ATOM     21  O   UNL     1       1.994   2.954  22.207  0.00  0.00    +0.000 OA
ATOM     22  H   UNL     1       0.266   3.635  19.645  0.00  0.00    +0.000 HD
ATOM     23  H   UNL     1      -0.066   2.475  20.915  0.00  0.00    +0.000 HD
ENDBRANCH  18  19
ENDBRANCH  17  18
ENDBRANCH   6  17
TORSDOF 9
ENDMDL
MODEL 8
REMARK VINA RESULT:      -6.5      2.914      6.243
REMARK  Name = 
REMARK  12 active torsions:
REMARK  status: ('A' for Active; 'I' for Inactive)
REMARK    1  A    between atoms: C_1  and  O_2
REMARK    2  A    between atoms: O_2  and  C_3
REMARK    3  A    between atoms: C_5  and  C_6
REMARK    4  A    between atoms: C_6  and  N_7
REMARK    5  A    between atoms: N_7  and  C_8
REMARK    6  A    between atoms: C_8  and  C_9
REMARK    7  A    between atoms: C_9  and  C_10
REMARK    8  A    between atoms: C_10  and  C_11
REMARK    9  A    between atoms: C_10  and  C_12
REMARK   10  A    between atoms: C_15  and  O_16
REMARK   11  A    between atoms: O_16  and  C_17
REMARK   12  A    between atoms: C_17  and  C_18
REMARK                            x       y       z     vdW  Elec       q    Type
REMARK                         _______ _______ _______ _____ _____    ______ ____
ROOT
ATOM      1  C   UNL     1       3.420   6.981  17.925  0.00  0.00    +0.000 A 
ATOM      2  C   UNL     1       2.537   6.407  18.860  0.00  0.00    +0.000 A 
ATOM      3  C   UNL     1       2.981   5.466  19.792  0.00  0.00    +0.000 A 
ATOM      4  C   UNL     1       4.292   4.990  19.689  0.00  0.00    +0.000 A 
ATOM      5  C   UNL     1       5.143   5.474  18.695  0.00  0.00    +0.000 A 
ATOM      6  C   UNL     1       4.720   6.468  17.799  0.00  0.00    +0.000 A 
ENDROOT
BRANCH   1   8
ATOM      7  C   UNL     1       2.062   8.915  17.764  0.00  0.00    +0.000 C 
ATOM      8  O   UNL     1       3.032   8.051  17.162  0.00  0.00    +0.000 OA
ENDBRANCH   1   8
BRANCH   3   9
ATOM      9  C   UNL     1       2.083   5.046  20.931  0.00  0.00    +0.000 C 
BRANCH   9  10
ATOM     10  N   UNL     1       0.951   4.270  20.421  0.00  0.00    +0.000 NA
ATOM     11  H   UNL     1       0.624   4.687  19.549  0.00  0.00    +0.000 HD
BRANCH  10  12
ATOM     12  C   UNL     1       1.315   2.872  20.202  0.00  0.00    +0.000 C 
BRANCH  12  13
ATOM     13  C   UNL     1       0.957   2.458  18.769  0.00  0.00    +0.000 C 
BRANCH  13  14
ATOM     14  C   UNL     1       2.187   2.095  17.914  0.00  0.00    +0.000 C 
ATOM     15  C   UNL     1       2.638   3.248  17.015  0.00  0.00    +0.000 C 
ATOM     16  C   UNL     1       3.349   1.670  18.818  0.00  0.00    +0.000 C 
ENDBRANCH  13  14
ENDBRANCH  12  13
ENDBRANCH  10  12
ENDBRANCH   9  10
ENDBRANCH   3   9
BRANCH   6  17
ATOM     17  O   UNL     1       5.705   6.856  16.929  0.00  0.00    +0.000 OA
BRANCH  17  18
ATOM     18  C   UNL     1       6.852   6.019  16.819  0.00  0.00    +0.000 C 
BRANCH  18  19
ATOM     19  C   UNL     1       6.765   5.067  15.618  0.00  0.00    +0.000 C 
ATOM     20  N   UNL     1       6.346   3.791  15.865  0.00  0.00    +0.000 N 
ATOM     21  O   UNL     1       7.055   5.412  14.472  0.00  0.00    +0.000 OA
ATOM     22  H   UNL     1       6.155   3.480  16.810  0.00  0.00    +0.000 HD
ATOM     23  H   UNL     1       6.291   3.140  15.097  0.00  0.00    +0.000 HD
ENDBRANCH  18  19
ENDBRANCH  17  18
ENDBRANCH   6  17
TORSDOF 9
ENDMDL
MODEL 9
REMARK VINA RESULT:      -6.5      3.465      6.709
REMARK  Name = 
REMARK  12 active torsions:
REMARK  status: ('A' for Active; 'I' for Inactive)
REMARK    1  A    between atoms: C_1  and  O_2
REMARK    2  A    between atoms: O_2  and  C_3
REMARK    3  A    between atoms: C_5  and  C_6
REMARK    4  A    between atoms: C_6  and  N_7
REMARK    5  A    between atoms: N_7  and  C_8
REMARK    6  A    between atoms: C_8  and  C_9
REMARK    7  A    between atoms: C_9  and  C_10
REMARK    8  A    between atoms: C_10  and  C_11
REMARK    9  A    between atoms: C_10  and  C_12
REMARK   10  A    between atoms: C_15  and  O_16
REMARK   11  A    between atoms: O_16  and  C_17
REMARK   12  A    between atoms: C_17  and  C_18
REMARK                            x       y       z     vdW  Elec       q    Type
REMARK                         _______ _______ _______ _____ _____    ______ ____
ROOT
ATOM      1  C   UNL     1       4.393   5.539  17.798  0.00  0.00    +0.000 A 
ATOM      2  C   UNL     1       3.532   4.538  17.311  0.00  0.00    +0.000 A 
ATOM      3  C   UNL     1       3.553   3.245  17.840  0.00  0.00    +0.000 A 
ATOM      4  C   UNL     1       4.548   2.918  18.767  0.00  0.00    +0.000 A 
ATOM      5  C   UNL     1       5.476   3.878  19.175  0.00  0.00    +0.000 A 
ATOM      6  C   UNL     1       5.415   5.195  18.695  0.00  0.00    +0.000 A 
ENDROOT
BRANCH   1   8
ATOM      7  C   UNL     1       3.056   7.488  17.961  0.00  0.00    +0.000 C 
ATOM      8  O   UNL     1       4.222   6.848  17.430  0.00  0.00    +0.000 OA
ENDBRANCH   1   8
BRANCH   3   9
ATOM      9  C   UNL     1       2.468   2.259  17.476  0.00  0.00    +0.000 C 
BRANCH   9  10
ATOM     10  N   UNL     1       1.163   2.767  17.902  0.00  0.00    +0.000 NA
ATOM     11  H   UNL     1       0.441   2.395  17.285  0.00  0.00    +0.000 HD
BRANCH  10  12
ATOM     12  C   UNL     1       0.873   2.403  19.287  0.00  0.00    +0.000 C 
BRANCH  12  13
ATOM     13  C   UNL     1       0.560   3.664  20.103  0.00  0.00    +0.000 C 
BRANCH  13  14
ATOM     14  C   UNL     1       1.555   3.907  21.255  0.00  0.00    +0.000 C 
ATOM     15  C   UNL     1       2.437   2.689  21.536  0.00  0.00    +0.000 C 
ATOM     16  C   UNL     1       2.442   5.116  20.936  0.00  0.00    +0.000 C 
ENDBRANCH  13  14
ENDBRANCH  12  13
ENDBRANCH  10  12
ENDBRANCH   9  10
ENDBRANCH   3   9
BRANCH   6  17
ATOM     17  O   UNL     1       6.371   6.007  19.246  0.00  0.00    +0.000 OA
BRANCH  17  18
ATOM     18  C   UNL     1       7.628   6.087  18.580  0.00  0.00    +0.000 C 
BRANCH  18  19
ATOM     19  C   UNL     1       7.534   6.839  17.246  0.00  0.00    +0.000 C 
ATOM     20  N   UNL     1       7.325   8.187  17.305  0.00  0.00    +0.000 N 
ATOM     21  O   UNL     1       7.640   6.277  16.155  0.00  0.00    +0.000 OA
ATOM     22  H   UNL     1       7.185   8.653  18.194  0.00  0.00    +0.000 HD
ATOM     23  H   UNL     1       7.248   8.706  16.444  0.00  0.00    +0.000 HD
ENDBRANCH  18  19
ENDBRANCH  17  18
ENDBRANCH   6  17
TORSDOF 9
ENDMDL
