MODEL 1
REMARK VINA RESULT:      -9.6      0.000      0.000
REMARK  Name = 
REMARK  5 active torsions:
REMARK  status: ('A' for Active; 'I' for Inactive)
REMARK    1  A    between atoms: S_2  and  C_4
REMARK    2  A    between atoms: S_2  and  N_10
REMARK    3  A    between atoms: C_13  and  C_14
REMARK    4  A    between atoms: C_14  and  C_15
REMARK    5  A    between atoms: C_14  and  N_22
REMARK                            x       y       z     vdW  Elec       q    Type
REMARK                         _______ _______ _______ _____ _____    ______ ____
ROOT
ATOM      1  N   UNL     1       5.716   5.015  17.077  0.00  0.00    +0.000 N 
ATOM      2  C   UNL     1       4.628   4.425  16.493  0.00  0.00    +0.000 A 
ATOM      3  C   UNL     1       3.587   4.506  17.397  0.00  0.00    +0.000 A 
ATOM      4  C   UNL     1       4.050   5.210  18.556  0.00  0.00    +0.000 A 
ATOM      5  C   UNL     1       5.382   5.520  18.302  0.00  0.00    +0.000 A 
ENDROOT
BRANCH   1   7
ATOM      6  O   UNL     1       8.093   4.220  16.956  0.00  0.00    +0.000 OA
ATOM      7  S   UNL     1       7.239   5.220  16.344  0.00  0.00    +0.000 S 
ATOM      8  O   UNL     1       7.525   6.640  16.427  0.00  0.00    +0.000 OA
BRANCH   7   9
ATOM      9  C   UNL     1       6.991   4.812  14.637  0.00  0.00    +0.000 A 
ATOM     10  C   UNL     1       6.092   3.793  14.297  0.00  0.00    +0.000 A 
ATOM     11  C   UNL     1       5.973   3.396  12.966  0.00  0.00    +0.000 A 
ATOM     12  C   UNL     1       6.746   4.012  11.981  0.00  0.00    +0.000 A 
ATOM     13  C   UNL     1       7.639   5.027  12.322  0.00  0.00    +0.000 A 
ATOM     14  C   UNL     1       7.770   5.428  13.653  0.00  0.00    +0.000 A 
ENDBRANCH   7   9
ENDBRANCH   1   7
BRANCH   4  15
ATOM     15  C   UNL     1       3.235   5.544  19.791  0.00  0.00    +0.000 C 
BRANCH  15  16
ATOM     16  C   UNL     1       2.509   6.842  19.441  0.00  0.00    +0.000 A 
ATOM     17  C   UNL     1       2.569   7.414  18.156  0.00  0.00    +0.000 A 
ATOM     18  C   UNL     1       1.977   8.651  17.890  0.00  0.00    +0.000 A 
ATOM     19  C   UNL     1       1.313   9.333  18.903  0.00  0.00    +0.000 A 
ATOM     20 CL   UNL     1       0.618  10.873  18.583  0.00  0.00    +0.000 Cl
ATOM     21  C   UNL     1       1.219   8.781  20.178  0.00  0.00    +0.000 A 
ATOM     22  C   UNL     1       1.812   7.542  20.447  0.00  0.00    +0.000 A 
ENDBRANCH  15  16
BRANCH  15  23
ATOM     23  N   UNL     1       2.340   4.460  20.221  0.00  0.00    +0.000 N 
ATOM     24  C   UNL     1       1.264   3.986  19.504  0.00  0.00    +0.000 A 
ATOM     25  C   UNL     1       0.714   2.999  20.284  0.00  0.00    +0.000 A 
ATOM     26  N   UNL     1       1.401   2.870  21.458  0.00  0.00    +0.000 NA
ATOM     27  C   UNL     1       2.356   3.770  21.403  0.00  0.00    +0.000 A 
ENDBRANCH  15  23
ENDBRANCH   4  15
TORSDOF 5
ENDMDL
MODEL 2
REMARK VINA RESULT:      -9.6      0.384      1.173
REMARK  Name = 
REMARK  5 active torsions:
REMARK  status: ('A' for Active; 'I' for Inactive)
REMARK    1  A    between atoms: S_2  and  C_4
REMARK    2  A    between atoms: S_2  and  N_10
REMARK    3  A    between atoms: C_13  and  C_14
REMARK    4  A    between atoms: C_14  and  C_15
REMARK    5  A    between atoms: C_14  and  N_22
REMARK                            x       y       z     vdW  Elec       q    Type
REMARK                         _______ _______ _______ _____ _____    ______ ____
ROOT
ATOM      1  N   UNL     1       5.716   4.996  17.151  0.00  0.00    +0.000 N 
ATOM      2  C   UNL     1       4.632   4.424  16.543  0.00  0.00    +0.000 A 
ATOM      3  C   UNL     1       3.575   4.511  17.428  0.00  0.00    +0.000 A 
ATOM      4  C   UNL     1       4.026   5.201  18.601  0.00  0.00    +0.000 A 
ATOM      5  C   UNL     1       5.366   5.496  18.373  0.00  0.00    +0.000 A 
ENDROOT
BRANCH   1   7
ATOM      6  O   UNL     1       8.106   4.232  17.128  0.00  0.00    +0.000 OA
ATOM      7  S   UNL     1       7.254   5.188  16.446  0.00  0.00    +0.000 S 
ATOM      8  O   UNL     1       7.518   6.615  16.467  0.00  0.00    +0.000 OA
BRANCH   7   9
ATOM      9  C   UNL     1       7.055   4.693  14.756  0.00  0.00    +0.000 A 
ATOM     10  C   UNL     1       7.813   5.324  13.761  0.00  0.00    +0.000 A 
ATOM     11  C   UNL     1       7.585   5.014  12.421  0.00  0.00    +0.000 A 
ATOM     12  C   UNL     1       6.607   4.081  12.077  0.00  0.00    +0.000 A 
ATOM     13  C   UNL     1       5.854   3.453  13.069  0.00  0.00    +0.000 A 
ATOM     14  C   UNL     1       6.072   3.761  14.414  0.00  0.00    +0.000 A 
ENDBRANCH   7   9
ENDBRANCH   1   7
BRANCH   4  15
ATOM     15  C   UNL     1       3.194   5.535  19.824  0.00  0.00    +0.000 C 
BRANCH  15  16
ATOM     16  C   UNL     1       2.478   6.837  19.466  0.00  0.00    +0.000 A 
ATOM     17  C   UNL     1       2.543   7.400  18.178  0.00  0.00    +0.000 A 
ATOM     18  C   UNL     1       1.962   8.640  17.903  0.00  0.00    +0.000 A 
ATOM     19  C   UNL     1       1.302   9.334  18.912  0.00  0.00    +0.000 A 
ATOM     20 CL   UNL     1       0.620  10.878  18.582  0.00  0.00    +0.000 Cl
ATOM     21  C   UNL     1       1.203   8.790  20.190  0.00  0.00    +0.000 A 
ATOM     22  C   UNL     1       1.787   7.549  20.467  0.00  0.00    +0.000 A 
ENDBRANCH  15  16
BRANCH  15  23
ATOM     23  N   UNL     1       2.287   4.454  20.237  0.00  0.00    +0.000 N 
ATOM     24  C   UNL     1       2.404   3.716  21.394  0.00  0.00    +0.000 A 
ATOM     25  C   UNL     1       1.364   2.819  21.360  0.00  0.00    +0.000 A 
ATOM     26  N   UNL     1       0.632   2.969  20.216  0.00  0.00    +0.000 NA
ATOM     27  C   UNL     1       1.219   3.940  19.553  0.00  0.00    +0.000 A 
ENDBRANCH  15  23
ENDBRANCH   4  15
TORSDOF 5
ENDMDL
MODEL 3
REMARK VINA RESULT:      -9.0      1.031      1.600
REMARK  Name = 
REMARK  5 active torsions:
REMARK  status: ('A' for Active; 'I' for Inactive)
REMARK    1  A    between atoms: S_2  and  C_4
REMARK    2  A    between atoms: S_2  and  N_10
REMARK    3  A    between atoms: C_13  and  C_14
REMARK    4  A    between atoms: C_14  and  C_15
REMARK    5  A    between atoms: C_14  and  N_22
REMARK                            x       y       z     vdW  Elec       q    Type
REMARK                         _______ _______ _______ _____ _____    ______ ____
ROOT
ATOM      1  N   UNL     1       5.694   5.944  16.969  0.00  0.00    +0.000 N 
ATOM      2  C   UNL     1       4.885   6.911  16.439  0.00  0.00    +0.000 A 
ATOM      3  C   UNL     1       3.771   7.001  17.250  0.00  0.00    +0.000 A 
ATOM      4  C   UNL     1       3.931   6.082  18.339  0.00  0.00    +0.000 A 
ATOM      5  C   UNL     1       5.155   5.456  18.127  0.00  0.00    +0.000 A 
ENDROOT
BRANCH   1   7
ATOM      6  O   UNL     1       7.641   4.375  17.186  0.00  0.00    +0.000 OA
ATOM      7  S   UNL     1       7.221   5.494  16.364  0.00  0.00    +0.000 S 
ATOM      8  O   UNL     1       7.986   6.724  16.280  0.00  0.00    +0.000 OA
BRANCH   7   9
ATOM      9  C   UNL     1       6.917   4.926  14.713  0.00  0.00    +0.000 A 
ATOM     10  C   UNL     1       5.909   3.980  14.486  0.00  0.00    +0.000 A 
ATOM     11  C   UNL     1       5.736   3.451  13.207  0.00  0.00    +0.000 A 
ATOM     12  C   UNL     1       6.565   3.863  12.163  0.00  0.00    +0.000 A 
ATOM     13  C   UNL     1       7.567   4.806  12.392  0.00  0.00    +0.000 A 
ATOM     14  C   UNL     1       7.751   5.337  13.670  0.00  0.00    +0.000 A 
ENDBRANCH   7   9
ENDBRANCH   1   7
BRANCH   4  15
ATOM     15  C   UNL     1       2.957   5.860  19.479  0.00  0.00    +0.000 C 
BRANCH  15  16
ATOM     16  C   UNL     1       2.228   7.194  19.636  0.00  0.00    +0.000 A 
ATOM     17  C   UNL     1       1.668   7.604  20.861  0.00  0.00    +0.000 A 
ATOM     18  C   UNL     1       0.923   8.782  20.953  0.00  0.00    +0.000 A 
ATOM     19  C   UNL     1       0.731   9.571  19.823  0.00  0.00    +0.000 A 
ATOM     20 CL   UNL     1      -0.218  11.001  19.931  0.00  0.00    +0.000 Cl
ATOM     21  C   UNL     1       1.293   9.200  18.604  0.00  0.00    +0.000 A 
ATOM     22  C   UNL     1       2.038   8.019  18.510  0.00  0.00    +0.000 A 
ENDBRANCH  15  16
BRANCH  15  23
ATOM     23  N   UNL     1       2.059   4.713  19.277  0.00  0.00    +0.000 N 
ATOM     24  C   UNL     1       1.515   3.943  20.281  0.00  0.00    +0.000 A 
ATOM     25  C   UNL     1       0.764   2.988  19.639  0.00  0.00    +0.000 A 
ATOM     26  N   UNL     1       0.850   3.135  18.283  0.00  0.00    +0.000 NA
ATOM     27  C   UNL     1       1.648   4.161  18.095  0.00  0.00    +0.000 A 
ENDBRANCH  15  23
ENDBRANCH   4  15
TORSDOF 5
ENDMDL
MODEL 4
REMARK VINA RESULT:      -9.0      1.027      1.589
REMARK  Name = 
REMARK  5 active torsions:
REMARK  status: ('A' for Active; 'I' for Inactive)
REMARK    1  A    between atoms: S_2  and  C_4
REMARK    2  A    between atoms: S_2  and  N_10
REMARK    3  A    between atoms: C_13  and  C_14
REMARK    4  A    between atoms: C_14  and  C_15
REMARK    5  A    between atoms: C_14  and  N_22
REMARK                            x       y       z     vdW  Elec       q    Type
REMARK                         _______ _______ _______ _____ _____    ______ ____
ROOT
ATOM      1  N   UNL     1       5.692   5.894  17.010  0.00  0.00    +0.000 N 
ATOM      2  C   UNL     1       4.839   6.781  16.412  0.00  0.00    +0.000 A 
ATOM      3  C   UNL     1       3.705   6.849  17.199  0.00  0.00    +0.000 A 
ATOM      4  C   UNL     1       3.897   6.002  18.340  0.00  0.00    +0.000 A 
ATOM      5  C   UNL     1       5.160   5.440  18.184  0.00  0.00    +0.000 A 
ENDROOT
BRANCH   1   7
ATOM      6  O   UNL     1       7.719   4.452  17.342  0.00  0.00    +0.000 OA
ATOM      7  S   UNL     1       7.254   5.503  16.457  0.00  0.00    +0.000 S 
ATOM      8  O   UNL     1       7.950   6.770  16.324  0.00  0.00    +0.000 OA
BRANCH   7   9
ATOM      9  C   UNL     1       7.018   4.837  14.832  0.00  0.00    +0.000 A 
ATOM     10  C   UNL     1       7.790   5.325  13.770  0.00  0.00    +0.000 A 
ATOM     11  C   UNL     1       7.536   4.880  12.472  0.00  0.00    +0.000 A 
ATOM     12  C   UNL     1       6.517   3.957  12.238  0.00  0.00    +0.000 A 
ATOM     13  C   UNL     1       5.750   3.472  13.297  0.00  0.00    +0.000 A 
ATOM     14  C   UNL     1       5.994   3.915  14.599  0.00  0.00    +0.000 A 
ENDBRANCH   7   9
ENDBRANCH   1   7
BRANCH   4  15
ATOM     15  C   UNL     1       2.915   5.786  19.474  0.00  0.00    +0.000 C 
BRANCH  15  16
ATOM     16  C   UNL     1       2.153   7.106  19.589  0.00  0.00    +0.000 A 
ATOM     17  C   UNL     1       2.051   8.009  18.515  0.00  0.00    +0.000 A 
ATOM     18  C   UNL     1       1.433   9.252  18.675  0.00  0.00    +0.000 A 
ATOM     19  C   UNL     1       0.903   9.608  19.911  0.00  0.00    +0.000 A 
ATOM     20 CL   UNL     1       0.176  11.153  20.116  0.00  0.00    +0.000 Cl
ATOM     21  C   UNL     1       0.970   8.724  20.985  0.00  0.00    +0.000 A 
ATOM     22  C   UNL     1       1.590   7.479  20.826  0.00  0.00    +0.000 A 
ENDBRANCH  15  16
BRANCH  15  23
ATOM     23  N   UNL     1       2.047   4.613  19.291  0.00  0.00    +0.000 N 
ATOM     24  C   UNL     1       1.560   3.819  20.305  0.00  0.00    +0.000 A 
ATOM     25  C   UNL     1       0.818   2.846  19.680  0.00  0.00    +0.000 A 
ATOM     26  N   UNL     1       0.854   3.007  18.323  0.00  0.00    +0.000 NA
ATOM     27  C   UNL     1       1.613   4.059  18.118  0.00  0.00    +0.000 A 
ENDBRANCH  15  23
ENDBRANCH   4  15
TORSDOF 5
ENDMDL
MODEL 5
REMARK VINA RESULT:      -8.6      4.175      7.463
REMARK  Name = 
REMARK  5 active torsions:
REMARK  status: ('A' for Active; 'I' for Inactive)
REMARK    1  A    between atoms: S_2  and  C_4
REMARK    2  A    between atoms: S_2  and  N_10
REMARK    3  A    between atoms: C_13  and  C_14
REMARK    4  A    between atoms: C_14  and  C_15
REMARK    5  A    between atoms: C_14  and  N_22
REMARK                            x       y       z     vdW  Elec       q    Type
REMARK                         _______ _______ _______ _____ _____    ______ ____
ROOT
ATOM      1  N   UNL     1       1.482   8.025  20.318  0.00  0.00    +0.000 N 
ATOM      2  C   UNL     1       2.039   8.393  19.124  0.00  0.00    +0.000 A 
ATOM      3  C   UNL     1       2.436   7.235  18.485  0.00  0.00    +0.000 A 
ATOM      4  C   UNL     1       2.067   6.119  19.305  0.00  0.00    +0.000 A 
ATOM      5  C   UNL     1       1.460   6.664  20.432  0.00  0.00    +0.000 A 
ENDROOT
BRANCH   1   7
ATOM      6  O   UNL     1       1.864   9.433  22.360  0.00  0.00    +0.000 OA
ATOM      7  S   UNL     1       0.787   9.089  21.452  0.00  0.00    +0.000 S 
ATOM      8  O   UNL     1      -0.430   8.438  21.903  0.00  0.00    +0.000 OA
BRANCH   7   9
ATOM      9  C   UNL     1       0.326  10.524  20.520  0.00  0.00    +0.000 A 
ATOM     10  C   UNL     1      -0.771  10.456  19.650  0.00  0.00    +0.000 A 
ATOM     11  C   UNL     1      -1.073  11.548  18.837  0.00  0.00    +0.000 A 
ATOM     12  C   UNL     1      -0.285  12.699  18.891  0.00  0.00    +0.000 A 
ATOM     13  C   UNL     1       0.805  12.764  19.758  0.00  0.00    +0.000 A 
ATOM     14  C   UNL     1       1.118  11.673  20.573  0.00  0.00    +0.000 A 
ENDBRANCH   7   9
ENDBRANCH   1   7
BRANCH   4  15
ATOM     15  C   UNL     1       2.294   4.654  18.986  0.00  0.00    +0.000 C 
BRANCH  15  16
ATOM     16  C   UNL     1       3.669   4.608  18.321  0.00  0.00    +0.000 A 
ATOM     17  C   UNL     1       4.803   5.211  18.898  0.00  0.00    +0.000 A 
ATOM     18  C   UNL     1       6.026   5.239  18.222  0.00  0.00    +0.000 A 
ATOM     19  C   UNL     1       6.135   4.659  16.963  0.00  0.00    +0.000 A 
ATOM     20 CL   UNL     1       7.631   4.727  16.118  0.00  0.00    +0.000 Cl
ATOM     21  C   UNL     1       5.035   4.036  16.379  0.00  0.00    +0.000 A 
ATOM     22  C   UNL     1       3.809   4.008  17.053  0.00  0.00    +0.000 A 
ENDBRANCH  15  16
BRANCH  15  23
ATOM     23  N   UNL     1       2.169   3.767  20.152  0.00  0.00    +0.000 N 
ATOM     24  C   UNL     1       0.984   3.282  20.658  0.00  0.00    +0.000 A 
ATOM     25  C   UNL     1       1.337   2.519  21.744  0.00  0.00    +0.000 A 
ATOM     26  N   UNL     1       2.692   2.540  21.930  0.00  0.00    +0.000 NA
ATOM     27  C   UNL     1       3.161   3.311  20.976  0.00  0.00    +0.000 A 
ENDBRANCH  15  23
ENDBRANCH   4  15
TORSDOF 5
ENDMDL
MODEL 6
REMARK VINA RESULT:      -8.5      4.288      7.540
REMARK  Name = 
REMARK  5 active torsions:
REMARK  status: ('A' for Active; 'I' for Inactive)
REMARK    1  A    between atoms: S_2  and  C_4
REMARK    2  A    between atoms: S_2  and  N_10
REMARK    3  A    between atoms: C_13  and  C_14
REMARK    4  A    between atoms: C_14  and  C_15
REMARK    5  A    between atoms: C_14  and  N_22
REMARK                            x       y       z     vdW  Elec       q    Type
REMARK                         _______ _______ _______ _____ _____    ______ ____
ROOT
ATOM      1  N   UNL     1       1.404   8.308  20.366  0.00  0.00    +0.000 N 
ATOM      2  C   UNL     1       1.908   8.664  19.145  0.00  0.00    +0.000 A 
ATOM      3  C   UNL     1       2.307   7.501  18.515  0.00  0.00    +0.000 A 
ATOM      4  C   UNL     1       1.994   6.394  19.370  0.00  0.00    +0.000 A 
ATOM      5  C   UNL     1       1.418   6.949  20.508  0.00  0.00    +0.000 A 
ENDROOT
BRANCH   1   7
ATOM      6  O   UNL     1       1.806   9.689  22.423  0.00  0.00    +0.000 OA
ATOM      7  S   UNL     1       0.727   9.379  21.504  0.00  0.00    +0.000 S 
ATOM      8  O   UNL     1      -0.509   8.756  21.941  0.00  0.00    +0.000 OA
BRANCH   7   9
ATOM      9  C   UNL     1       0.309  10.833  20.581  0.00  0.00    +0.000 A 
ATOM     10  C   UNL     1      -0.814  10.817  19.744  0.00  0.00    +0.000 A 
ATOM     11  C   UNL     1      -1.087  11.921  18.937  0.00  0.00    +0.000 A 
ATOM     12  C   UNL     1      -0.243  13.032  18.964  0.00  0.00    +0.000 A 
ATOM     13  C   UNL     1       0.874  13.045  19.798  0.00  0.00    +0.000 A 
ATOM     14  C   UNL     1       1.158  11.943  20.607  0.00  0.00    +0.000 A 
ENDBRANCH   7   9
ENDBRANCH   1   7
BRANCH   4  15
ATOM     15  C   UNL     1       2.243   4.929  19.072  0.00  0.00    +0.000 C 
BRANCH  15  16
ATOM     16  C   UNL     1       3.659   4.882  18.499  0.00  0.00    +0.000 A 
ATOM     17  C   UNL     1       3.934   4.372  17.216  0.00  0.00    +0.000 A 
ATOM     18  C   UNL     1       5.247   4.250  16.755  0.00  0.00    +0.000 A 
ATOM     19  C   UNL     1       6.306   4.640  17.569  0.00  0.00    +0.000 A 
ATOM     20 CL   UNL     1       7.923   4.454  17.015  0.00  0.00    +0.000 Cl
ATOM     21  C   UNL     1       6.062   5.169  18.834  0.00  0.00    +0.000 A 
ATOM     22  C   UNL     1       4.747   5.290  19.298  0.00  0.00    +0.000 A 
ENDBRANCH  15  16
BRANCH  15  23
ATOM     23  N   UNL     1       2.041   4.046  20.230  0.00  0.00    +0.000 N 
ATOM     24  C   UNL     1       1.128   3.018  20.297  0.00  0.00    +0.000 A 
ATOM     25  C   UNL     1       1.274   2.482  21.553  0.00  0.00    +0.000 A 
ATOM     26  N   UNL     1       2.228   3.160  22.260  0.00  0.00    +0.000 NA
ATOM     27  C   UNL     1       2.655   4.102  21.452  0.00  0.00    +0.000 A 
ENDBRANCH  15  23
ENDBRANCH   4  15
TORSDOF 5
ENDMDL
MODEL 7
REMARK VINA RESULT:      -8.5      4.421      6.920
REMARK  Name = 
REMARK  5 active torsions:
REMARK  status: ('A' for Active; 'I' for Inactive)
REMARK    1  A    between atoms: S_2  and  C_4
REMARK    2  A    between atoms: S_2  and  N_10
REMARK    3  A    between atoms: C_13  and  C_14
REMARK    4  A    between atoms: C_14  and  C_15
REMARK    5  A    between atoms: C_14  and  N_22
REMARK                            x       y       z     vdW  Elec       q    Type
REMARK                         _______ _______ _______ _____ _____    ______ ____
ROOT
ATOM      1  N   UNL     1       2.398   7.457  19.179  0.00  0.00    +0.000 N 
ATOM      2  C   UNL     1       1.665   7.635  20.320  0.00  0.00    +0.000 A 
ATOM      3  C   UNL     1       1.094   8.890  20.247  0.00  0.00    +0.000 A 
ATOM      4  C   UNL     1       1.460   9.479  18.992  0.00  0.00    +0.000 A 
ATOM      5  C   UNL     1       2.263   8.539  18.354  0.00  0.00    +0.000 A 
ENDROOT
BRANCH   1   7
ATOM      6  O   UNL     1       4.431   6.050  19.609  0.00  0.00    +0.000 OA
ATOM      7  S   UNL     1       3.251   6.043  18.765  0.00  0.00    +0.000 S 
ATOM      8  O   UNL     1       3.335   6.047  17.316  0.00  0.00    +0.000 OA
BRANCH   7   9
ATOM      9  C   UNL     1       2.194   4.705  19.247  0.00  0.00    +0.000 A 
ATOM     10  C   UNL     1       2.084   4.370  20.602  0.00  0.00    +0.000 A 
ATOM     11  C   UNL     1       1.338   3.252  20.977  0.00  0.00    +0.000 A 
ATOM     12  C   UNL     1       0.708   2.475  20.005  0.00  0.00    +0.000 A 
ATOM     13  C   UNL     1       0.819   2.812  18.656  0.00  0.00    +0.000 A 
ATOM     14  C   UNL     1       1.567   3.926  18.271  0.00  0.00    +0.000 A 
ENDBRANCH   7   9
ENDBRANCH   1   7
BRANCH   4  15
ATOM     15  C   UNL     1       1.042  10.845  18.483  0.00  0.00    +0.000 C 
BRANCH  15  16
ATOM     16  C   UNL     1      -0.482  10.774  18.382  0.00  0.00    +0.000 A 
ATOM     17  C   UNL     1      -1.137   9.845  17.552  0.00  0.00    +0.000 A 
ATOM     18  C   UNL     1      -2.526   9.866  17.403  0.00  0.00    +0.000 A 
ATOM     19  C   UNL     1      -3.281  10.813  18.086  0.00  0.00    +0.000 A 
ATOM     20 CL   UNL     1      -4.987  10.861  17.872  0.00  0.00    +0.000 Cl
ATOM     21  C   UNL     1      -2.661  11.729  18.932  0.00  0.00    +0.000 A 
ATOM     22  C   UNL     1      -1.270  11.710  19.081  0.00  0.00    +0.000 A 
ENDBRANCH  15  16
BRANCH  15  23
ATOM     23  N   UNL     1       1.531  11.960  19.307  0.00  0.00    +0.000 N 
ATOM     24  C   UNL     1       2.256  13.034  18.842  0.00  0.00    +0.000 A 
ATOM     25  C   UNL     1       2.508  13.809  19.947  0.00  0.00    +0.000 A 
ATOM     26  N   UNL     1       1.981  13.235  21.071  0.00  0.00    +0.000 NA
ATOM     27  C   UNL     1       1.421  12.120  20.662  0.00  0.00    +0.000 A 
ENDBRANCH  15  23
ENDBRANCH   4  15
TORSDOF 5
ENDMDL
MODEL 8
REMARK VINA RESULT:      -8.4      3.422      5.206
REMARK  Name = 
REMARK  5 active torsions:
REMARK  status: ('A' for Active; 'I' for Inactive)
REMARK    1  A    between atoms: S_2  and  C_4
REMARK    2  A    between atoms: S_2  and  N_10
REMARK    3  A    between atoms: C_13  and  C_14
REMARK    4  A    between atoms: C_14  and  C_15
REMARK    5  A    between atoms: C_14  and  N_22
REMARK                            x       y       z     vdW  Elec       q    Type
REMARK                         _______ _______ _______ _____ _____    ______ ____
ROOT
ATOM      1  N   UNL     1       2.494   6.930  18.648  0.00  0.00    +0.000 N 
ATOM      2  C   UNL     1       2.865   7.706  17.584  0.00  0.00    +0.000 A 
ATOM      3  C   UNL     1       2.377   8.977  17.817  0.00  0.00    +0.000 A 
ATOM      4  C   UNL     1       1.721   8.981  19.092  0.00  0.00    +0.000 A 
ATOM      5  C   UNL     1       1.834   7.682  19.578  0.00  0.00    +0.000 A 
ENDROOT
BRANCH   1   7
ATOM      6  O   UNL     1       1.969   4.553  18.035  0.00  0.00    +0.000 OA
ATOM      7  S   UNL     1       2.903   5.291  18.864  0.00  0.00    +0.000 S 
ATOM      8  O   UNL     1       2.989   5.095  20.299  0.00  0.00    +0.000 OA
BRANCH   7   9
ATOM      9  C   UNL     1       4.535   5.128  18.192  0.00  0.00    +0.000 A 
ATOM     10  C   UNL     1       4.700   4.607  16.902  0.00  0.00    +0.000 A 
ATOM     11  C   UNL     1       5.985   4.378  16.411  0.00  0.00    +0.000 A 
ATOM     12  C   UNL     1       7.097   4.667  17.202  0.00  0.00    +0.000 A 
ATOM     13  C   UNL     1       6.931   5.187  18.486  0.00  0.00    +0.000 A 
ATOM     14  C   UNL     1       5.648   5.415  18.988  0.00  0.00    +0.000 A 
ENDBRANCH   7   9
ENDBRANCH   1   7
BRANCH   4  15
ATOM     15  C   UNL     1       1.054  10.169  19.756  0.00  0.00    +0.000 C 
BRANCH  15  16
ATOM     16  C   UNL     1      -0.100  10.540  18.826  0.00  0.00    +0.000 A 
ATOM     17  C   UNL     1      -0.667  11.828  18.809  0.00  0.00    +0.000 A 
ATOM     18  C   UNL     1      -1.785  12.114  18.021  0.00  0.00    +0.000 A 
ATOM     19  C   UNL     1      -2.349  11.116  17.233  0.00  0.00    +0.000 A 
ATOM     20 CL   UNL     1      -3.748  11.459  16.293  0.00  0.00    +0.000 Cl
ATOM     21  C   UNL     1      -1.795   9.838  17.214  0.00  0.00    +0.000 A 
ATOM     22  C   UNL     1      -0.677   9.551  18.004  0.00  0.00    +0.000 A 
ENDBRANCH  15  16
BRANCH  15  23
ATOM     23  N   UNL     1       0.641   9.917  21.145  0.00  0.00    +0.000 N 
ATOM     24  C   UNL     1      -0.660   9.885  21.593  0.00  0.00    +0.000 A 
ATOM     25  C   UNL     1      -0.574   9.637  22.942  0.00  0.00    +0.000 A 
ATOM     26  N   UNL     1       0.732   9.539  23.333  0.00  0.00    +0.000 NA
ATOM     27  C   UNL     1       1.437   9.731  22.242  0.00  0.00    +0.000 A 
ENDBRANCH  15  23
ENDBRANCH   4  15
TORSDOF 5
ENDMDL
MODEL 9
REMARK VINA RESULT:      -8.3      4.329      7.498
REMARK  Name = 
REMARK  5 active torsions:
REMARK  status: ('A' for Active; 'I' for Inactive)
REMARK    1  A    between atoms: S_2  and  C_4
REMARK    2  A    between atoms: S_2  and  N_10
REMARK    3  A    between atoms: C_13  and  C_14
REMARK    4  A    between atoms: C_14  and  C_15
REMARK    5  A    between atoms: C_14  and  N_22
REMARK                            x       y       z     vdW  Elec       q    Type
REMARK                         _______ _______ _______ _____ _____    ______ ____
ROOT
ATOM      1  N   UNL     1       1.322   9.182  19.449  0.00  0.00    +0.000 N 
ATOM      2  C   UNL     1       1.362   8.507  20.638  0.00  0.00    +0.000 A 
ATOM      3  C   UNL     1       1.730   7.206  20.357  0.00  0.00    +0.000 A 
ATOM      4  C   UNL     1       1.964   7.099  18.946  0.00  0.00    +0.000 A 
ATOM      5  C   UNL     1       1.710   8.364  18.425  0.00  0.00    +0.000 A 
ENDROOT
BRANCH   1   7
ATOM      6  O   UNL     1       1.883  11.307  18.238  0.00  0.00    +0.000 OA
ATOM      7  S   UNL     1       0.972  10.838  19.266  0.00  0.00    +0.000 S 
ATOM      8  O   UNL     1       0.970  11.388  20.609  0.00  0.00    +0.000 OA
BRANCH   7   9
ATOM      9  C   UNL     1      -0.688  10.897  18.648  0.00  0.00    +0.000 A 
ATOM     10  C   UNL     1      -1.607  11.780  19.230  0.00  0.00    +0.000 A 
ATOM     11  C   UNL     1      -2.940  11.755  18.819  0.00  0.00    +0.000 A 
ATOM     12  C   UNL     1      -3.351  10.855  17.836  0.00  0.00    +0.000 A 
ATOM     13  C   UNL     1      -2.433   9.978  17.258  0.00  0.00    +0.000 A 
ATOM     14  C   UNL     1      -1.098   9.992  17.666  0.00  0.00    +0.000 A 
ENDBRANCH   7   9
ENDBRANCH   1   7
BRANCH   4  15
ATOM     15  C   UNL     1       2.403   5.855  18.199  0.00  0.00    +0.000 C 
BRANCH  15  16
ATOM     16  C   UNL     1       3.929   5.874  18.273  0.00  0.00    +0.000 A 
ATOM     17  C   UNL     1       4.640   5.210  19.290  0.00  0.00    +0.000 A 
ATOM     18  C   UNL     1       6.029   5.325  19.391  0.00  0.00    +0.000 A 
ATOM     19  C   UNL     1       6.729   6.100  18.472  0.00  0.00    +0.000 A 
ATOM     20 CL   UNL     1       8.434   6.270  18.620  0.00  0.00    +0.000 Cl
ATOM     21  C   UNL     1       6.053   6.749  17.442  0.00  0.00    +0.000 A 
ATOM     22  C   UNL     1       4.662   6.637  17.341  0.00  0.00    +0.000 A 
ENDBRANCH  15  16
BRANCH  15  23
ATOM     23  N   UNL     1       1.799   4.615  18.707  0.00  0.00    +0.000 N 
ATOM     24  C   UNL     1       1.569   3.480  17.962  0.00  0.00    +0.000 A 
ATOM     25  C   UNL     1       0.984   2.589  18.828  0.00  0.00    +0.000 A 
ATOM     26  N   UNL     1       0.830   3.147  20.066  0.00  0.00    +0.000 NA
ATOM     27  C   UNL     1       1.307   4.366  19.959  0.00  0.00    +0.000 A 
ENDBRANCH  15  23
ENDBRANCH   4  15
TORSDOF 5
ENDMDL
