MODEL 1
REMARK VINA RESULT:      -6.5      0.000      0.000
REMARK  Name = 
REMARK  6 active torsions:
REMARK  status: ('A' for Active; 'I' for Inactive)
REMARK    1  A    between atoms: C_1  and  C_2
REMARK    2  A    between atoms: C_5  and  C_6
REMARK    3  A    between atoms: C_6  and  O_8
REMARK    4  A    between atoms: N_11  and  O_12
REMARK    5  A    between atoms: C_13  and  C_14
REMARK    6  A    between atoms: C_13  and  C_15
REMARK                            x       y       z     vdW  Elec       q    Type
REMARK                         _______ _______ _______ _____ _____    ______ ____
ROOT
ATOM      1  C   UNL     1       3.393   6.828  18.149  0.00  0.00    +0.000 C 
ATOM      2  C   UNL     1       3.419   5.467  18.807  0.00  0.00    +0.000 C 
ATOM      3  C   UNL     1       2.571   5.352  20.098  0.00  0.00    +0.000 C 
ATOM      4  C   UNL     1       2.436   3.823  20.294  0.00  0.00    +0.000 C 
ATOM      5  C   UNL     1       3.262   3.235  19.117  0.00  0.00    +0.000 C 
ATOM      6  C   UNL     1       4.763   3.474  19.440  0.00  0.00    +0.000 C 
ATOM      7  C   UNL     1       4.796   4.974  19.243  0.00  0.00    +0.000 C 
ATOM      8  N   UNL     1       5.801   5.763  19.442  0.00  0.00    +0.000 NA
ATOM      9  C   UNL     1       2.960   4.247  17.956  0.00  0.00    +0.000 C 
ATOM     10  C   UNL     1       3.791   4.043  16.669  0.00  0.00    +0.000 C 
ATOM     11  C   UNL     1       1.479   4.325  17.520  0.00  0.00    +0.000 C 
ENDROOT
BRANCH   5  12
ATOM     12  C   UNL     1       2.957   1.781  18.817  0.00  0.00    +0.000 C 
ATOM     13  O   UNL     1       3.771   0.962  18.424  0.00  0.00    +0.000 OA
BRANCH  12  14
ATOM     14  O   UNL     1       1.667   1.441  19.029  0.00  0.00    +0.000 OA
ATOM     15  H   UNL     1       1.072   1.561  18.266  0.00  0.00    +0.000 HD
ENDBRANCH  12  14
ENDBRANCH   5  12
BRANCH   8  16
ATOM     16  O   UNL     1       6.923   5.038  19.855  0.00  0.00    +0.000 OA
ATOM     17  H   UNL     1       6.523   4.313  20.371  0.00  0.00    +0.000 HD
ENDBRANCH   8  16
TORSDOF 3
ENDMDL
MODEL 2
REMARK VINA RESULT:      -6.3      2.387      3.444
REMARK  Name = 
REMARK  6 active torsions:
REMARK  status: ('A' for Active; 'I' for Inactive)
REMARK    1  A    between atoms: C_1  and  C_2
REMARK    2  A    between atoms: C_5  and  C_6
REMARK    3  A    between atoms: C_6  and  O_8
REMARK    4  A    between atoms: N_11  and  O_12
REMARK    5  A    between atoms: C_13  and  C_14
REMARK    6  A    between atoms: C_13  and  C_15
REMARK                            x       y       z     vdW  Elec       q    Type
REMARK                         _______ _______ _______ _____ _____    ______ ____
ROOT
ATOM      1  C   UNL     1       0.839   3.110  20.239  0.00  0.00    +0.000 C 
ATOM      2  C   UNL     1       2.168   3.652  19.764  0.00  0.00    +0.000 C 
ATOM      3  C   UNL     1       3.409   3.001  20.423  0.00  0.00    +0.000 C 
ATOM      4  C   UNL     1       4.564   3.413  19.480  0.00  0.00    +0.000 C 
ATOM      5  C   UNL     1       3.860   4.294  18.412  0.00  0.00    +0.000 C 
ATOM      6  C   UNL     1       3.496   5.642  19.090  0.00  0.00    +0.000 C 
ATOM      7  C   UNL     1       2.388   5.144  19.993  0.00  0.00    +0.000 C 
ATOM      8  N   UNL     1       1.730   5.832  20.869  0.00  0.00    +0.000 NA
ATOM      9  C   UNL     1       2.476   3.572  18.241  0.00  0.00    +0.000 C 
ATOM     10  C   UNL     1       1.446   4.317  17.361  0.00  0.00    +0.000 C 
ATOM     11  C   UNL     1       2.552   2.124  17.705  0.00  0.00    +0.000 C 
ENDROOT
BRANCH   5  12
ATOM     12  C   UNL     1       4.664   4.481  17.141  0.00  0.00    +0.000 C 
ATOM     13  O   UNL     1       4.620   5.467  16.425  0.00  0.00    +0.000 OA
BRANCH  12  14
ATOM     14  O   UNL     1       5.470   3.438  16.849  0.00  0.00    +0.000 OA
ATOM     15  H   UNL     1       5.193   2.896  16.087  0.00  0.00    +0.000 HD
ENDBRANCH  12  14
ENDBRANCH   5  12
BRANCH   8  16
ATOM     16  O   UNL     1       2.157   7.163  20.874  0.00  0.00    +0.000 OA
ATOM     17  H   UNL     1       1.563   7.570  21.533  0.00  0.00    +0.000 HD
ENDBRANCH   8  16
TORSDOF 3
ENDMDL
MODEL 3
REMARK VINA RESULT:      -6.3      2.002      2.662
REMARK  Name = 
REMARK  6 active torsions:
REMARK  status: ('A' for Active; 'I' for Inactive)
REMARK    1  A    between atoms: C_1  and  C_2
REMARK    2  A    between atoms: C_5  and  C_6
REMARK    3  A    between atoms: C_6  and  O_8
REMARK    4  A    between atoms: N_11  and  O_12
REMARK    5  A    between atoms: C_13  and  C_14
REMARK    6  A    between atoms: C_13  and  C_15
REMARK                            x       y       z     vdW  Elec       q    Type
REMARK                         _______ _______ _______ _____ _____    ______ ____
ROOT
ATOM      1  C   UNL     1       3.426   6.778  17.374  0.00  0.00    +0.000 C 
ATOM      2  C   UNL     1       3.155   5.471  18.084  0.00  0.00    +0.000 C 
ATOM      3  C   UNL     1       2.041   4.604  17.448  0.00  0.00    +0.000 C 
ATOM      4  C   UNL     1       2.274   3.213  18.083  0.00  0.00    +0.000 C 
ATOM      5  C   UNL     1       3.468   3.453  19.048  0.00  0.00    +0.000 C 
ATOM      6  C   UNL     1       2.932   4.274  20.252  0.00  0.00    +0.000 C 
ATOM      7  C   UNL     1       2.719   5.594  19.542  0.00  0.00    +0.000 C 
ATOM      8  N   UNL     1       2.209   6.673  20.042  0.00  0.00    +0.000 NA
ATOM      9  C   UNL     1       4.344   4.481  18.249  0.00  0.00    +0.000 C 
ATOM     10  C   UNL     1       5.541   5.074  19.026  0.00  0.00    +0.000 C 
ATOM     11  C   UNL     1       4.902   3.964  16.903  0.00  0.00    +0.000 C 
ENDROOT
BRANCH   5  12
ATOM     12  C   UNL     1       4.175   2.184  19.480  0.00  0.00    +0.000 C 
ATOM     13  O   UNL     1       4.830   2.061  20.501  0.00  0.00    +0.000 OA
BRANCH  12  14
ATOM     14  O   UNL     1       4.017   1.153  18.620  0.00  0.00    +0.000 OA
ATOM     15  H   UNL     1       3.211   1.185  18.072  0.00  0.00    +0.000 HD
ENDBRANCH  12  14
ENDBRANCH   5  12
BRANCH   8  16
ATOM     16  O   UNL     1       1.884   6.487  21.388  0.00  0.00    +0.000 OA
ATOM     17  H   UNL     1       1.033   6.959  21.463  0.00  0.00    +0.000 HD
ENDBRANCH   8  16
TORSDOF 3
ENDMDL
MODEL 4
REMARK VINA RESULT:      -6.3      2.338      3.396
REMARK  Name = 
REMARK  6 active torsions:
REMARK  status: ('A' for Active; 'I' for Inactive)
REMARK    1  A    between atoms: C_1  and  C_2
REMARK    2  A    between atoms: C_5  and  C_6
REMARK    3  A    between atoms: C_6  and  O_8
REMARK    4  A    between atoms: N_11  and  O_12
REMARK    5  A    between atoms: C_13  and  C_14
REMARK    6  A    between atoms: C_13  and  C_15
REMARK                            x       y       z     vdW  Elec       q    Type
REMARK                         _______ _______ _______ _____ _____    ______ ____
ROOT
ATOM      1  C   UNL     1       1.278   3.584  20.770  0.00  0.00    +0.000 C 
ATOM      2  C   UNL     1       2.282   3.239  19.693  0.00  0.00    +0.000 C 
ATOM      3  C   UNL     1       1.792   2.199  18.655  0.00  0.00    +0.000 C 
ATOM      4  C   UNL     1       2.798   2.363  17.492  0.00  0.00    +0.000 C 
ATOM      5  C   UNL     1       3.780   3.447  18.015  0.00  0.00    +0.000 C 
ATOM      6  C   UNL     1       4.657   2.786  19.114  0.00  0.00    +0.000 C 
ATOM      7  C   UNL     1       3.600   2.650  20.189  0.00  0.00    +0.000 C 
ATOM      8  N   UNL     1       3.736   2.090  21.347  0.00  0.00    +0.000 NA
ATOM      9  C   UNL     1       2.828   4.403  18.817  0.00  0.00    +0.000 C 
ATOM     10  C   UNL     1       3.536   5.511  19.630  0.00  0.00    +0.000 C 
ATOM     11  C   UNL     1       1.736   5.101  17.975  0.00  0.00    +0.000 C 
ENDROOT
BRANCH   5  12
ATOM     12  C   UNL     1       4.608   4.104  16.929  0.00  0.00    +0.000 C 
ATOM     13  O   UNL     1       4.477   5.256  16.550  0.00  0.00    +0.000 OA
BRANCH  12  14
ATOM     14  O   UNL     1       5.543   3.291  16.391  0.00  0.00    +0.000 OA
ATOM     15  H   UNL     1       5.528   3.224  15.418  0.00  0.00    +0.000 HD
ENDBRANCH  12  14
ENDBRANCH   5  12
BRANCH   8  16
ATOM     16  O   UNL     1       5.042   1.623  21.519  0.00  0.00    +0.000 OA
ATOM     17  H   UNL     1       5.023   0.771  21.043  0.00  0.00    +0.000 HD
ENDBRANCH   8  16
TORSDOF 3
ENDMDL
MODEL 5
REMARK VINA RESULT:      -6.2      1.696      2.377
REMARK  Name = 
REMARK  6 active torsions:
REMARK  status: ('A' for Active; 'I' for Inactive)
REMARK    1  A    between atoms: C_1  and  C_2
REMARK    2  A    between atoms: C_5  and  C_6
REMARK    3  A    between atoms: C_6  and  O_8
REMARK    4  A    between atoms: N_11  and  O_12
REMARK    5  A    between atoms: C_13  and  C_14
REMARK    6  A    between atoms: C_13  and  C_15
REMARK                            x       y       z     vdW  Elec       q    Type
REMARK                         _______ _______ _______ _____ _____    ______ ____
ROOT
ATOM      1  C   UNL     1       3.276   6.979  18.222  0.00  0.00    +0.000 C 
ATOM      2  C   UNL     1       3.757   5.547  18.288  0.00  0.00    +0.000 C 
ATOM      3  C   UNL     1       4.839   5.272  19.361  0.00  0.00    +0.000 C 
ATOM      4  C   UNL     1       4.819   3.731  19.492  0.00  0.00    +0.000 C 
ATOM      5  C   UNL     1       3.758   3.294  18.445  0.00  0.00    +0.000 C 
ATOM      6  C   UNL     1       4.386   3.492  17.039  0.00  0.00    +0.000 C 
ATOM      7  C   UNL     1       4.383   5.005  17.006  0.00  0.00    +0.000 C 
ATOM      8  N   UNL     1       4.864   5.764  16.075  0.00  0.00    +0.000 NA
ATOM      9  C   UNL     1       2.692   4.442  18.547  0.00  0.00    +0.000 C 
ATOM     10  C   UNL     1       1.571   4.399  17.484  0.00  0.00    +0.000 C 
ATOM     11  C   UNL     1       1.995   4.571  19.921  0.00  0.00    +0.000 C 
ENDROOT
BRANCH   5  12
ATOM     12  C   UNL     1       3.231   1.888  18.653  0.00  0.00    +0.000 C 
ATOM     13  O   UNL     1       2.095   1.611  19.002  0.00  0.00    +0.000 OA
BRANCH  12  14
ATOM     14  O   UNL     1       4.144   0.923  18.408  0.00  0.00    +0.000 OA
ATOM     15  H   UNL     1       4.643   1.020  17.576  0.00  0.00    +0.000 HD
ENDBRANCH  12  14
ENDBRANCH   5  12
BRANCH   8  16
ATOM     16  O   UNL     1       5.391   4.995  15.035  0.00  0.00    +0.000 OA
ATOM     17  H   UNL     1       4.755   4.257  14.978  0.00  0.00    +0.000 HD
ENDBRANCH   8  16
TORSDOF 3
ENDMDL
MODEL 6
REMARK VINA RESULT:      -6.1      3.217      4.914
REMARK  Name = 
REMARK  6 active torsions:
REMARK  status: ('A' for Active; 'I' for Inactive)
REMARK    1  A    between atoms: C_1  and  C_2
REMARK    2  A    between atoms: C_5  and  C_6
REMARK    3  A    between atoms: C_6  and  O_8
REMARK    4  A    between atoms: N_11  and  O_12
REMARK    5  A    between atoms: C_13  and  C_14
REMARK    6  A    between atoms: C_13  and  C_15
REMARK                            x       y       z     vdW  Elec       q    Type
REMARK                         _______ _______ _______ _____ _____    ______ ____
ROOT
ATOM      1  C   UNL     1       5.329   5.809  19.343  0.00  0.00    +0.000 C 
ATOM      2  C   UNL     1       5.325   5.494  17.864  0.00  0.00    +0.000 C 
ATOM      3  C   UNL     1       4.483   6.461  16.995  0.00  0.00    +0.000 C 
ATOM      4  C   UNL     1       4.992   6.178  15.562  0.00  0.00    +0.000 C 
ATOM      5  C   UNL     1       6.037   5.047  15.768  0.00  0.00    +0.000 C 
ATOM      6  C   UNL     1       5.254   3.747  16.097  0.00  0.00    +0.000 C 
ATOM      7  C   UNL     1       4.785   4.117  17.487  0.00  0.00    +0.000 C 
ATOM      8  N   UNL     1       4.010   3.424  18.257  0.00  0.00    +0.000 NA
ATOM      9  C   UNL     1       6.699   5.445  17.134  0.00  0.00    +0.000 C 
ATOM     10  C   UNL     1       7.677   4.403  17.724  0.00  0.00    +0.000 C 
ATOM     11  C   UNL     1       7.442   6.801  17.135  0.00  0.00    +0.000 C 
ENDROOT
BRANCH   5  12
ATOM     12  C   UNL     1       6.991   4.871  14.603  0.00  0.00    +0.000 C 
ATOM     13  O   UNL     1       7.915   5.622  14.336  0.00  0.00    +0.000 OA
BRANCH  12  14
ATOM     14  O   UNL     1       6.739   3.776  13.854  0.00  0.00    +0.000 OA
ATOM     15  H   UNL     1       6.413   2.999  14.345  0.00  0.00    +0.000 HD
ENDBRANCH  12  14
ENDBRANCH   5  12
BRANCH   8  16
ATOM     16  O   UNL     1       3.655   2.219  17.645  0.00  0.00    +0.000 OA
ATOM     17  H   UNL     1       2.864   1.954  18.150  0.00  0.00    +0.000 HD
ENDBRANCH   8  16
TORSDOF 3
ENDMDL
MODEL 7
REMARK VINA RESULT:      -6.1      2.445      4.023
REMARK  Name = 
REMARK  6 active torsions:
REMARK  status: ('A' for Active; 'I' for Inactive)
REMARK    1  A    between atoms: C_1  and  C_2
REMARK    2  A    between atoms: C_5  and  C_6
REMARK    3  A    between atoms: C_6  and  O_8
REMARK    4  A    between atoms: N_11  and  O_12
REMARK    5  A    between atoms: C_13  and  C_14
REMARK    6  A    between atoms: C_13  and  C_15
REMARK                            x       y       z     vdW  Elec       q    Type
REMARK                         _______ _______ _______ _____ _____    ______ ____
ROOT
ATOM      1  C   UNL     1       3.508   1.695  18.539  0.00  0.00    +0.000 C 
ATOM      2  C   UNL     1       3.620   3.131  18.999  0.00  0.00    +0.000 C 
ATOM      3  C   UNL     1       5.064   3.615  19.276  0.00  0.00    +0.000 C 
ATOM      4  C   UNL     1       4.920   5.155  19.300  0.00  0.00    +0.000 C 
ATOM      5  C   UNL     1       3.399   5.378  19.078  0.00  0.00    +0.000 C 
ATOM      6  C   UNL     1       2.674   4.963  20.388  0.00  0.00    +0.000 C 
ATOM      7  C   UNL     1       2.879   3.467  20.290  0.00  0.00    +0.000 C 
ATOM      8  N   UNL     1       2.534   2.576  21.162  0.00  0.00    +0.000 NA
ATOM      9  C   UNL     1       3.035   4.233  18.067  0.00  0.00    +0.000 C 
ATOM     10  C   UNL     1       1.527   4.062  17.776  0.00  0.00    +0.000 C 
ATOM     11  C   UNL     1       3.745   4.317  16.697  0.00  0.00    +0.000 C 
ENDROOT
BRANCH   5  12
ATOM     12  C   UNL     1       3.040   6.782  18.636  0.00  0.00    +0.000 C 
ATOM     13  O   UNL     1       3.479   7.336  17.642  0.00  0.00    +0.000 OA
BRANCH  12  14
ATOM     14  O   UNL     1       2.159   7.401  19.451  0.00  0.00    +0.000 OA
ATOM     15  H   UNL     1       1.574   6.811  19.961  0.00  0.00    +0.000 HD
ENDBRANCH  12  14
ENDBRANCH   5  12
BRANCH   8  16
ATOM     16  O   UNL     1       1.894   3.173  22.251  0.00  0.00    +0.000 OA
ATOM     17  H   UNL     1       1.965   2.484  22.939  0.00  0.00    +0.000 HD
ENDBRANCH   8  16
TORSDOF 3
ENDMDL
MODEL 8
REMARK VINA RESULT:      -6.1      2.206      2.777
REMARK  Name = 
REMARK  6 active torsions:
REMARK  status: ('A' for Active; 'I' for Inactive)
REMARK    1  A    between atoms: C_1  and  C_2
REMARK    2  A    between atoms: C_5  and  C_6
REMARK    3  A    between atoms: C_6  and  O_8
REMARK    4  A    between atoms: N_11  and  O_12
REMARK    5  A    between atoms: C_13  and  C_14
REMARK    6  A    between atoms: C_13  and  C_15
REMARK                            x       y       z     vdW  Elec       q    Type
REMARK                         _______ _______ _______ _____ _____    ______ ____
ROOT
ATOM      1  C   UNL     1       3.458   6.837  17.362  0.00  0.00    +0.000 C 
ATOM      2  C   UNL     1       3.010   5.722  18.279  0.00  0.00    +0.000 C 
ATOM      3  C   UNL     1       1.818   4.885  17.752  0.00  0.00    +0.000 C 
ATOM      4  C   UNL     1       1.862   3.616  18.636  0.00  0.00    +0.000 C 
ATOM      5  C   UNL     1       3.047   3.891  19.602  0.00  0.00    +0.000 C 
ATOM      6  C   UNL     1       2.580   4.975  20.611  0.00  0.00    +0.000 C 
ATOM      7  C   UNL     1       2.549   6.158  19.667  0.00  0.00    +0.000 C 
ATOM      8  N   UNL     1       2.160   7.361  19.940  0.00  0.00    +0.000 NA
ATOM      9  C   UNL     1       4.065   4.649  18.678  0.00  0.00    +0.000 C 
ATOM     10  C   UNL     1       5.302   5.234  19.396  0.00  0.00    +0.000 C 
ATOM     11  C   UNL     1       4.595   3.834  17.476  0.00  0.00    +0.000 C 
ENDROOT
BRANCH   5  12
ATOM     12  C   UNL     1       3.582   2.651  20.288  0.00  0.00    +0.000 C 
ATOM     13  O   UNL     1       4.346   1.845  19.782  0.00  0.00    +0.000 OA
BRANCH  12  14
ATOM     14  O   UNL     1       3.140   2.496  21.555  0.00  0.00    +0.000 OA
ATOM     15  H   UNL     1       2.427   3.103  21.826  0.00  0.00    +0.000 HD
ENDBRANCH  12  14
ENDBRANCH   5  12
BRANCH   8  16
ATOM     16  O   UNL     1       1.776   7.463  21.280  0.00  0.00    +0.000 OA
ATOM     17  H   UNL     1       0.944   6.951  21.297  0.00  0.00    +0.000 HD
ENDBRANCH   8  16
TORSDOF 3
ENDMDL
MODEL 9
REMARK VINA RESULT:      -6.1      1.970      3.165
REMARK  Name = 
REMARK  6 active torsions:
REMARK  status: ('A' for Active; 'I' for Inactive)
REMARK    1  A    between atoms: C_1  and  C_2
REMARK    2  A    between atoms: C_5  and  C_6
REMARK    3  A    between atoms: C_6  and  O_8
REMARK    4  A    between atoms: N_11  and  O_12
REMARK    5  A    between atoms: C_13  and  C_14
REMARK    6  A    between atoms: C_13  and  C_15
REMARK                            x       y       z     vdW  Elec       q    Type
REMARK                         _______ _______ _______ _____ _____    ______ ____
ROOT
ATOM      1  C   UNL     1       5.656   3.520  15.931  0.00  0.00    +0.000 C 
ATOM      2  C   UNL     1       5.168   4.444  17.024  0.00  0.00    +0.000 C 
ATOM      3  C   UNL     1       4.758   5.858  16.546  0.00  0.00    +0.000 C 
ATOM      4  C   UNL     1       3.930   6.404  17.733  0.00  0.00    +0.000 C 
ATOM      5  C   UNL     1       3.998   5.256  18.777  0.00  0.00    +0.000 C 
ATOM      6  C   UNL     1       5.437   5.246  19.361  0.00  0.00    +0.000 C 
ATOM      7  C   UNL     1       6.167   4.724  18.143  0.00  0.00    +0.000 C 
ATOM      8  N   UNL     1       7.444   4.563  18.010  0.00  0.00    +0.000 NA
ATOM      9  C   UNL     1       3.949   3.975  17.872  0.00  0.00    +0.000 C 
ATOM     10  C   UNL     1       4.185   2.636  18.607  0.00  0.00    +0.000 C 
ATOM     11  C   UNL     1       2.656   3.804  17.043  0.00  0.00    +0.000 C 
ENDROOT
BRANCH   5  12
ATOM     12  C   UNL     1       2.935   5.340  19.854  0.00  0.00    +0.000 C 
ATOM     13  O   UNL     1       2.305   4.391  20.290  0.00  0.00    +0.000 OA
BRANCH  12  14
ATOM     14  O   UNL     1       2.729   6.591  20.320  0.00  0.00    +0.000 OA
ATOM     15  H   UNL     1       2.347   7.218  19.678  0.00  0.00    +0.000 HD
ENDBRANCH  12  14
ENDBRANCH   5  12
BRANCH   8  16
ATOM     16  O   UNL     1       8.110   4.918  19.186  0.00  0.00    +0.000 OA
ATOM     17  H   UNL     1       8.966   4.459  19.087  0.00  0.00    +0.000 HD
ENDBRANCH   8  16
TORSDOF 3
ENDMDL
