MODEL 1
REMARK VINA RESULT:      -7.4      0.000      0.000
REMARK  Name = 
REMARK  10 active torsions:
REMARK  status: ('A' for Active; 'I' for Inactive)
REMARK    1  A    between atoms: C_1  and  C_2
REMARK    2  A    between atoms: C_2  and  C_3
REMARK    3  A    between atoms: C_3  and  O_4
REMARK    4  A    between atoms: O_4  and  C_5
REMARK    5  A    between atoms: C_8  and  C_9
REMARK    6  A    between atoms: C_9  and  C_10
REMARK    7  A    between atoms: C_9  and  N_11
REMARK    8  A    between atoms: C_12  and  C_14
REMARK    9  A    between atoms: C_14  and  C_15
REMARK   10  A    between atoms: C_18  and  C_19
REMARK                            x       y       z     vdW  Elec       q    Type
REMARK                         _______ _______ _______ _____ _____    ______ ____
ROOT
ATOM      1  N   UNL     1       4.309   5.834  18.354  0.00  0.00    +0.000 N 
ATOM      2  C   UNL     1       5.307   4.929  18.628  0.00  0.00    +0.000 C 
ATOM      3  O   UNL     1       5.173   4.011  19.436  0.00  0.00    +0.000 OA
ATOM      4  H   UNL     1       4.532   6.701  17.873  0.00  0.00    +0.000 HD
ENDROOT
BRANCH   1   5
ATOM      5  C   UNL     1       3.028   5.794  19.055  0.00  0.00    +0.000 C 
ATOM      6  C   UNL     1       2.114   4.773  18.359  0.00  0.00    +0.000 C 
BRANCH   5  10
ATOM      7  C   UNL     1       1.106   9.643  19.346  0.00  0.00    +0.000 A 
ATOM      8  C   UNL     1       1.673   9.251  18.141  0.00  0.00    +0.000 A 
ATOM      9  C   UNL     1       2.298   8.011  18.042  0.00  0.00    +0.000 A 
ATOM     10  C   UNL     1       2.391   7.181  19.155  0.00  0.00    +0.000 A 
ATOM     11  N   UNL     1       1.852   7.554  20.356  0.00  0.00    +0.000 NA
ATOM     12  C   UNL     1       1.217   8.758  20.413  0.00  0.00    +0.000 A 
BRANCH   7  13
ATOM     13  O   UNL     1       0.447  10.822  19.563  0.00  0.00    +0.000 OA
BRANCH  13  14
ATOM     14  C   UNL     1       1.266  11.995  19.536  0.00  0.00    +0.000 C 
BRANCH  14  16
ATOM     15  C   UNL     1      -0.804  12.706  18.314  0.00  0.00    +0.000 C 
ATOM     16  C   UNL     1       0.656  13.026  18.596  0.00  0.00    +0.000 C 
ENDBRANCH  14  16
ENDBRANCH  13  14
ENDBRANCH   7  13
ENDBRANCH   5  10
ENDBRANCH   1   5
BRANCH   2  17
ATOM     17  C   UNL     1       6.582   5.116  17.826  0.00  0.00    +0.000 C 
BRANCH  17  18
ATOM     18  C   UNL     1       6.438   4.702  16.383  0.00  0.00    +0.000 A 
ATOM     19  C   UNL     1       7.383   5.097  15.431  0.00  0.00    +0.000 A 
ATOM     20  C   UNL     1       7.223   4.749  14.085  0.00  0.00    +0.000 A 
ATOM     21  C   UNL     1       6.129   3.990  13.646  0.00  0.00    +0.000 A 
ATOM     22  C   UNL     1       5.205   3.574  14.619  0.00  0.00    +0.000 A 
ATOM     23  C   UNL     1       5.357   3.916  15.968  0.00  0.00    +0.000 A 
BRANCH  21  24
ATOM     24  C   UNL     1       5.927   3.699  12.179  0.00  0.00    +0.000 C 
ATOM     25  C   UNL     1       5.814   2.268  11.705  0.00  0.00    +0.000 C 
ATOM     26  C   UNL     1       4.615   3.166  11.657  0.00  0.00    +0.000 C 
ENDBRANCH  21  24
ENDBRANCH  17  18
ENDBRANCH   2  17
TORSDOF 8
ENDMDL
MODEL 2
REMARK VINA RESULT:      -7.2      2.010      8.600
REMARK  Name = 
REMARK  10 active torsions:
REMARK  status: ('A' for Active; 'I' for Inactive)
REMARK    1  A    between atoms: C_1  and  C_2
REMARK    2  A    between atoms: C_2  and  C_3
REMARK    3  A    between atoms: C_3  and  O_4
REMARK    4  A    between atoms: O_4  and  C_5
REMARK    5  A    between atoms: C_8  and  C_9
REMARK    6  A    between atoms: C_9  and  C_10
REMARK    7  A    between atoms: C_9  and  N_11
REMARK    8  A    between atoms: C_12  and  C_14
REMARK    9  A    between atoms: C_14  and  C_15
REMARK   10  A    between atoms: C_18  and  C_19
REMARK                            x       y       z     vdW  Elec       q    Type
REMARK                         _______ _______ _______ _____ _____    ______ ____
ROOT
ATOM      1  N   UNL     1       4.889   5.821  17.816  0.00  0.00    +0.000 N 
ATOM      2  C   UNL     1       4.641   5.531  19.137  0.00  0.00    +0.000 C 
ATOM      3  O   UNL     1       5.537   5.338  19.957  0.00  0.00    +0.000 OA
ATOM      4  H   UNL     1       4.141   5.738  17.132  0.00  0.00    +0.000 HD
ENDROOT
BRANCH   1   5
ATOM      5  C   UNL     1       6.249   5.865  17.285  0.00  0.00    +0.000 C 
ATOM      6  C   UNL     1       6.703   7.331  17.209  0.00  0.00    +0.000 C 
BRANCH   5  10
ATOM      7  C   UNL     1       6.497   3.948  13.431  0.00  0.00    +0.000 A 
ATOM      8  C   UNL     1       5.603   3.467  14.378  0.00  0.00    +0.000 A 
ATOM      9  C   UNL     1       5.522   4.079  15.626  0.00  0.00    +0.000 A 
ATOM     10  C   UNL     1       6.358   5.145  15.940  0.00  0.00    +0.000 A 
ATOM     11  N   UNL     1       7.256   5.627  15.027  0.00  0.00    +0.000 NA
ATOM     12  C   UNL     1       7.288   5.028  13.803  0.00  0.00    +0.000 A 
BRANCH   7  13
ATOM     13  O   UNL     1       6.653   3.449  12.167  0.00  0.00    +0.000 OA
BRANCH  13  14
ATOM     14  C   UNL     1       5.528   2.731  11.649  0.00  0.00    +0.000 C 
BRANCH  14  16
ATOM     15  C   UNL     1       3.262   2.981  10.607  0.00  0.00    +0.000 C 
ATOM     16  C   UNL     1       4.474   3.715  11.159  0.00  0.00    +0.000 C 
ENDBRANCH  14  16
ENDBRANCH  13  14
ENDBRANCH   7  13
ENDBRANCH   5  10
ENDBRANCH   1   5
BRANCH   2  17
ATOM     17  C   UNL     1       3.174   5.509  19.526  0.00  0.00    +0.000 C 
BRANCH  17  18
ATOM     18  C   UNL     1       2.493   6.841  19.341  0.00  0.00    +0.000 A 
ATOM     19  C   UNL     1       2.445   7.447  18.081  0.00  0.00    +0.000 A 
ATOM     20  C   UNL     1       1.852   8.704  17.921  0.00  0.00    +0.000 A 
ATOM     21  C   UNL     1       1.279   9.391  19.001  0.00  0.00    +0.000 A 
ATOM     22  C   UNL     1       1.309   8.756  20.253  0.00  0.00    +0.000 A 
ATOM     23  C   UNL     1       1.899   7.497  20.423  0.00  0.00    +0.000 A 
BRANCH  21  24
ATOM     24  C   UNL     1       0.722  10.783  18.826  0.00  0.00    +0.000 C 
ATOM     25  C   UNL     1      -0.748  10.974  18.534  0.00  0.00    +0.000 C 
ATOM     26  C   UNL     1      -0.190  11.400  19.858  0.00  0.00    +0.000 C 
ENDBRANCH  21  24
ENDBRANCH  17  18
ENDBRANCH   2  17
TORSDOF 8
ENDMDL
MODEL 3
REMARK VINA RESULT:      -7.1      2.204      8.576
REMARK  Name = 
REMARK  10 active torsions:
REMARK  status: ('A' for Active; 'I' for Inactive)
REMARK    1  A    between atoms: C_1  and  C_2
REMARK    2  A    between atoms: C_2  and  C_3
REMARK    3  A    between atoms: C_3  and  O_4
REMARK    4  A    between atoms: O_4  and  C_5
REMARK    5  A    between atoms: C_8  and  C_9
REMARK    6  A    between atoms: C_9  and  C_10
REMARK    7  A    between atoms: C_9  and  N_11
REMARK    8  A    between atoms: C_12  and  C_14
REMARK    9  A    between atoms: C_14  and  C_15
REMARK   10  A    between atoms: C_18  and  C_19
REMARK                            x       y       z     vdW  Elec       q    Type
REMARK                         _______ _______ _______ _____ _____    ______ ____
ROOT
ATOM      1  N   UNL     1       5.326   5.973  18.234  0.00  0.00    +0.000 N 
ATOM      2  C   UNL     1       4.935   4.970  19.090  0.00  0.00    +0.000 C 
ATOM      3  O   UNL     1       5.660   4.019  19.379  0.00  0.00    +0.000 OA
ATOM      4  H   UNL     1       4.631   6.599  17.839  0.00  0.00    +0.000 HD
ENDROOT
BRANCH   1   5
ATOM      5  C   UNL     1       6.624   5.942  17.564  0.00  0.00    +0.000 C 
ATOM      6  C   UNL     1       7.192   7.370  17.519  0.00  0.00    +0.000 C 
BRANCH   5  10
ATOM      7  C   UNL     1       6.356   4.263  13.601  0.00  0.00    +0.000 A 
ATOM      8  C   UNL     1       5.304   4.091  14.490  0.00  0.00    +0.000 A 
ATOM      9  C   UNL     1       5.386   4.627  15.772  0.00  0.00    +0.000 A 
ATOM     10  C   UNL     1       6.533   5.301  16.179  0.00  0.00    +0.000 A 
ATOM     11  N   UNL     1       7.589   5.470  15.324  0.00  0.00    +0.000 NA
ATOM     12  C   UNL     1       7.464   4.964  14.065  0.00  0.00    +0.000 A 
BRANCH   7  13
ATOM     13  O   UNL     1       6.386   3.806  12.313  0.00  0.00    +0.000 OA
BRANCH  13  14
ATOM     14  C   UNL     1       5.443   2.772  12.009  0.00  0.00    +0.000 C 
BRANCH  14  16
ATOM     15  C   UNL     1       7.597   1.890  11.076  0.00  0.00    +0.000 C 
ATOM     16  C   UNL     1       6.082   1.754  11.074  0.00  0.00    +0.000 C 
ENDBRANCH  14  16
ENDBRANCH  13  14
ENDBRANCH   7  13
ENDBRANCH   5  10
ENDBRANCH   1   5
BRANCH   2  17
ATOM     17  C   UNL     1       3.553   5.142  19.692  0.00  0.00    +0.000 C 
BRANCH  17  18
ATOM     18  C   UNL     1       2.910   6.457  19.328  0.00  0.00    +0.000 A 
ATOM     19  C   UNL     1       2.232   7.208  20.293  0.00  0.00    +0.000 A 
ATOM     20  C   UNL     1       1.597   8.405  19.943  0.00  0.00    +0.000 A 
ATOM     21  C   UNL     1       1.627   8.898  18.630  0.00  0.00    +0.000 A 
ATOM     22  C   UNL     1       2.338   8.148  17.680  0.00  0.00    +0.000 A 
ATOM     23  C   UNL     1       2.978   6.949  18.021  0.00  0.00    +0.000 A 
BRANCH  21  24
ATOM     24  C   UNL     1       0.864  10.145  18.254  0.00  0.00    +0.000 C 
ATOM     25  C   UNL     1      -0.642  10.101  18.144  0.00  0.00    +0.000 C 
ATOM     26  C   UNL     1       0.001  10.871  19.257  0.00  0.00    +0.000 C 
ENDBRANCH  21  24
ENDBRANCH  17  18
ENDBRANCH   2  17
TORSDOF 8
ENDMDL
MODEL 4
REMARK VINA RESULT:      -7.0      3.195      8.602
REMARK  Name = 
REMARK  10 active torsions:
REMARK  status: ('A' for Active; 'I' for Inactive)
REMARK    1  A    between atoms: C_1  and  C_2
REMARK    2  A    between atoms: C_2  and  C_3
REMARK    3  A    between atoms: C_3  and  O_4
REMARK    4  A    between atoms: O_4  and  C_5
REMARK    5  A    between atoms: C_8  and  C_9
REMARK    6  A    between atoms: C_9  and  C_10
REMARK    7  A    between atoms: C_9  and  N_11
REMARK    8  A    between atoms: C_12  and  C_14
REMARK    9  A    between atoms: C_14  and  C_15
REMARK   10  A    between atoms: C_18  and  C_19
REMARK                            x       y       z     vdW  Elec       q    Type
REMARK                         _______ _______ _______ _____ _____    ______ ____
ROOT
ATOM      1  N   UNL     1       5.429   6.123  17.792  0.00  0.00    +0.000 N 
ATOM      2  C   UNL     1       4.632   6.966  17.052  0.00  0.00    +0.000 C 
ATOM      3  O   UNL     1       4.957   7.388  15.943  0.00  0.00    +0.000 OA
ATOM      4  H   UNL     1       5.241   5.991  18.782  0.00  0.00    +0.000 HD
ENDROOT
BRANCH   1   5
ATOM      5  C   UNL     1       6.751   5.714  17.324  0.00  0.00    +0.000 C 
ATOM      6  C   UNL     1       7.699   6.920  17.405  0.00  0.00    +0.000 C 
BRANCH   5  10
ATOM      7  C   UNL     1       6.530   4.114  13.325  0.00  0.00    +0.000 A 
ATOM      8  C   UNL     1       5.699   3.604  14.313  0.00  0.00    +0.000 A 
ATOM      9  C   UNL     1       5.769   4.113  15.607  0.00  0.00    +0.000 A 
ATOM     10  C   UNL     1       6.693   5.104  15.923  0.00  0.00    +0.000 A 
ATOM     11  N   UNL     1       7.532   5.612  14.968  0.00  0.00    +0.000 NA
ATOM     12  C   UNL     1       7.416   5.117  13.703  0.00  0.00    +0.000 A 
BRANCH   7  13
ATOM     13  O   UNL     1       6.542   3.715  12.017  0.00  0.00    +0.000 OA
BRANCH  13  14
ATOM     14  C   UNL     1       6.975   2.369  11.792  0.00  0.00    +0.000 C 
BRANCH  14  16
ATOM     15  C   UNL     1       6.178   0.054  11.257  0.00  0.00    +0.000 C 
ATOM     16  C   UNL     1       5.801   1.526  11.313  0.00  0.00    +0.000 C 
ENDBRANCH  14  16
ENDBRANCH  13  14
ENDBRANCH   7  13
ENDBRANCH   5  10
ENDBRANCH   1   5
BRANCH   2  17
ATOM     17  C   UNL     1       3.296   7.307  17.685  0.00  0.00    +0.000 C 
BRANCH  17  18
ATOM     18  C   UNL     1       2.693   6.156  18.450  0.00  0.00    +0.000 A 
ATOM     19  C   UNL     1       2.613   6.193  19.845  0.00  0.00    +0.000 A 
ATOM     20  C   UNL     1       2.094   5.104  20.555  0.00  0.00    +0.000 A 
ATOM     21  C   UNL     1       1.629   3.954  19.901  0.00  0.00    +0.000 A 
ATOM     22  C   UNL     1       1.687   3.945  18.498  0.00  0.00    +0.000 A 
ATOM     23  C   UNL     1       2.203   5.031  17.779  0.00  0.00    +0.000 A 
BRANCH  21  24
ATOM     24  C   UNL     1       1.154   2.756  20.687  0.00  0.00    +0.000 C 
ATOM     25  C   UNL     1       2.152   1.902  21.434  0.00  0.00    +0.000 C 
ATOM     26  C   UNL     1       1.176   2.746  22.196  0.00  0.00    +0.000 C 
ENDBRANCH  21  24
ENDBRANCH  17  18
ENDBRANCH   2  17
TORSDOF 8
ENDMDL
MODEL 5
REMARK VINA RESULT:      -6.9      0.947      1.620
REMARK  Name = 
REMARK  10 active torsions:
REMARK  status: ('A' for Active; 'I' for Inactive)
REMARK    1  A    between atoms: C_1  and  C_2
REMARK    2  A    between atoms: C_2  and  C_3
REMARK    3  A    between atoms: C_3  and  O_4
REMARK    4  A    between atoms: O_4  and  C_5
REMARK    5  A    between atoms: C_8  and  C_9
REMARK    6  A    between atoms: C_9  and  C_10
REMARK    7  A    between atoms: C_9  and  N_11
REMARK    8  A    between atoms: C_12  and  C_14
REMARK    9  A    between atoms: C_14  and  C_15
REMARK   10  A    between atoms: C_18  and  C_19
REMARK                            x       y       z     vdW  Elec       q    Type
REMARK                         _______ _______ _______ _____ _____    ______ ____
ROOT
ATOM      1  N   UNL     1       4.507   5.510  18.241  0.00  0.00    +0.000 N 
ATOM      2  C   UNL     1       5.549   4.683  18.593  0.00  0.00    +0.000 C 
ATOM      3  O   UNL     1       5.468   3.858  19.502  0.00  0.00    +0.000 OA
ATOM      4  H   UNL     1       4.684   6.325  17.661  0.00  0.00    +0.000 HD
ENDROOT
BRANCH   1   5
ATOM      5  C   UNL     1       3.241   5.496  18.970  0.00  0.00    +0.000 C 
ATOM      6  C   UNL     1       2.339   4.403  18.375  0.00  0.00    +0.000 C 
BRANCH   5  10
ATOM      7  C   UNL     1       1.487   9.435  18.982  0.00  0.00    +0.000 A 
ATOM      8  C   UNL     1       1.394   8.641  20.117  0.00  0.00    +0.000 A 
ATOM      9  C   UNL     1       1.954   7.367  20.118  0.00  0.00    +0.000 A 
ATOM     10  C   UNL     1       2.574   6.872  18.975  0.00  0.00    +0.000 A 
ATOM     11  N   UNL     1       2.665   7.631  17.840  0.00  0.00    +0.000 NA
ATOM     12  C   UNL     1       2.137   8.887  17.882  0.00  0.00    +0.000 A 
BRANCH   7  13
ATOM     13  O   UNL     1       0.999  10.707  18.865  0.00  0.00    +0.000 OA
BRANCH  13  14
ATOM     14  C   UNL     1       0.512  11.289  20.078  0.00  0.00    +0.000 C 
BRANCH  14  16
ATOM     15  C   UNL     1       0.532  13.436  21.373  0.00  0.00    +0.000 C 
ATOM     16  C   UNL     1       1.289  12.562  20.385  0.00  0.00    +0.000 C 
ENDBRANCH  14  16
ENDBRANCH  13  14
ENDBRANCH   7  13
ENDBRANCH   5  10
ENDBRANCH   1   5
BRANCH   2  17
ATOM     17  C   UNL     1       6.800   4.830  17.747  0.00  0.00    +0.000 C 
BRANCH  17  18
ATOM     18  C   UNL     1       6.556   4.574  16.281  0.00  0.00    +0.000 A 
ATOM     19  C   UNL     1       5.470   3.798  15.865  0.00  0.00    +0.000 A 
ATOM     20  C   UNL     1       5.271   3.524  14.508  0.00  0.00    +0.000 A 
ATOM     21  C   UNL     1       6.137   4.021  13.522  0.00  0.00    +0.000 A 
ATOM     22  C   UNL     1       7.205   4.825  13.954  0.00  0.00    +0.000 A 
ATOM     23  C   UNL     1       7.411   5.105  15.310  0.00  0.00    +0.000 A 
BRANCH  21  24
ATOM     24  C   UNL     1       5.958   3.644  12.072  0.00  0.00    +0.000 C 
ATOM     25  C   UNL     1       5.815   2.190  11.685  0.00  0.00    +0.000 C 
ATOM     26  C   UNL     1       4.643   3.114  11.555  0.00  0.00    +0.000 C 
ENDBRANCH  21  24
ENDBRANCH  17  18
ENDBRANCH   2  17
TORSDOF 8
ENDMDL
MODEL 6
REMARK VINA RESULT:      -6.9      2.712      9.918
REMARK  Name = 
REMARK  10 active torsions:
REMARK  status: ('A' for Active; 'I' for Inactive)
REMARK    1  A    between atoms: C_1  and  C_2
REMARK    2  A    between atoms: C_2  and  C_3
REMARK    3  A    between atoms: C_3  and  O_4
REMARK    4  A    between atoms: O_4  and  C_5
REMARK    5  A    between atoms: C_8  and  C_9
REMARK    6  A    between atoms: C_9  and  C_10
REMARK    7  A    between atoms: C_9  and  N_11
REMARK    8  A    between atoms: C_12  and  C_14
REMARK    9  A    between atoms: C_14  and  C_15
REMARK   10  A    between atoms: C_18  and  C_19
REMARK                            x       y       z     vdW  Elec       q    Type
REMARK                         _______ _______ _______ _____ _____    ______ ____
ROOT
ATOM      1  N   UNL     1       2.103   7.463  20.848  0.00  0.00    +0.000 N 
ATOM      2  C   UNL     1       0.966   8.061  21.339  0.00  0.00    +0.000 C 
ATOM      3  O   UNL     1      -0.165   7.634  21.110  0.00  0.00    +0.000 OA
ATOM      4  H   UNL     1       2.984   7.970  20.856  0.00  0.00    +0.000 HD
ENDROOT
BRANCH   1   5
ATOM      5  C   UNL     1       2.035   6.299  19.968  0.00  0.00    +0.000 C 
ATOM      6  C   UNL     1       1.785   5.047  20.822  0.00  0.00    +0.000 C 
BRANCH   5  10
ATOM      7  C   UNL     1       5.627   6.023  17.597  0.00  0.00    +0.000 A 
ATOM      8  C   UNL     1       4.571   6.806  17.151  0.00  0.00    +0.000 A 
ATOM      9  C   UNL     1       3.407   6.896  17.910  0.00  0.00    +0.000 A 
ATOM     10  C   UNL     1       3.283   6.175  19.093  0.00  0.00    +0.000 A 
ATOM     11  N   UNL     1       4.306   5.385  19.544  0.00  0.00    +0.000 NA
ATOM     12  C   UNL     1       5.445   5.345  18.797  0.00  0.00    +0.000 A 
BRANCH   7  13
ATOM     13  O   UNL     1       6.825   5.872  16.956  0.00  0.00    +0.000 OA
BRANCH  13  14
ATOM     14  C   UNL     1       7.020   4.609  16.313  0.00  0.00    +0.000 C 
BRANCH  14  16
ATOM     15  C   UNL     1       5.623   4.224  14.267  0.00  0.00    +0.000 C 
ATOM     16  C   UNL     1       6.932   4.782  14.803  0.00  0.00    +0.000 C 
ENDBRANCH  14  16
ENDBRANCH  13  14
ENDBRANCH   7  13
ENDBRANCH   5  10
ENDBRANCH   1   5
BRANCH   2  17
ATOM     17  C   UNL     1       1.207   9.268  22.226  0.00  0.00    +0.000 C 
BRANCH  17  18
ATOM     18  C   UNL     1       0.136  10.322  22.095  0.00  0.00    +0.000 A 
ATOM     19  C   UNL     1      -0.794  10.523  23.119  0.00  0.00    +0.000 A 
ATOM     20  C   UNL     1      -1.814  11.470  22.976  0.00  0.00    +0.000 A 
ATOM     21  C   UNL     1      -1.935  12.252  21.818  0.00  0.00    +0.000 A 
ATOM     22  C   UNL     1      -0.975  12.060  20.811  0.00  0.00    +0.000 A 
ATOM     23  C   UNL     1       0.051  11.116  20.946  0.00  0.00    +0.000 A 
BRANCH  21  24
ATOM     24  C   UNL     1      -3.092  13.206  21.645  0.00  0.00    +0.000 C 
ATOM     25  C   UNL     1      -4.324  12.764  20.889  0.00  0.00    +0.000 C 
ATOM     26  C   UNL     1      -4.400  12.992  22.368  0.00  0.00    +0.000 C 
ENDBRANCH  21  24
ENDBRANCH  17  18
ENDBRANCH   2  17
TORSDOF 8
ENDMDL
MODEL 7
REMARK VINA RESULT:      -6.9      1.097      1.469
REMARK  Name = 
REMARK  10 active torsions:
REMARK  status: ('A' for Active; 'I' for Inactive)
REMARK    1  A    between atoms: C_1  and  C_2
REMARK    2  A    between atoms: C_2  and  C_3
REMARK    3  A    between atoms: C_3  and  O_4
REMARK    4  A    between atoms: O_4  and  C_5
REMARK    5  A    between atoms: C_8  and  C_9
REMARK    6  A    between atoms: C_9  and  C_10
REMARK    7  A    between atoms: C_9  and  N_11
REMARK    8  A    between atoms: C_12  and  C_14
REMARK    9  A    between atoms: C_14  and  C_15
REMARK   10  A    between atoms: C_18  and  C_19
REMARK                            x       y       z     vdW  Elec       q    Type
REMARK                         _______ _______ _______ _____ _____    ______ ____
ROOT
ATOM      1  N   UNL     1       4.435   5.591  18.099  0.00  0.00    +0.000 N 
ATOM      2  C   UNL     1       5.626   5.036  18.505  0.00  0.00    +0.000 C 
ATOM      3  O   UNL     1       5.725   4.323  19.502  0.00  0.00    +0.000 OA
ATOM      4  H   UNL     1       4.436   6.353  17.426  0.00  0.00    +0.000 HD
ENDROOT
BRANCH   1   5
ATOM      5  C   UNL     1       3.206   5.409  18.868  0.00  0.00    +0.000 C 
ATOM      6  C   UNL     1       2.310   4.397  18.138  0.00  0.00    +0.000 C 
BRANCH   5  10
ATOM      7  C   UNL     1       1.336   9.225  19.602  0.00  0.00    +0.000 A 
ATOM      8  C   UNL     1       1.395   8.284  20.621  0.00  0.00    +0.000 A 
ATOM      9  C   UNL     1       1.993   7.049  20.389  0.00  0.00    +0.000 A 
ATOM     10  C   UNL     1       2.499   6.739  19.131  0.00  0.00    +0.000 A 
ATOM     11  N   UNL     1       2.440   7.646  18.108  0.00  0.00    +0.000 NA
ATOM     12  C   UNL     1       1.878   8.859  18.375  0.00  0.00    +0.000 A 
BRANCH   7  13
ATOM     13  O   UNL     1       0.797  10.477  19.712  0.00  0.00    +0.000 OA
BRANCH  13  14
ATOM     14  C   UNL     1      -0.428  10.553  20.448  0.00  0.00    +0.000 C 
BRANCH  14  16
ATOM     15  C   UNL     1       0.303  12.832  21.194  0.00  0.00    +0.000 C 
ATOM     16  C   UNL     1      -0.256  11.489  21.637  0.00  0.00    +0.000 C 
ENDBRANCH  14  16
ENDBRANCH  13  14
ENDBRANCH   7  13
ENDBRANCH   5  10
ENDBRANCH   1   5
BRANCH   2  17
ATOM     17  C   UNL     1       6.812   5.332  17.606  0.00  0.00    +0.000 C 
BRANCH  17  18
ATOM     18  C   UNL     1       6.622   4.834  16.195  0.00  0.00    +0.000 A 
ATOM     19  C   UNL     1       7.466   5.266  15.168  0.00  0.00    +0.000 A 
ATOM     20  C   UNL     1       7.260   4.838  13.852  0.00  0.00    +0.000 A 
ATOM     21  C   UNL     1       6.219   3.959  13.518  0.00  0.00    +0.000 A 
ATOM     22  C   UNL     1       5.399   3.510  14.566  0.00  0.00    +0.000 A 
ATOM     23  C   UNL     1       5.599   3.932  15.886  0.00  0.00    +0.000 A 
BRANCH  21  24
ATOM     24  C   UNL     1       5.958   3.577  12.081  0.00  0.00    +0.000 C 
ATOM     25  C   UNL     1       5.793   2.122  11.708  0.00  0.00    +0.000 C 
ATOM     26  C   UNL     1       4.616   3.046  11.641  0.00  0.00    +0.000 C 
ENDBRANCH  21  24
ENDBRANCH  17  18
ENDBRANCH   2  17
TORSDOF 8
ENDMDL
MODEL 8
REMARK VINA RESULT:      -6.9      2.225      8.292
REMARK  Name = 
REMARK  10 active torsions:
REMARK  status: ('A' for Active; 'I' for Inactive)
REMARK    1  A    between atoms: C_1  and  C_2
REMARK    2  A    between atoms: C_2  and  C_3
REMARK    3  A    between atoms: C_3  and  O_4
REMARK    4  A    between atoms: O_4  and  C_5
REMARK    5  A    between atoms: C_8  and  C_9
REMARK    6  A    between atoms: C_9  and  C_10
REMARK    7  A    between atoms: C_9  and  N_11
REMARK    8  A    between atoms: C_12  and  C_14
REMARK    9  A    between atoms: C_14  and  C_15
REMARK   10  A    between atoms: C_18  and  C_19
REMARK                            x       y       z     vdW  Elec       q    Type
REMARK                         _______ _______ _______ _____ _____    ______ ____
ROOT
ATOM      1  N   UNL     1       4.957   5.094  19.320  0.00  0.00    +0.000 N 
ATOM      2  C   UNL     1       4.041   4.138  19.695  0.00  0.00    +0.000 C 
ATOM      3  O   UNL     1       4.241   2.932  19.558  0.00  0.00    +0.000 OA
ATOM      4  H   UNL     1       4.665   6.063  19.228  0.00  0.00    +0.000 HD
ENDROOT
BRANCH   1   5
ATOM      5  C   UNL     1       6.218   4.733  18.677  0.00  0.00    +0.000 C 
ATOM      6  C   UNL     1       7.299   5.734  19.112  0.00  0.00    +0.000 C 
BRANCH   5  10
ATOM      7  C   UNL     1       5.785   4.347  14.404  0.00  0.00    +0.000 A 
ATOM      8  C   UNL     1       7.043   4.566  14.948  0.00  0.00    +0.000 A 
ATOM      9  C   UNL     1       7.189   4.696  16.326  0.00  0.00    +0.000 A 
ATOM     10  C   UNL     1       6.075   4.645  17.157  0.00  0.00    +0.000 A 
ATOM     11  N   UNL     1       4.823   4.444  16.642  0.00  0.00    +0.000 NA
ATOM     12  C   UNL     1       4.717   4.286  15.293  0.00  0.00    +0.000 A 
BRANCH   7  13
ATOM     13  O   UNL     1       5.516   4.181  13.073  0.00  0.00    +0.000 OA
BRANCH  13  14
ATOM     14  C   UNL     1       6.411   3.310  12.373  0.00  0.00    +0.000 C 
BRANCH  14  16
ATOM     15  C   UNL     1       6.528   1.185  11.048  0.00  0.00    +0.000 C 
ATOM     16  C   UNL     1       5.614   2.266  11.603  0.00  0.00    +0.000 C 
ENDBRANCH  14  16
ENDBRANCH  13  14
ENDBRANCH   7  13
ENDBRANCH   5  10
ENDBRANCH   1   5
BRANCH   2  17
ATOM     17  C   UNL     1       2.776   4.677  20.336  0.00  0.00    +0.000 C 
BRANCH  17  18
ATOM     18  C   UNL     1       2.378   6.032  19.809  0.00  0.00    +0.000 A 
ATOM     19  C   UNL     1       2.494   6.329  18.447  0.00  0.00    +0.000 A 
ATOM     20  C   UNL     1       2.167   7.602  17.968  0.00  0.00    +0.000 A 
ATOM     21  C   UNL     1       1.703   8.613  18.822  0.00  0.00    +0.000 A 
ATOM     22  C   UNL     1       1.561   8.290  20.181  0.00  0.00    +0.000 A 
ATOM     23  C   UNL     1       1.885   7.018  20.670  0.00  0.00    +0.000 A 
BRANCH  21  24
ATOM     24  C   UNL     1       1.437  10.005  18.301  0.00  0.00    +0.000 C 
ATOM     25  C   UNL     1       0.045  10.587  18.385  0.00  0.00    +0.000 C 
ATOM     26  C   UNL     1       1.140  11.151  19.238  0.00  0.00    +0.000 C 
ENDBRANCH  21  24
ENDBRANCH  17  18
ENDBRANCH   2  17
TORSDOF 8
ENDMDL
MODEL 9
REMARK VINA RESULT:      -6.8      4.428      6.598
REMARK  Name = 
REMARK  10 active torsions:
REMARK  status: ('A' for Active; 'I' for Inactive)
REMARK    1  A    between atoms: C_1  and  C_2
REMARK    2  A    between atoms: C_2  and  C_3
REMARK    3  A    between atoms: C_3  and  O_4
REMARK    4  A    between atoms: O_4  and  C_5
REMARK    5  A    between atoms: C_8  and  C_9
REMARK    6  A    between atoms: C_9  and  C_10
REMARK    7  A    between atoms: C_9  and  N_11
REMARK    8  A    between atoms: C_12  and  C_14
REMARK    9  A    between atoms: C_14  and  C_15
REMARK   10  A    between atoms: C_18  and  C_19
REMARK                            x       y       z     vdW  Elec       q    Type
REMARK                         _______ _______ _______ _____ _____    ______ ____
ROOT
ATOM      1  N   UNL     1       0.813   9.248  18.966  0.00  0.00    +0.000 N 
ATOM      2  C   UNL     1       1.931   9.549  18.223  0.00  0.00    +0.000 C 
ATOM      3  O   UNL     1       2.346  10.697  18.078  0.00  0.00    +0.000 OA
ATOM      4  H   UNL     1       0.371   8.338  18.867  0.00  0.00    +0.000 HD
ENDROOT
BRANCH   1   5
ATOM      5  C   UNL     1       0.008  10.293  19.593  0.00  0.00    +0.000 C 
ATOM      6  C   UNL     1      -0.317   9.871  21.034  0.00  0.00    +0.000 C 
BRANCH   5  10
ATOM      7  C   UNL     1      -3.605  11.132  17.392  0.00  0.00    +0.000 A 
ATOM      8  C   UNL     1      -2.728  10.162  16.925  0.00  0.00    +0.000 A 
ATOM      9  C   UNL     1      -1.558   9.890  17.629  0.00  0.00    +0.000 A 
ATOM     10  C   UNL     1      -1.245  10.611  18.776  0.00  0.00    +0.000 A 
ATOM     11  N   UNL     1      -2.088  11.581  19.247  0.00  0.00    +0.000 NA
ATOM     12  C   UNL     1      -3.241  11.801  18.556  0.00  0.00    +0.000 A 
BRANCH   7  13
ATOM     13  O   UNL     1      -4.792  11.473  16.805  0.00  0.00    +0.000 OA
BRANCH  13  14
ATOM     14  C   UNL     1      -5.746  12.094  17.673  0.00  0.00    +0.000 C 
BRANCH  14  16
ATOM     15  C   UNL     1      -7.155  11.398  19.626  0.00  0.00    +0.000 C 
ATOM     16  C   UNL     1      -6.705  11.044  18.217  0.00  0.00    +0.000 C 
ENDBRANCH  14  16
ENDBRANCH  13  14
ENDBRANCH   7  13
ENDBRANCH   5  10
ENDBRANCH   1   5
BRANCH   2  17
ATOM     17  C   UNL     1       2.647   8.351  17.626  0.00  0.00    +0.000 C 
BRANCH  17  18
ATOM     18  C   UNL     1       2.337   7.060  18.341  0.00  0.00    +0.000 A 
ATOM     19  C   UNL     1       2.358   6.997  19.738  0.00  0.00    +0.000 A 
ATOM     20  C   UNL     1       2.114   5.787  20.397  0.00  0.00    +0.000 A 
ATOM     21  C   UNL     1       1.830   4.609  19.692  0.00  0.00    +0.000 A 
ATOM     22  C   UNL     1       1.782   4.696  18.291  0.00  0.00    +0.000 A 
ATOM     23  C   UNL     1       2.023   5.902  17.622  0.00  0.00    +0.000 A 
BRANCH  21  24
ATOM     24  C   UNL     1       1.656   3.296  20.416  0.00  0.00    +0.000 C 
ATOM     25  C   UNL     1       2.868   2.556  20.933  0.00  0.00    +0.000 C 
ATOM     26  C   UNL     1       1.907   3.178  21.900  0.00  0.00    +0.000 C 
ENDBRANCH  21  24
ENDBRANCH  17  18
ENDBRANCH   2  17
TORSDOF 8
ENDMDL
