MODEL 1
REMARK VINA RESULT:      -7.4      0.000      0.000
REMARK  Name = 
REMARK  6 active torsions:
REMARK  status: ('A' for Active; 'I' for Inactive)
REMARK    1  A    between atoms: C_1  and  C_2
REMARK    2  A    between atoms: C_5  and  C_6
REMARK    3  A    between atoms: N_11  and  C_12
REMARK    4  A    between atoms: C_12  and  C_13
REMARK    5  A    between atoms: C_12  and  C_19
REMARK    6  A    between atoms: C_27  and  N_28
REMARK                            x       y       z     vdW  Elec       q    Type
REMARK                         _______ _______ _______ _____ _____    ______ ____
ROOT
ATOM      1  C   UNL     1       0.212  10.421  18.520  0.00  0.00    +0.000 C 
ATOM      2  O   UNL     1      -0.827  10.234  17.894  0.00  0.00    +0.000 OA
ATOM      3  N   UNL     1       0.610  11.674  19.004  0.00  0.00    +0.000 N 
ATOM      4  C   UNL     1      -0.297  12.774  18.683  0.00  0.00    +0.000 C 
ATOM      5  C   UNL     1      -0.027  14.041  19.501  0.00  0.00    +0.000 C 
ATOM      6  N   UNL     1       1.377  14.458  19.599  0.00  0.00    +0.000 NA
ATOM      7  C   UNL     1       2.221  13.332  19.997  0.00  0.00    +0.000 C 
ATOM      8  C   UNL     1       2.026  12.056  19.163  0.00  0.00    +0.000 C 
ENDROOT
BRANCH   1  13
ATOM      9  C   UNL     1       3.373   5.707  19.657  0.00  0.00    +0.000 C 
ATOM     10  C   UNL     1       2.592   6.956  19.384  0.00  0.00    +0.000 A 
ATOM     11  C   UNL     1       2.502   7.464  18.085  0.00  0.00    +0.000 A 
ATOM     12  C   UNL     1       1.777   8.626  17.833  0.00  0.00    +0.000 A 
ATOM     13  C   UNL     1       1.031   9.237  18.850  0.00  0.00    +0.000 A 
ATOM     14  C   UNL     1       1.161   8.753  20.150  0.00  0.00    +0.000 A 
ATOM     15  C   UNL     1       1.958   7.634  20.433  0.00  0.00    +0.000 A 
BRANCH  14  16
ATOM     16  N   UNL     1       0.406   9.327  21.245  0.00  0.00    +0.000 N 
ATOM     17  O   UNL     1      -0.696   8.821  21.490  0.00  0.00    +0.000 OA
ATOM     18  O   UNL     1       0.982  10.186  21.933  0.00  0.00    +0.000 OA
ENDBRANCH  14  16
ENDBRANCH   1  13
BRANCH   6  19
ATOM     19  C   UNL     1       1.929  15.347  18.550  0.00  0.00    +0.000 C 
BRANCH  19  20
ATOM     20  C   UNL     1       1.059  16.545  18.124  0.00  0.00    +0.000 A 
ATOM     21  C   UNL     1       1.496  17.508  17.197  0.00  0.00    +0.000 A 
ATOM     22  C   UNL     1       0.645  18.532  16.764  0.00  0.00    +0.000 A 
ATOM     23  C   UNL     1      -0.650  18.630  17.263  0.00  0.00    +0.000 A 
ATOM     24  C   UNL     1      -1.098  17.699  18.196  0.00  0.00    +0.000 A 
ATOM     25  C   UNL     1      -0.260  16.662  18.610  0.00  0.00    +0.000 A 
ENDBRANCH  19  20
BRANCH  19  26
ATOM     26  C   UNL     1       3.418  15.696  18.783  0.00  0.00    +0.000 A 
ATOM     27  C   UNL     1       4.440  15.235  17.933  0.00  0.00    +0.000 A 
ATOM     28  C   UNL     1       5.779  15.513  18.192  0.00  0.00    +0.000 A 
ATOM     29  C   UNL     1       6.125  16.308  19.276  0.00  0.00    +0.000 A 
ATOM     30  C   UNL     1       5.127  16.848  20.083  0.00  0.00    +0.000 A 
ATOM     31  C   UNL     1       3.784  16.550  19.835  0.00  0.00    +0.000 A 
ENDBRANCH  19  26
ENDBRANCH   6  19
TORSDOF 5
ENDMDL
MODEL 2
REMARK VINA RESULT:      -7.3      0.607      1.090
REMARK  Name = 
REMARK  6 active torsions:
REMARK  status: ('A' for Active; 'I' for Inactive)
REMARK    1  A    between atoms: C_1  and  C_2
REMARK    2  A    between atoms: C_5  and  C_6
REMARK    3  A    between atoms: N_11  and  C_12
REMARK    4  A    between atoms: C_12  and  C_13
REMARK    5  A    between atoms: C_12  and  C_19
REMARK    6  A    between atoms: C_27  and  N_28
REMARK                            x       y       z     vdW  Elec       q    Type
REMARK                         _______ _______ _______ _____ _____    ______ ____
ROOT
ATOM      1  C   UNL     1      -0.071  10.401  18.731  0.00  0.00    +0.000 C 
ATOM      2  O   UNL     1      -1.152  10.152  18.204  0.00  0.00    +0.000 OA
ATOM      3  N   UNL     1       0.276  11.664  19.225  0.00  0.00    +0.000 N 
ATOM      4  C   UNL     1      -0.741  12.698  19.042  0.00  0.00    +0.000 C 
ATOM      5  C   UNL     1      -0.486  13.953  19.883  0.00  0.00    +0.000 C 
ATOM      6  N   UNL     1       0.884  14.479  19.858  0.00  0.00    +0.000 NA
ATOM      7  C   UNL     1       1.848  13.412  20.122  0.00  0.00    +0.000 C 
ATOM      8  C   UNL     1       1.667  12.154  19.258  0.00  0.00    +0.000 C 
ENDROOT
BRANCH   1  13
ATOM      9  C   UNL     1       3.551   5.927  19.341  0.00  0.00    +0.000 C 
ATOM     10  C   UNL     1       2.648   7.115  19.205  0.00  0.00    +0.000 A 
ATOM     11  C   UNL     1       2.450   7.713  17.957  0.00  0.00    +0.000 A 
ATOM     12  C   UNL     1       1.612   8.819  17.833  0.00  0.00    +0.000 A 
ATOM     13  C   UNL     1       0.865   9.276  18.927  0.00  0.00    +0.000 A 
ATOM     14  C   UNL     1       1.102   8.706  20.177  0.00  0.00    +0.000 A 
ATOM     15  C   UNL     1       2.009   7.648  20.332  0.00  0.00    +0.000 A 
BRANCH  14  16
ATOM     16  N   UNL     1       0.354   9.120  21.346  0.00  0.00    +0.000 N 
ATOM     17  O   UNL     1      -0.670   8.478  21.610  0.00  0.00    +0.000 OA
ATOM     18  O   UNL     1       0.872   9.992  22.062  0.00  0.00    +0.000 OA
ENDBRANCH  14  16
ENDBRANCH   1  13
BRANCH   6  19
ATOM     19  C   UNL     1       1.256  15.445  18.798  0.00  0.00    +0.000 C 
BRANCH  19  20
ATOM     20  C   UNL     1       0.280  16.611  18.546  0.00  0.00    +0.000 A 
ATOM     21  C   UNL     1       0.417  17.492  17.457  0.00  0.00    +0.000 A 
ATOM     22  C   UNL     1      -0.539  18.483  17.207  0.00  0.00    +0.000 A 
ATOM     23  C   UNL     1      -1.639  18.631  18.047  0.00  0.00    +0.000 A 
ATOM     24  C   UNL     1      -1.785  17.781  19.140  0.00  0.00    +0.000 A 
ATOM     25  C   UNL     1      -0.846  16.776  19.378  0.00  0.00    +0.000 A 
ENDBRANCH  19  20
BRANCH  19  26
ATOM     26  C   UNL     1       2.742  15.866  18.865  0.00  0.00    +0.000 A 
ATOM     27  C   UNL     1       3.230  16.753  19.843  0.00  0.00    +0.000 A 
ATOM     28  C   UNL     1       4.560  17.163  19.851  0.00  0.00    +0.000 A 
ATOM     29  C   UNL     1       5.449  16.652  18.916  0.00  0.00    +0.000 A 
ATOM     30  C   UNL     1       5.012  15.707  17.991  0.00  0.00    +0.000 A 
ATOM     31  C   UNL     1       3.671  15.312  17.969  0.00  0.00    +0.000 A 
ENDBRANCH  19  26
ENDBRANCH   6  19
TORSDOF 5
ENDMDL
MODEL 3
REMARK VINA RESULT:      -7.3      0.671      1.538
REMARK  Name = 
REMARK  6 active torsions:
REMARK  status: ('A' for Active; 'I' for Inactive)
REMARK    1  A    between atoms: C_1  and  C_2
REMARK    2  A    between atoms: C_5  and  C_6
REMARK    3  A    between atoms: N_11  and  C_12
REMARK    4  A    between atoms: C_12  and  C_13
REMARK    5  A    between atoms: C_12  and  C_19
REMARK    6  A    between atoms: C_27  and  N_28
REMARK                            x       y       z     vdW  Elec       q    Type
REMARK                         _______ _______ _______ _____ _____    ______ ____
ROOT
ATOM      1  C   UNL     1       0.131  11.022  18.712  0.00  0.00    +0.000 C 
ATOM      2  O   UNL     1      -0.966  10.938  18.169  0.00  0.00    +0.000 OA
ATOM      3  N   UNL     1       0.643  12.213  19.244  0.00  0.00    +0.000 N 
ATOM      4  C   UNL     1      -0.219  13.382  19.078  0.00  0.00    +0.000 C 
ATOM      5  C   UNL     1       0.195  14.568  19.955  0.00  0.00    +0.000 C 
ATOM      6  N   UNL     1       1.624  14.900  19.956  0.00  0.00    +0.000 NA
ATOM      7  C   UNL     1       2.429  13.704  20.201  0.00  0.00    +0.000 C 
ATOM      8  C   UNL     1       2.088  12.505  19.303  0.00  0.00    +0.000 C 
ENDROOT
BRANCH   1  13
ATOM      9  C   UNL     1       3.091   6.076  19.240  0.00  0.00    +0.000 C 
ATOM     10  C   UNL     1       2.364   7.381  19.126  0.00  0.00    +0.000 A 
ATOM     11  C   UNL     1       2.239   8.013  17.886  0.00  0.00    +0.000 A 
ATOM     12  C   UNL     1       1.564   9.228  17.781  0.00  0.00    +0.000 A 
ATOM     13  C   UNL     1       0.901   9.775  18.888  0.00  0.00    +0.000 A 
ATOM     14  C   UNL     1       1.069   9.164  20.130  0.00  0.00    +0.000 A 
ATOM     15  C   UNL     1       1.818   7.987  20.265  0.00  0.00    +0.000 A 
BRANCH  14  16
ATOM     16  N   UNL     1       0.399   9.668  21.311  0.00  0.00    +0.000 N 
ATOM     17  O   UNL     1       1.066  10.384  22.068  0.00  0.00    +0.000 OA
ATOM     18  O   UNL     1      -0.821   9.454  21.397  0.00  0.00    +0.000 OA
ENDBRANCH  14  16
ENDBRANCH   1  13
BRANCH   6  19
ATOM     19  C   UNL     1       2.140  15.832  18.926  0.00  0.00    +0.000 C 
BRANCH  19  20
ATOM     20  C   UNL     1       1.114  16.770  18.260  0.00  0.00    +0.000 A 
ATOM     21  C   UNL     1      -0.203  16.910  18.733  0.00  0.00    +0.000 A 
ATOM     22  C   UNL     1      -1.080  17.839  18.159  0.00  0.00    +0.000 A 
ATOM     23  C   UNL     1      -0.669  18.631  17.091  0.00  0.00    +0.000 A 
ATOM     24  C   UNL     1       0.625  18.496  16.596  0.00  0.00    +0.000 A 
ATOM     25  C   UNL     1       1.509  17.588  17.182  0.00  0.00    +0.000 A 
ENDBRANCH  19  20
BRANCH  19  26
ATOM     26  C   UNL     1       3.453  16.529  19.351  0.00  0.00    +0.000 A 
ATOM     27  C   UNL     1       3.536  17.345  20.494  0.00  0.00    +0.000 A 
ATOM     28  C   UNL     1       4.714  18.009  20.827  0.00  0.00    +0.000 A 
ATOM     29  C   UNL     1       5.854  17.826  20.057  0.00  0.00    +0.000 A 
ATOM     30  C   UNL     1       5.823  16.956  18.971  0.00  0.00    +0.000 A 
ATOM     31  C   UNL     1       4.633  16.307  18.624  0.00  0.00    +0.000 A 
ENDBRANCH  19  26
ENDBRANCH   6  19
TORSDOF 5
ENDMDL
MODEL 4
REMARK VINA RESULT:      -7.2      0.950      1.305
REMARK  Name = 
REMARK  6 active torsions:
REMARK  status: ('A' for Active; 'I' for Inactive)
REMARK    1  A    between atoms: C_1  and  C_2
REMARK    2  A    between atoms: C_5  and  C_6
REMARK    3  A    between atoms: N_11  and  C_12
REMARK    4  A    between atoms: C_12  and  C_13
REMARK    5  A    between atoms: C_12  and  C_19
REMARK    6  A    between atoms: C_27  and  N_28
REMARK                            x       y       z     vdW  Elec       q    Type
REMARK                         _______ _______ _______ _____ _____    ______ ____
ROOT
ATOM      1  C   UNL     1      -0.078  10.608  19.169  0.00  0.00    +0.000 C 
ATOM      2  O   UNL     1      -1.235  10.430  18.800  0.00  0.00    +0.000 OA
ATOM      3  N   UNL     1       0.386  11.817  19.703  0.00  0.00    +0.000 N 
ATOM      4  C   UNL     1      -0.610  12.885  19.766  0.00  0.00    +0.000 C 
ATOM      5  C   UNL     1      -0.185  14.058  20.655  0.00  0.00    +0.000 C 
ATOM      6  N   UNL     1       1.183  14.554  20.457  0.00  0.00    +0.000 NA
ATOM      7  C   UNL     1       2.138  13.447  20.480  0.00  0.00    +0.000 C 
ATOM      8  C   UNL     1       1.781  12.271  19.557  0.00  0.00    +0.000 C 
ENDROOT
BRANCH   1  13
ATOM      9  C   UNL     1       3.445   6.028  18.832  0.00  0.00    +0.000 C 
ATOM     10  C   UNL     1       2.571   7.240  18.942  0.00  0.00    +0.000 A 
ATOM     11  C   UNL     1       2.278   8.005  17.810  0.00  0.00    +0.000 A 
ATOM     12  C   UNL     1       1.467   9.133  17.913  0.00  0.00    +0.000 A 
ATOM     13  C   UNL     1       0.837   9.451  19.125  0.00  0.00    +0.000 A 
ATOM     14  C   UNL     1       1.169   8.712  20.259  0.00  0.00    +0.000 A 
ATOM     15  C   UNL     1       2.053   7.626  20.185  0.00  0.00    +0.000 A 
BRANCH  14  16
ATOM     16  N   UNL     1       0.544   8.977  21.538  0.00  0.00    +0.000 N 
ATOM     17  O   UNL     1      -0.542   8.424  21.755  0.00  0.00    +0.000 OA
ATOM     18  O   UNL     1       1.209   9.624  22.363  0.00  0.00    +0.000 OA
ENDBRANCH  14  16
ENDBRANCH   1  13
BRANCH   6  19
ATOM     19  C   UNL     1       1.420  15.598  19.434  0.00  0.00    +0.000 C 
BRANCH  19  20
ATOM     20  C   UNL     1       0.295  16.629  19.217  0.00  0.00    +0.000 A 
ATOM     21  C   UNL     1      -0.354  17.277  20.283  0.00  0.00    +0.000 A 
ATOM     22  C   UNL     1      -1.309  18.275  20.047  0.00  0.00    +0.000 A 
ATOM     23  C   UNL     1      -1.650  18.630  18.746  0.00  0.00    +0.000 A 
ATOM     24  C   UNL     1      -1.032  17.988  17.675  0.00  0.00    +0.000 A 
ATOM     25  C   UNL     1      -0.063  17.011  17.908  0.00  0.00    +0.000 A 
ENDBRANCH  19  20
BRANCH  19  26
ATOM     26  C   UNL     1       2.835  16.215  19.523  0.00  0.00    +0.000 A 
ATOM     27  C   UNL     1       3.748  16.161  18.454  0.00  0.00    +0.000 A 
ATOM     28  C   UNL     1       5.038  16.672  18.574  0.00  0.00    +0.000 A 
ATOM     29  C   UNL     1       5.427  17.302  19.749  0.00  0.00    +0.000 A 
ATOM     30  C   UNL     1       4.515  17.445  20.791  0.00  0.00    +0.000 A 
ATOM     31  C   UNL     1       3.228  16.911  20.678  0.00  0.00    +0.000 A 
ENDBRANCH  19  26
ENDBRANCH   6  19
TORSDOF 5
ENDMDL
MODEL 5
REMARK VINA RESULT:      -7.1      0.141      1.039
REMARK  Name = 
REMARK  6 active torsions:
REMARK  status: ('A' for Active; 'I' for Inactive)
REMARK    1  A    between atoms: C_1  and  C_2
REMARK    2  A    between atoms: C_5  and  C_6
REMARK    3  A    between atoms: N_11  and  C_12
REMARK    4  A    between atoms: C_12  and  C_13
REMARK    5  A    between atoms: C_12  and  C_19
REMARK    6  A    between atoms: C_27  and  N_28
REMARK                            x       y       z     vdW  Elec       q    Type
REMARK                         _______ _______ _______ _____ _____    ______ ____
ROOT
ATOM      1  C   UNL     1       0.238  10.315  18.589  0.00  0.00    +0.000 C 
ATOM      2  O   UNL     1      -0.822  10.118  18.003  0.00  0.00    +0.000 OA
ATOM      3  N   UNL     1       0.637  11.570  19.066  0.00  0.00    +0.000 N 
ATOM      4  C   UNL     1      -0.297  12.660  18.788  0.00  0.00    +0.000 C 
ATOM      5  C   UNL     1      -0.012  13.924  19.605  0.00  0.00    +0.000 C 
ATOM      6  N   UNL     1       1.388  14.360  19.650  0.00  0.00    +0.000 NA
ATOM      7  C   UNL     1       2.263  13.244  20.006  0.00  0.00    +0.000 C 
ATOM      8  C   UNL     1       2.052  11.971  19.171  0.00  0.00    +0.000 C 
ENDROOT
BRANCH   1  13
ATOM      9  C   UNL     1       3.509   5.640  19.564  0.00  0.00    +0.000 C 
ATOM     10  C   UNL     1       2.699   6.879  19.333  0.00  0.00    +0.000 A 
ATOM     11  C   UNL     1       2.578   7.415  18.048  0.00  0.00    +0.000 A 
ATOM     12  C   UNL     1       1.825   8.568  17.834  0.00  0.00    +0.000 A 
ATOM     13  C   UNL     1       1.085   9.140  18.878  0.00  0.00    +0.000 A 
ATOM     14  C   UNL     1       1.247   8.630  20.164  0.00  0.00    +0.000 A 
ATOM     15  C   UNL     1       2.070   7.521  20.407  0.00  0.00    +0.000 A 
BRANCH  14  16
ATOM     16  N   UNL     1       0.500   9.164  21.284  0.00  0.00    +0.000 N 
ATOM     17  O   UNL     1       1.058  10.036  21.964  0.00  0.00    +0.000 OA
ATOM     18  O   UNL     1      -0.684   8.806  21.390  0.00  0.00    +0.000 OA
ENDBRANCH  14  16
ENDBRANCH   1  13
BRANCH   6  19
ATOM     19  C   UNL     1       1.887  15.264  18.587  0.00  0.00    +0.000 C 
BRANCH  19  20
ATOM     20  C   UNL     1       0.951  16.409  18.152  0.00  0.00    +0.000 A 
ATOM     21  C   UNL     1      -0.372  16.525  18.615  0.00  0.00    +0.000 A 
ATOM     22  C   UNL     1      -1.163  17.627  18.270  0.00  0.00    +0.000 A 
ATOM     23  C   UNL     1      -0.660  18.625  17.441  0.00  0.00    +0.000 A 
ATOM     24  C   UNL     1       0.642  18.522  16.956  0.00  0.00    +0.000 A 
ATOM     25  C   UNL     1       1.441  17.436  17.319  0.00  0.00    +0.000 A 
ENDBRANCH  19  20
BRANCH  19  26
ATOM     26  C   UNL     1       3.356  15.694  18.805  0.00  0.00    +0.000 A 
ATOM     27  C   UNL     1       4.397  15.273  17.958  0.00  0.00    +0.000 A 
ATOM     28  C   UNL     1       5.721  15.626  18.205  0.00  0.00    +0.000 A 
ATOM     29  C   UNL     1       6.029  16.457  19.273  0.00  0.00    +0.000 A 
ATOM     30  C   UNL     1       5.008  16.957  20.077  0.00  0.00    +0.000 A 
ATOM     31  C   UNL     1       3.681  16.584  19.841  0.00  0.00    +0.000 A 
ENDBRANCH  19  26
ENDBRANCH   6  19
TORSDOF 5
ENDMDL
MODEL 6
REMARK VINA RESULT:      -7.1      3.582      8.120
REMARK  Name = 
REMARK  6 active torsions:
REMARK  status: ('A' for Active; 'I' for Inactive)
REMARK    1  A    between atoms: C_1  and  C_2
REMARK    2  A    between atoms: C_5  and  C_6
REMARK    3  A    between atoms: N_11  and  C_12
REMARK    4  A    between atoms: C_12  and  C_13
REMARK    5  A    between atoms: C_12  and  C_19
REMARK    6  A    between atoms: C_27  and  N_28
REMARK                            x       y       z     vdW  Elec       q    Type
REMARK                         _______ _______ _______ _____ _____    ______ ____
ROOT
ATOM      1  C   UNL     1       3.333  14.955  21.461  0.00  0.00    +0.000 C 
ATOM      2  O   UNL     1       3.385  14.997  22.686  0.00  0.00    +0.000 OA
ATOM      3  N   UNL     1       2.211  14.514  20.748  0.00  0.00    +0.000 N 
ATOM      4  C   UNL     1       1.092  14.069  21.576  0.00  0.00    +0.000 C 
ATOM      5  C   UNL     1      -0.220  13.925  20.796  0.00  0.00    +0.000 C 
ATOM      6  N   UNL     1      -0.132  13.219  19.513  0.00  0.00    +0.000 NA
ATOM      7  C   UNL     1       0.957  13.761  18.701  0.00  0.00    +0.000 C 
ATOM      8  C   UNL     1       2.307  13.867  19.426  0.00  0.00    +0.000 C 
ENDROOT
BRANCH   1  13
ATOM      9  C   UNL     1       7.976  16.961  18.645  0.00  0.00    +0.000 C 
ATOM     10  C   UNL     1       6.752  16.433  19.328  0.00  0.00    +0.000 A 
ATOM     11  C   UNL     1       6.771  15.176  19.941  0.00  0.00    +0.000 A 
ATOM     12  C   UNL     1       5.632  14.685  20.574  0.00  0.00    +0.000 A 
ATOM     13  C   UNL     1       4.489  15.486  20.711  0.00  0.00    +0.000 A 
ATOM     14  C   UNL     1       4.461  16.717  20.060  0.00  0.00    +0.000 A 
ATOM     15  C   UNL     1       5.572  17.187  19.345  0.00  0.00    +0.000 A 
BRANCH  14  16
ATOM     16  N   UNL     1       3.319  17.601  20.174  0.00  0.00    +0.000 N 
ATOM     17  O   UNL     1       2.497  17.574  19.249  0.00  0.00    +0.000 OA
ATOM     18  O   UNL     1       3.187  18.211  21.247  0.00  0.00    +0.000 OA
ENDBRANCH  14  16
ENDBRANCH   1  13
BRANCH   6  19
ATOM     19  C   UNL     1      -0.282  11.745  19.501  0.00  0.00    +0.000 C 
BRANCH  19  20
ATOM     20  C   UNL     1      -0.148  11.020  20.854  0.00  0.00    +0.000 A 
ATOM     21  C   UNL     1      -1.077  11.186  21.898  0.00  0.00    +0.000 A 
ATOM     22  C   UNL     1      -0.975  10.443  23.080  0.00  0.00    +0.000 A 
ATOM     23  C   UNL     1       0.066   9.536  23.255  0.00  0.00    +0.000 A 
ATOM     24  C   UNL     1       1.007   9.368  22.242  0.00  0.00    +0.000 A 
ATOM     25  C   UNL     1       0.893  10.090  21.052  0.00  0.00    +0.000 A 
ENDBRANCH  19  20
BRANCH  19  26
ATOM     26  C   UNL     1      -1.478  11.270  18.644  0.00  0.00    +0.000 A 
ATOM     27  C   UNL     1      -2.732  11.907  18.684  0.00  0.00    +0.000 A 
ATOM     28  C   UNL     1      -3.812  11.430  17.946  0.00  0.00    +0.000 A 
ATOM     29  C   UNL     1      -3.648  10.337  17.106  0.00  0.00    +0.000 A 
ATOM     30  C   UNL     1      -2.396   9.741  16.982  0.00  0.00    +0.000 A 
ATOM     31  C   UNL     1      -1.317  10.207  17.740  0.00  0.00    +0.000 A 
ENDBRANCH  19  26
ENDBRANCH   6  19
TORSDOF 5
ENDMDL
MODEL 7
REMARK VINA RESULT:      -6.9      3.610      7.364
REMARK  Name = 
REMARK  6 active torsions:
REMARK  status: ('A' for Active; 'I' for Inactive)
REMARK    1  A    between atoms: C_1  and  C_2
REMARK    2  A    between atoms: C_5  and  C_6
REMARK    3  A    between atoms: N_11  and  C_12
REMARK    4  A    between atoms: C_12  and  C_13
REMARK    5  A    between atoms: C_12  and  C_19
REMARK    6  A    between atoms: C_27  and  N_28
REMARK                            x       y       z     vdW  Elec       q    Type
REMARK                         _______ _______ _______ _____ _____    ______ ____
ROOT
ATOM      1  C   UNL     1       2.569  15.644  20.368  0.00  0.00    +0.000 C 
ATOM      2  O   UNL     1       2.211  16.818  20.355  0.00  0.00    +0.000 OA
ATOM      3  N   UNL     1       1.822  14.600  19.808  0.00  0.00    +0.000 N 
ATOM      4  C   UNL     1       0.545  15.002  19.221  0.00  0.00    +0.000 C 
ATOM      5  C   UNL     1      -0.077  13.925  18.327  0.00  0.00    +0.000 C 
ATOM      6  N   UNL     1      -0.096  12.564  18.877  0.00  0.00    +0.000 NA
ATOM      7  C   UNL     1       1.226  12.194  19.378  0.00  0.00    +0.000 C 
ATOM      8  C   UNL     1       1.865  13.220  20.327  0.00  0.00    +0.000 C 
ENDROOT
BRANCH   1  13
ATOM      9  C   UNL     1       7.746  14.549  22.714  0.00  0.00    +0.000 C 
ATOM     10  C   UNL     1       6.409  14.787  22.083  0.00  0.00    +0.000 A 
ATOM     11  C   UNL     1       5.241  14.691  22.844  0.00  0.00    +0.000 A 
ATOM     12  C   UNL     1       3.997  14.911  22.256  0.00  0.00    +0.000 A 
ATOM     13  C   UNL     1       3.903  15.345  20.927  0.00  0.00    +0.000 A 
ATOM     14  C   UNL     1       5.066  15.395  20.161  0.00  0.00    +0.000 A 
ATOM     15  C   UNL     1       6.317  15.092  20.719  0.00  0.00    +0.000 A 
BRANCH  14  16
ATOM     16  N   UNL     1       5.042  15.851  18.786  0.00  0.00    +0.000 N 
ATOM     17  O   UNL     1       4.867  14.990  17.915  0.00  0.00    +0.000 OA
ATOM     18  O   UNL     1       5.061  17.079  18.603  0.00  0.00    +0.000 OA
ENDBRANCH  14  16
ENDBRANCH   1  13
BRANCH   6  19
ATOM     19  C   UNL     1      -1.248  12.150  19.711  0.00  0.00    +0.000 C 
BRANCH  19  20
ATOM     20  C   UNL     1      -2.571  11.859  18.976  0.00  0.00    +0.000 A 
ATOM     21  C   UNL     1      -3.824  12.238  19.492  0.00  0.00    +0.000 A 
ATOM     22  C   UNL     1      -4.998  12.039  18.755  0.00  0.00    +0.000 A 
ATOM     23  C   UNL     1      -4.949  11.440  17.500  0.00  0.00    +0.000 A 
ATOM     24  C   UNL     1      -3.722  11.040  16.978  0.00  0.00    +0.000 A 
ATOM     25  C   UNL     1      -2.548  11.260  17.700  0.00  0.00    +0.000 A 
ENDBRANCH  19  20
BRANCH  19  26
ATOM     26  C   UNL     1      -0.869  11.094  20.775  0.00  0.00    +0.000 A 
ATOM     27  C   UNL     1      -1.013  11.330  22.155  0.00  0.00    +0.000 A 
ATOM     28  C   UNL     1      -0.613  10.388  23.098  0.00  0.00    +0.000 A 
ATOM     29  C   UNL     1      -0.112   9.162  22.683  0.00  0.00    +0.000 A 
ATOM     30  C   UNL     1      -0.039   8.869  21.324  0.00  0.00    +0.000 A 
ATOM     31  C   UNL     1      -0.420   9.824  20.377  0.00  0.00    +0.000 A 
ENDBRANCH  19  26
ENDBRANCH   6  19
TORSDOF 5
ENDMDL
MODEL 8
REMARK VINA RESULT:      -6.8      3.546      7.526
REMARK  Name = 
REMARK  6 active torsions:
REMARK  status: ('A' for Active; 'I' for Inactive)
REMARK    1  A    between atoms: C_1  and  C_2
REMARK    2  A    between atoms: C_5  and  C_6
REMARK    3  A    between atoms: N_11  and  C_12
REMARK    4  A    between atoms: C_12  and  C_13
REMARK    5  A    between atoms: C_12  and  C_19
REMARK    6  A    between atoms: C_27  and  N_28
REMARK                            x       y       z     vdW  Elec       q    Type
REMARK                         _______ _______ _______ _____ _____    ______ ____
ROOT
ATOM      1  C   UNL     1       2.267  15.903  20.254  0.00  0.00    +0.000 C 
ATOM      2  O   UNL     1       1.804  17.017  20.029  0.00  0.00    +0.000 OA
ATOM      3  N   UNL     1       1.697  14.717  19.773  0.00  0.00    +0.000 N 
ATOM      4  C   UNL     1       0.472  14.893  18.996  0.00  0.00    +0.000 C 
ATOM      5  C   UNL     1       0.071  13.644  18.205  0.00  0.00    +0.000 C 
ATOM      6  N   UNL     1       0.110  12.375  18.942  0.00  0.00    +0.000 NA
ATOM      7  C   UNL     1       1.388  12.224  19.636  0.00  0.00    +0.000 C 
ATOM      8  C   UNL     1       1.803  13.432  20.490  0.00  0.00    +0.000 C 
ENDROOT
BRANCH   1  13
ATOM      9  C   UNL     1       7.192  15.724  23.288  0.00  0.00    +0.000 C 
ATOM     10  C   UNL     1       5.925  15.721  22.489  0.00  0.00    +0.000 A 
ATOM     11  C   UNL     1       4.685  15.691  23.132  0.00  0.00    +0.000 A 
ATOM     12  C   UNL     1       3.507  15.687  22.388  0.00  0.00    +0.000 A 
ATOM     13  C   UNL     1       3.542  15.831  20.995  0.00  0.00    +0.000 A 
ATOM     14  C   UNL     1       4.781  15.814  20.357  0.00  0.00    +0.000 A 
ATOM     15  C   UNL     1       5.974  15.731  21.090  0.00  0.00    +0.000 A 
BRANCH  14  16
ATOM     16  N   UNL     1       4.890  15.975  18.922  0.00  0.00    +0.000 N 
ATOM     17  O   UNL     1       4.882  17.134  18.487  0.00  0.00    +0.000 OA
ATOM     18  O   UNL     1       5.120  14.951  18.259  0.00  0.00    +0.000 OA
ENDBRANCH  14  16
ENDBRANCH   1  13
BRANCH   6  19
ATOM     19  C   UNL     1      -1.093  11.952  19.695  0.00  0.00    +0.000 C 
BRANCH  19  20
ATOM     20  C   UNL     1      -2.351  11.622  18.869  0.00  0.00    +0.000 A 
ATOM     21  C   UNL     1      -2.324  10.761  17.757  0.00  0.00    +0.000 A 
ATOM     22  C   UNL     1      -3.501  10.412  17.085  0.00  0.00    +0.000 A 
ATOM     23  C   UNL     1      -4.726  10.930  17.494  0.00  0.00    +0.000 A 
ATOM     24  C   UNL     1      -4.775  11.798  18.581  0.00  0.00    +0.000 A 
ATOM     25  C   UNL     1      -3.606  12.128  19.268  0.00  0.00    +0.000 A 
ENDBRANCH  19  20
BRANCH  19  26
ATOM     26  C   UNL     1      -0.776  10.922  20.804  0.00  0.00    +0.000 A 
ATOM     27  C   UNL     1      -0.227   9.657  20.522  0.00  0.00    +0.000 A 
ATOM     28  C   UNL     1      -0.001   8.723  21.529  0.00  0.00    +0.000 A 
ATOM     29  C   UNL     1      -0.265   9.052  22.852  0.00  0.00    +0.000 A 
ATOM     30  C   UNL     1      -0.728  10.327  23.168  0.00  0.00    +0.000 A 
ATOM     31  C   UNL     1      -0.975  11.257  22.153  0.00  0.00    +0.000 A 
ENDBRANCH  19  26
ENDBRANCH   6  19
TORSDOF 5
ENDMDL
MODEL 9
REMARK VINA RESULT:      -6.8      3.570      7.925
REMARK  Name = 
REMARK  6 active torsions:
REMARK  status: ('A' for Active; 'I' for Inactive)
REMARK    1  A    between atoms: C_1  and  C_2
REMARK    2  A    between atoms: C_5  and  C_6
REMARK    3  A    between atoms: N_11  and  C_12
REMARK    4  A    between atoms: C_12  and  C_13
REMARK    5  A    between atoms: C_12  and  C_19
REMARK    6  A    between atoms: C_27  and  N_28
REMARK                            x       y       z     vdW  Elec       q    Type
REMARK                         _______ _______ _______ _____ _____    ______ ____
ROOT
ATOM      1  C   UNL     1       1.568  16.425  20.300  0.00  0.00    +0.000 C 
ATOM      2  O   UNL     1       0.993  17.377  19.780  0.00  0.00    +0.000 OA
ATOM      3  N   UNL     1       1.357  15.093  19.924  0.00  0.00    +0.000 N 
ATOM      4  C   UNL     1       0.362  14.901  18.870  0.00  0.00    +0.000 C 
ATOM      5  C   UNL     1       0.402  13.502  18.247  0.00  0.00    +0.000 C 
ATOM      6  N   UNL     1       0.470  12.379  19.189  0.00  0.00    +0.000 NA
ATOM      7  C   UNL     1       1.532  12.595  20.170  0.00  0.00    +0.000 C 
ATOM      8  C   UNL     1       1.496  13.966  20.865  0.00  0.00    +0.000 C 
ENDROOT
BRANCH   1  13
ATOM      9  C   UNL     1       5.508  17.721  24.338  0.00  0.00    +0.000 C 
ATOM     10  C   UNL     1       4.502  17.336  23.297  0.00  0.00    +0.000 A 
ATOM     11  C   UNL     1       3.138  17.319  23.603  0.00  0.00    +0.000 A 
ATOM     12  C   UNL     1       2.204  16.960  22.635  0.00  0.00    +0.000 A 
ATOM     13  C   UNL     1       2.602  16.725  21.311  0.00  0.00    +0.000 A 
ATOM     14  C   UNL     1       3.965  16.697  21.023  0.00  0.00    +0.000 A 
ATOM     15  C   UNL     1       4.921  16.973  22.010  0.00  0.00    +0.000 A 
BRANCH  14  16
ATOM     16  N   UNL     1       4.443  16.477  19.674  0.00  0.00    +0.000 N 
ATOM     17  O   UNL     1       4.620  17.480  18.972  0.00  0.00    +0.000 OA
ATOM     18  O   UNL     1       4.767  15.315  19.378  0.00  0.00    +0.000 OA
ENDBRANCH  14  16
ENDBRANCH   1  13
BRANCH   6  19
ATOM     19  C   UNL     1      -0.795  11.812  19.713  0.00  0.00    +0.000 C 
BRANCH  19  20
ATOM     20  C   UNL     1      -1.799  11.273  18.675  0.00  0.00    +0.000 A 
ATOM     21  C   UNL     1      -3.113  11.763  18.567  0.00  0.00    +0.000 A 
ATOM     22  C   UNL     1      -3.969  11.315  17.553  0.00  0.00    +0.000 A 
ATOM     23  C   UNL     1      -3.540  10.355  16.642  0.00  0.00    +0.000 A 
ATOM     24  C   UNL     1      -2.249   9.843  16.741  0.00  0.00    +0.000 A 
ATOM     25  C   UNL     1      -1.386  10.306  17.735  0.00  0.00    +0.000 A 
ENDBRANCH  19  20
BRANCH  19  26
ATOM     26  C   UNL     1      -0.577  10.879  20.927  0.00  0.00    +0.000 A 
ATOM     27  C   UNL     1      -1.091  11.173  22.203  0.00  0.00    +0.000 A 
ATOM     28  C   UNL     1      -0.835  10.349  23.296  0.00  0.00    +0.000 A 
ATOM     29  C   UNL     1      -0.107   9.179  23.126  0.00  0.00    +0.000 A 
ATOM     30  C   UNL     1       0.340   8.821  21.857  0.00  0.00    +0.000 A 
ATOM     31  C   UNL     1       0.102   9.661  20.764  0.00  0.00    +0.000 A 
ENDBRANCH  19  26
ENDBRANCH   6  19
TORSDOF 5
ENDMDL
