MODEL 1
REMARK VINA RESULT:      -7.2      0.000      0.000
REMARK  Name = 
REMARK  2 active torsions:
REMARK  status: ('A' for Active; 'I' for Inactive)
REMARK    1  A    between atoms: N_4  and  C_5
REMARK    2  A    between atoms: N_18  and  C_19
REMARK                            x       y       z     vdW  Elec       q    Type
REMARK                         _______ _______ _______ _____ _____    ______ ____
ROOT
ATOM      1  O   UNL     1       2.056   8.871  17.248  0.00  0.00    +0.000 OA
ATOM      2  C   UNL     1       1.808   8.702  18.437  0.00  0.00    +0.000 A 
ATOM      3  C   UNL     1       2.429   7.454  19.156  0.00  0.00    +0.000 A 
ATOM      4  N   UNL     1       3.289   6.653  18.434  0.00  0.00    +0.000 N 
ATOM      5  N   UNL     1       2.151   7.171  20.399  0.00  0.00    +0.000 NA
ATOM      6  C   UNL     1       1.272   7.994  21.044  0.00  0.00    +0.000 A 
ATOM      7  C   UNL     1       0.759   9.119  20.543  0.00  0.00    +0.000 A 
ATOM      8  N   UNL     1       1.058   9.519  19.264  0.00  0.00    +0.000 N 
ATOM      9  H   UNL     1       3.295   6.826  17.431  0.00  0.00    +0.000 HD
ENDROOT
BRANCH   4  10
ATOM     10  C   UNL     1       4.345   5.825  18.997  0.00  0.00    +0.000 C 
ATOM     11  C   UNL     1       5.399   5.608  17.932  0.00  0.00    +0.000 C 
ATOM     12  C   UNL     1       4.880   4.721  16.804  0.00  0.00    +0.000 C 
ATOM     13  O   UNL     1       3.697   3.952  17.006  0.00  0.00    +0.000 OA
ATOM     14  C   UNL     1       3.133   3.733  18.311  0.00  0.00    +0.000 C 
ATOM     15  C   UNL     1       2.966   2.212  18.461  0.00  0.00    +0.000 C 
ATOM     16  C   UNL     1       1.476   1.978  18.639  0.00  0.00    +0.000 C 
ATOM     17  O   UNL     1       0.832   3.096  18.036  0.00  0.00    +0.000 OA
ATOM     18  C   UNL     1       1.665   4.220  18.344  0.00  0.00    +0.000 C 
ATOM     19  C   UNL     1       3.908   4.426  19.430  0.00  0.00    +0.000 C 
ENDBRANCH   4  10
BRANCH   8  20
ATOM     20  C   UNL     1       0.528  10.799  18.830  0.00  0.00    +0.000 C 
ATOM     21  C   UNL     1      -0.893  10.885  18.320  0.00  0.00    +0.000 C 
ATOM     22  C   UNL     1      -0.515  11.561  19.597  0.00  0.00    +0.000 C 
ENDBRANCH   8  20
TORSDOF 2
ENDMDL
MODEL 2
REMARK VINA RESULT:      -7.0      4.063      5.905
REMARK  Name = 
REMARK  2 active torsions:
REMARK  status: ('A' for Active; 'I' for Inactive)
REMARK    1  A    between atoms: N_4  and  C_5
REMARK    2  A    between atoms: N_18  and  C_19
REMARK                            x       y       z     vdW  Elec       q    Type
REMARK                         _______ _______ _______ _____ _____    ______ ____
ROOT
ATOM      1  O   UNL     1       6.212   4.473  18.949  0.00  0.00    +0.000 OA
ATOM      2  C   UNL     1       6.127   4.543  17.727  0.00  0.00    +0.000 A 
ATOM      3  C   UNL     1       4.990   3.731  17.014  0.00  0.00    +0.000 A 
ATOM      4  N   UNL     1       4.092   3.044  17.804  0.00  0.00    +0.000 N 
ATOM      5  N   UNL     1       4.882   3.700  15.714  0.00  0.00    +0.000 NA
ATOM      6  C   UNL     1       5.821   4.383  14.995  0.00  0.00    +0.000 A 
ATOM      7  C   UNL     1       6.771   5.164  15.512  0.00  0.00    +0.000 A 
ATOM      8  N   UNL     1       6.906   5.301  16.872  0.00  0.00    +0.000 N 
ATOM      9  H   UNL     1       4.361   2.958  18.782  0.00  0.00    +0.000 HD
ENDROOT
BRANCH   4  10
ATOM     10  C   UNL     1       2.727   2.704  17.433  0.00  0.00    +0.000 C 
ATOM     11  C   UNL     1       2.034   3.963  16.960  0.00  0.00    +0.000 C 
ATOM     12  C   UNL     1       1.807   4.942  18.109  0.00  0.00    +0.000 C 
ATOM     13  O   UNL     1       1.921   4.482  19.453  0.00  0.00    +0.000 OA
ATOM     14  C   UNL     1       1.943   3.084  19.790  0.00  0.00    +0.000 C 
ATOM     15  C   UNL     1       0.852   2.878  20.853  0.00  0.00    +0.000 C 
ATOM     16  C   UNL     1       1.575   2.385  22.095  0.00  0.00    +0.000 C 
ATOM     17  O   UNL     1       2.913   2.856  21.977  0.00  0.00    +0.000 OA
ATOM     18  C   UNL     1       3.229   2.750  20.584  0.00  0.00    +0.000 C 
ATOM     19  C   UNL     1       1.863   2.166  18.573  0.00  0.00    +0.000 C 
ENDBRANCH   4  10
BRANCH   8  20
ATOM     20  C   UNL     1       7.908   6.237  17.346  0.00  0.00    +0.000 C 
ATOM     21  C   UNL     1       7.524   7.676  17.605  0.00  0.00    +0.000 C 
ATOM     22  C   UNL     1       7.920   6.793  18.742  0.00  0.00    +0.000 C 
ENDBRANCH   8  20
TORSDOF 2
ENDMDL
MODEL 3
REMARK VINA RESULT:      -7.0      4.317      5.743
REMARK  Name = 
REMARK  2 active torsions:
REMARK  status: ('A' for Active; 'I' for Inactive)
REMARK    1  A    between atoms: N_4  and  C_5
REMARK    2  A    between atoms: N_18  and  C_19
REMARK                            x       y       z     vdW  Elec       q    Type
REMARK                         _______ _______ _______ _____ _____    ______ ____
ROOT
ATOM      1  O   UNL     1       3.325   5.804  19.836  0.00  0.00    +0.000 OA
ATOM      2  C   UNL     1       3.674   4.628  19.843  0.00  0.00    +0.000 A 
ATOM      3  C   UNL     1       5.015   4.247  19.125  0.00  0.00    +0.000 A 
ATOM      4  N   UNL     1       5.776   5.265  18.591  0.00  0.00    +0.000 N 
ATOM      5  N   UNL     1       5.412   3.007  19.029  0.00  0.00    +0.000 NA
ATOM      6  C   UNL     1       4.596   2.049  19.558  0.00  0.00    +0.000 A 
ATOM      7  C   UNL     1       3.483   2.282  20.255  0.00  0.00    +0.000 A 
ATOM      8  N   UNL     1       3.035   3.565  20.456  0.00  0.00    +0.000 N 
ATOM      9  H   UNL     1       5.305   6.166  18.533  0.00  0.00    +0.000 HD
ENDROOT
BRANCH   4  10
ATOM     10  C   UNL     1       7.216   5.227  18.387  0.00  0.00    +0.000 C 
ATOM     11  C   UNL     1       7.732   6.649  18.354  0.00  0.00    +0.000 C 
ATOM     12  C   UNL     1       7.262   7.385  17.103  0.00  0.00    +0.000 C 
ATOM     13  O   UNL     1       6.740   6.640  16.006  0.00  0.00    +0.000 OA
ATOM     14  C   UNL     1       6.907   5.216  15.893  0.00  0.00    +0.000 C 
ATOM     15  C   UNL     1       7.513   4.960  14.503  0.00  0.00    +0.000 C 
ATOM     16  C   UNL     1       6.496   4.111  13.761  0.00  0.00    +0.000 C 
ATOM     17  O   UNL     1       5.240   4.384  14.375  0.00  0.00    +0.000 OA
ATOM     18  C   UNL     1       5.527   4.527  15.771  0.00  0.00    +0.000 C 
ATOM     19  C   UNL     1       7.664   4.599  17.067  0.00  0.00    +0.000 C 
ENDBRANCH   4  10
BRANCH   8  20
ATOM     20  C   UNL     1       1.866   3.734  21.299  0.00  0.00    +0.000 C 
ATOM     21  C   UNL     1       0.512   3.285  20.798  0.00  0.00    +0.000 C 
ATOM     22  C   UNL     1       1.150   2.587  21.953  0.00  0.00    +0.000 C 
ENDBRANCH   8  20
TORSDOF 2
ENDMDL
MODEL 4
REMARK VINA RESULT:      -6.7      2.038      3.589
REMARK  Name = 
REMARK  2 active torsions:
REMARK  status: ('A' for Active; 'I' for Inactive)
REMARK    1  A    between atoms: N_4  and  C_5
REMARK    2  A    between atoms: N_18  and  C_19
REMARK                            x       y       z     vdW  Elec       q    Type
REMARK                         _______ _______ _______ _____ _____    ______ ____
ROOT
ATOM      1  O   UNL     1       1.488   6.342  21.192  0.00  0.00    +0.000 OA
ATOM      2  C   UNL     1       1.507   7.270  20.390  0.00  0.00    +0.000 A 
ATOM      3  C   UNL     1       2.295   7.077  19.048  0.00  0.00    +0.000 A 
ATOM      4  N   UNL     1       2.859   5.843  18.800  0.00  0.00    +0.000 N 
ATOM      5  N   UNL     1       2.420   8.044  18.181  0.00  0.00    +0.000 NA
ATOM      6  C   UNL     1       1.857   9.246  18.504  0.00  0.00    +0.000 A 
ATOM      7  C   UNL     1       1.103   9.481  19.579  0.00  0.00    +0.000 A 
ATOM      8  N   UNL     1       0.870   8.493  20.504  0.00  0.00    +0.000 N 
ATOM      9  H   UNL     1       2.886   5.216  19.602  0.00  0.00    +0.000 HD
ENDROOT
BRANCH   4  10
ATOM     10  C   UNL     1       3.136   5.289  17.484  0.00  0.00    +0.000 C 
ATOM     11  C   UNL     1       2.718   3.834  17.481  0.00  0.00    +0.000 C 
ATOM     12  C   UNL     1       3.627   2.989  18.368  0.00  0.00    +0.000 C 
ATOM     13  O   UNL     1       4.882   3.517  18.790  0.00  0.00    +0.000 OA
ATOM     14  C   UNL     1       5.472   4.680  18.182  0.00  0.00    +0.000 C 
ATOM     15  C   UNL     1       6.896   4.276  17.766  0.00  0.00    +0.000 C 
ATOM     16  C   UNL     1       7.827   5.181  18.554  0.00  0.00    +0.000 C 
ATOM     17  O   UNL     1       7.096   5.581  19.708  0.00  0.00    +0.000 OA
ATOM     18  C   UNL     1       5.748   5.758  19.257  0.00  0.00    +0.000 C 
ATOM     19  C   UNL     1       4.610   5.291  17.080  0.00  0.00    +0.000 C 
ENDBRANCH   4  10
BRANCH   8  20
ATOM     20  C   UNL     1      -0.032   8.808  21.596  0.00  0.00    +0.000 C 
ATOM     21  C   UNL     1       0.523   9.370  22.885  0.00  0.00    +0.000 C 
ATOM     22  C   UNL     1      -0.354  10.213  22.019  0.00  0.00    +0.000 C 
ENDBRANCH   8  20
TORSDOF 2
ENDMDL
MODEL 5
REMARK VINA RESULT:      -6.7      4.277      5.575
REMARK  Name = 
REMARK  2 active torsions:
REMARK  status: ('A' for Active; 'I' for Inactive)
REMARK    1  A    between atoms: N_4  and  C_5
REMARK    2  A    between atoms: N_18  and  C_19
REMARK                            x       y       z     vdW  Elec       q    Type
REMARK                         _______ _______ _______ _____ _____    ______ ____
ROOT
ATOM      1  O   UNL     1       5.753   5.523  19.569  0.00  0.00    +0.000 OA
ATOM      2  C   UNL     1       5.942   5.430  18.360  0.00  0.00    +0.000 A 
ATOM      3  C   UNL     1       5.362   4.180  17.611  0.00  0.00    +0.000 A 
ATOM      4  N   UNL     1       4.598   3.289  18.335  0.00  0.00    +0.000 N 
ATOM      5  N   UNL     1       5.585   3.978  16.341  0.00  0.00    +0.000 NA
ATOM      6  C   UNL     1       6.371   4.888  15.694  0.00  0.00    +0.000 A 
ATOM      7  C   UNL     1       6.840   6.019  16.225  0.00  0.00    +0.000 A 
ATOM      8  N   UNL     1       6.590   6.335  17.538  0.00  0.00    +0.000 N 
ATOM      9  H   UNL     1       4.639   3.411  19.344  0.00  0.00    +0.000 HD
ENDROOT
BRANCH   4  10
ATOM     10  C   UNL     1       3.566   2.422  17.787  0.00  0.00    +0.000 C 
ATOM     11  C   UNL     1       2.693   3.243  16.863  0.00  0.00    +0.000 C 
ATOM     12  C   UNL     1       1.862   4.262  17.637  0.00  0.00    +0.000 C 
ATOM     13  O   UNL     1       1.717   4.120  19.048  0.00  0.00    +0.000 OA
ATOM     14  C   UNL     1       2.060   2.907  19.740  0.00  0.00    +0.000 C 
ATOM     15  C   UNL     1       0.823   2.513  20.564  0.00  0.00    +0.000 C 
ATOM     16  C   UNL     1       1.271   2.542  22.015  0.00  0.00    +0.000 C 
ATOM     17  O   UNL     1       2.380   3.433  22.063  0.00  0.00    +0.000 OA
ATOM     18  C   UNL     1       3.100   3.202  20.846  0.00  0.00    +0.000 C 
ATOM     19  C   UNL     1       2.613   1.820  18.821  0.00  0.00    +0.000 C 
ENDBRANCH   4  10
BRANCH   8  20
ATOM     20  C   UNL     1       7.062   7.624  18.010  0.00  0.00    +0.000 C 
ATOM     21  C   UNL     1       8.434   7.735  18.634  0.00  0.00    +0.000 C 
ATOM     22  C   UNL     1       8.150   8.402  17.329  0.00  0.00    +0.000 C 
ENDBRANCH   8  20
TORSDOF 2
ENDMDL
MODEL 6
REMARK VINA RESULT:      -6.2      4.492      6.139
REMARK  Name = 
REMARK  2 active torsions:
REMARK  status: ('A' for Active; 'I' for Inactive)
REMARK    1  A    between atoms: N_4  and  C_5
REMARK    2  A    between atoms: N_18  and  C_19
REMARK                            x       y       z     vdW  Elec       q    Type
REMARK                         _______ _______ _______ _____ _____    ______ ____
ROOT
ATOM      1  O   UNL     1       2.797   3.017  16.976  0.00  0.00    +0.000 OA
ATOM      2  C   UNL     1       3.329   2.961  18.080  0.00  0.00    +0.000 A 
ATOM      3  C   UNL     1       4.826   3.412  18.207  0.00  0.00    +0.000 A 
ATOM      4  N   UNL     1       5.445   3.925  17.086  0.00  0.00    +0.000 N 
ATOM      5  N   UNL     1       5.479   3.312  19.333  0.00  0.00    +0.000 NA
ATOM      6  C   UNL     1       4.811   2.771  20.394  0.00  0.00    +0.000 A 
ATOM      7  C   UNL     1       3.520   2.436  20.403  0.00  0.00    +0.000 A 
ATOM      8  N   UNL     1       2.749   2.575  19.275  0.00  0.00    +0.000 N 
ATOM      9  H   UNL     1       4.937   3.785  16.215  0.00  0.00    +0.000 HD
ENDROOT
BRANCH   4  10
ATOM     10  C   UNL     1       6.561   4.858  17.090  0.00  0.00    +0.000 C 
ATOM     11  C   UNL     1       6.009   6.264  17.178  0.00  0.00    +0.000 C 
ATOM     12  C   UNL     1       5.281   6.660  15.897  0.00  0.00    +0.000 C 
ATOM     13  O   UNL     1       5.479   5.892  14.713  0.00  0.00    +0.000 OA
ATOM     14  C   UNL     1       6.554   4.947  14.578  0.00  0.00    +0.000 C 
ATOM     15  C   UNL     1       7.295   5.315  13.282  0.00  0.00    +0.000 C 
ATOM     16  C   UNL     1       7.162   4.105  12.375  0.00  0.00    +0.000 C 
ATOM     17  O   UNL     1       5.992   3.419  12.810  0.00  0.00    +0.000 OA
ATOM     18  C   UNL     1       5.991   3.547  14.237  0.00  0.00    +0.000 C 
ATOM     19  C   UNL     1       7.424   4.837  15.828  0.00  0.00    +0.000 C 
ENDBRANCH   4  10
BRANCH   8  20
ATOM     20  C   UNL     1       1.335   2.270  19.397  0.00  0.00    +0.000 C 
ATOM     21  C   UNL     1       0.451   3.155  20.247  0.00  0.00    +0.000 C 
ATOM     22  C   UNL     1       0.256   3.103  18.767  0.00  0.00    +0.000 C 
ENDBRANCH   8  20
TORSDOF 2
ENDMDL
MODEL 7
REMARK VINA RESULT:      -6.2      2.449      3.966
REMARK  Name = 
REMARK  2 active torsions:
REMARK  status: ('A' for Active; 'I' for Inactive)
REMARK    1  A    between atoms: N_4  and  C_5
REMARK    2  A    between atoms: N_18  and  C_19
REMARK                            x       y       z     vdW  Elec       q    Type
REMARK                         _______ _______ _______ _____ _____    ______ ____
ROOT
ATOM      1  O   UNL     1       2.949   7.692  18.464  0.00  0.00    +0.000 OA
ATOM      2  C   UNL     1       2.840   6.750  19.242  0.00  0.00    +0.000 A 
ATOM      3  C   UNL     1       3.915   5.609  19.183  0.00  0.00    +0.000 A 
ATOM      4  N   UNL     1       4.975   5.763  18.314  0.00  0.00    +0.000 N 
ATOM      5  N   UNL     1       3.823   4.542  19.929  0.00  0.00    +0.000 NA
ATOM      6  C   UNL     1       2.733   4.445  20.746  0.00  0.00    +0.000 A 
ATOM      7  C   UNL     1       1.814   5.396  20.923  0.00  0.00    +0.000 A 
ATOM      8  N   UNL     1       1.880   6.576  20.223  0.00  0.00    +0.000 N 
ATOM      9  H   UNL     1       4.868   6.515  17.637  0.00  0.00    +0.000 HD
ENDROOT
BRANCH   4  10
ATOM     10  C   UNL     1       6.289   5.159  18.470  0.00  0.00    +0.000 C 
ATOM     11  C   UNL     1       7.312   6.268  18.593  0.00  0.00    +0.000 C 
ATOM     12  C   UNL     1       7.475   7.026  17.279  0.00  0.00    +0.000 C 
ATOM     13  O   UNL     1       6.975   6.454  16.073  0.00  0.00    +0.000 OA
ATOM     14  C   UNL     1       6.594   5.070  15.977  0.00  0.00    +0.000 C 
ATOM     15  C   UNL     1       7.358   4.493  14.774  0.00  0.00    +0.000 C 
ATOM     16  C   UNL     1       6.293   4.042  13.789  0.00  0.00    +0.000 C 
ATOM     17  O   UNL     1       5.139   4.824  14.080  0.00  0.00    +0.000 OA
ATOM     18  C   UNL     1       5.124   4.956  15.506  0.00  0.00    +0.000 C 
ATOM     19  C   UNL     1       6.752   4.306  17.289  0.00  0.00    +0.000 C 
ENDBRANCH   4  10
BRANCH   8  20
ATOM     20  C   UNL     1       0.892   7.590  20.541  0.00  0.00    +0.000 C 
ATOM     21  C   UNL     1       1.134   8.534  21.696  0.00  0.00    +0.000 C 
ATOM     22  C   UNL     1       1.108   9.056  20.297  0.00  0.00    +0.000 C 
ENDBRANCH   8  20
TORSDOF 2
ENDMDL
MODEL 8
REMARK VINA RESULT:      -6.1      2.040      3.225
REMARK  Name = 
REMARK  2 active torsions:
REMARK  status: ('A' for Active; 'I' for Inactive)
REMARK    1  A    between atoms: N_4  and  C_5
REMARK    2  A    between atoms: N_18  and  C_19
REMARK                            x       y       z     vdW  Elec       q    Type
REMARK                         _______ _______ _______ _____ _____    ______ ____
ROOT
ATOM      1  O   UNL     1       2.802   8.039  17.473  0.00  0.00    +0.000 OA
ATOM      2  C   UNL     1       2.401   7.628  18.556  0.00  0.00    +0.000 A 
ATOM      3  C   UNL     1       2.667   6.127  18.926  0.00  0.00    +0.000 A 
ATOM      4  N   UNL     1       3.411   5.366  18.049  0.00  0.00    +0.000 N 
ATOM      5  N   UNL     1       2.207   5.602  20.029  0.00  0.00    +0.000 NA
ATOM      6  C   UNL     1       1.457   6.407  20.837  0.00  0.00    +0.000 A 
ATOM      7  C   UNL     1       1.247   7.711  20.647  0.00  0.00    +0.000 A 
ATOM      8  N   UNL     1       1.755   8.351  19.544  0.00  0.00    +0.000 N 
ATOM      9  H   UNL     1       3.558   5.789  17.135  0.00  0.00    +0.000 HD
ENDROOT
BRANCH   4  10
ATOM     10  C   UNL     1       4.205   4.201  18.405  0.00  0.00    +0.000 C 
ATOM     11  C   UNL     1       5.119   4.578  19.551  0.00  0.00    +0.000 C 
ATOM     12  C   UNL     1       6.197   5.562  19.106  0.00  0.00    +0.000 C 
ATOM     13  O   UNL     1       6.452   5.739  17.715  0.00  0.00    +0.000 OA
ATOM     14  C   UNL     1       5.960   4.826  16.719  0.00  0.00    +0.000 C 
ATOM     15  C   UNL     1       7.178   4.400  15.883  0.00  0.00    +0.000 C 
ATOM     16  C   UNL     1       6.890   4.869  14.468  0.00  0.00    +0.000 C 
ATOM     17  O   UNL     1       5.975   5.953  14.596  0.00  0.00    +0.000 OA
ATOM     18  C   UNL     1       5.108   5.586  15.676  0.00  0.00    +0.000 C 
ATOM     19  C   UNL     1       5.127   3.686  17.300  0.00  0.00    +0.000 C 
ENDBRANCH   4  10
BRANCH   8  20
ATOM     20  C   UNL     1       1.554   9.786  19.460  0.00  0.00    +0.000 C 
ATOM     21  C   UNL     1       0.344  10.330  18.734  0.00  0.00    +0.000 C 
ATOM     22  C   UNL     1       0.475  10.512  20.211  0.00  0.00    +0.000 C 
ENDBRANCH   8  20
TORSDOF 2
ENDMDL
MODEL 9
REMARK VINA RESULT:      -6.1      3.423      5.981
REMARK  Name = 
REMARK  2 active torsions:
REMARK  status: ('A' for Active; 'I' for Inactive)
REMARK    1  A    between atoms: N_4  and  C_5
REMARK    2  A    between atoms: N_18  and  C_19
REMARK                            x       y       z     vdW  Elec       q    Type
REMARK                         _______ _______ _______ _____ _____    ______ ____
ROOT
ATOM      1  O   UNL     1       3.841   2.290  18.578  0.00  0.00    +0.000 OA
ATOM      2  C   UNL     1       3.353   3.359  18.931  0.00  0.00    +0.000 A 
ATOM      3  C   UNL     1       3.807   4.664  18.189  0.00  0.00    +0.000 A 
ATOM      4  N   UNL     1       4.672   4.535  17.122  0.00  0.00    +0.000 N 
ATOM      5  N   UNL     1       3.386   5.843  18.557  0.00  0.00    +0.000 NA
ATOM      6  C   UNL     1       2.551   5.897  19.636  0.00  0.00    +0.000 A 
ATOM      7  C   UNL     1       2.048   4.841  20.277  0.00  0.00    +0.000 A 
ATOM      8  N   UNL     1       2.392   3.564  19.905  0.00  0.00    +0.000 N 
ATOM      9  H   UNL     1       5.102   3.617  17.029  0.00  0.00    +0.000 HD
ENDROOT
BRANCH   4  10
ATOM     10  C   UNL     1       4.788   5.466  16.010  0.00  0.00    +0.000 C 
ATOM     11  C   UNL     1       5.513   4.770  14.879  0.00  0.00    +0.000 C 
ATOM     12  C   UNL     1       6.977   4.518  15.224  0.00  0.00    +0.000 C 
ATOM     13  O   UNL     1       7.569   5.214  16.317  0.00  0.00    +0.000 OA
ATOM     14  C   UNL     1       6.950   6.361  16.926  0.00  0.00    +0.000 C 
ATOM     15  C   UNL     1       8.008   7.477  16.922  0.00  0.00    +0.000 C 
ATOM     16  C   UNL     1       8.254   7.815  18.382  0.00  0.00    +0.000 C 
ATOM     17  O   UNL     1       7.896   6.649  19.117  0.00  0.00    +0.000 OA
ATOM     18  C   UNL     1       6.751   6.116  18.441  0.00  0.00    +0.000 C 
ATOM     19  C   UNL     1       5.604   6.725  16.304  0.00  0.00    +0.000 C 
ENDBRANCH   4  10
BRANCH   8  20
ATOM     20  C   UNL     1       1.733   2.473  20.597  0.00  0.00    +0.000 C 
ATOM     21  C   UNL     1       2.402   1.832  21.792  0.00  0.00    +0.000 C 
ATOM     22  C   UNL     1       1.138   2.608  21.969  0.00  0.00    +0.000 C 
ENDBRANCH   8  20
TORSDOF 2
ENDMDL
