MODEL 1
REMARK VINA RESULT:      -7.8      0.000      0.000
REMARK  Name = 
REMARK  6 active torsions:
REMARK  status: ('A' for Active; 'I' for Inactive)
REMARK    1  A    between atoms: C_1  and  O_2
REMARK    2  A    between atoms: O_2  and  C_3
REMARK    3  A    between atoms: C_6  and  C_7
REMARK    4  A    between atoms: C_11  and  S_12
REMARK    5  A    between atoms: S_12  and  C_13
REMARK    6  A    between atoms: C_13  and  C_14
REMARK                            x       y       z     vdW  Elec       q    Type
REMARK                         _______ _______ _______ _____ _____    ______ ____
ROOT
ATOM      1  C   UNL     1       7.932   7.885  18.131  0.00  0.00    +0.000 A 
ATOM      2  C   UNL     1       8.351   6.888  18.991  0.00  0.00    +0.000 A 
ATOM      3  C   UNL     1       7.839   5.636  18.758  0.00  0.00    +0.000 A 
ATOM      4  N   UNL     1       6.977   5.356  17.777  0.00  0.00    +0.000 NA
ATOM      5  C   UNL     1       6.632   6.376  16.983  0.00  0.00    +0.000 A 
ATOM      6  N   UNL     1       7.073   7.636  17.119  0.00  0.00    +0.000 NA
ENDROOT
BRANCH   1  10
ATOM      7  C   UNL     1       9.223  11.979  18.538  0.00  0.00    +0.000 A 
ATOM      8  C   UNL     1       8.299  11.630  17.556  0.00  0.00    +0.000 A 
ATOM      9  C   UNL     1       7.882  10.303  17.416  0.00  0.00    +0.000 A 
ATOM     10  C   UNL     1       8.391   9.286  18.237  0.00  0.00    +0.000 A 
ATOM     11  C   UNL     1       9.351   9.657  19.198  0.00  0.00    +0.000 A 
ATOM     12  C   UNL     1       9.765  10.986  19.348  0.00  0.00    +0.000 A 
BRANCH   7  14
ATOM     13  C   UNL     1      10.852  13.639  18.146  0.00  0.00    +0.000 C 
ATOM     14  O   UNL     1       9.542  13.307  18.596  0.00  0.00    +0.000 OA
ENDBRANCH   7  14
ENDBRANCH   1  10
BRANCH   5  15
ATOM     15  S   UNL     1       5.470   6.027  15.691  0.00  0.00    +0.000 S 
BRANCH  15  16
ATOM     16  C   UNL     1       4.928   4.367  16.190  0.00  0.00    +0.000 C 
BRANCH  16  17
ATOM     17  C   UNL     1       3.886   4.432  17.291  0.00  0.00    +0.000 C 
ATOM     18  O   UNL     1       3.208   5.442  17.470  0.00  0.00    +0.000 OA
ATOM     19  N   UNL     1       3.795   3.275  18.044  0.00  0.00    +0.000 N 
ATOM     20  C   UNL     1       2.931   3.174  19.138  0.00  0.00    +0.000 A 
ATOM     21  C   UNL     1       1.624   3.649  19.089  0.00  0.00    +0.000 A 
ATOM     22  C   UNL     1       0.853   3.611  20.246  0.00  0.00    +0.000 A 
ATOM     23  C   UNL     1       1.415   3.115  21.414  0.00  0.00    +0.000 A 
ATOM     24  C   UNL     1       2.710   2.623  21.356  0.00  0.00    +0.000 A 
ATOM     25  N   UNL     1       3.470   2.605  20.234  0.00  0.00    +0.000 NA
ATOM     26  H   UNL     1       4.654   2.748  18.169  0.00  0.00    +0.000 HD
ENDBRANCH  16  17
ENDBRANCH  15  16
ENDBRANCH   5  15
TORSDOF 5
ENDMDL
MODEL 2
REMARK VINA RESULT:      -7.8      3.399      6.396
REMARK  Name = 
REMARK  6 active torsions:
REMARK  status: ('A' for Active; 'I' for Inactive)
REMARK    1  A    between atoms: C_1  and  O_2
REMARK    2  A    between atoms: O_2  and  C_3
REMARK    3  A    between atoms: C_6  and  C_7
REMARK    4  A    between atoms: C_11  and  S_12
REMARK    5  A    between atoms: S_12  and  C_13
REMARK    6  A    between atoms: C_13  and  C_14
REMARK                            x       y       z     vdW  Elec       q    Type
REMARK                         _______ _______ _______ _____ _____    ______ ____
ROOT
ATOM      1  C   UNL     1       2.069   5.510  19.895  0.00  0.00    +0.000 A 
ATOM      2  C   UNL     1       2.049   5.107  21.217  0.00  0.00    +0.000 A 
ATOM      3  C   UNL     1       2.119   3.754  21.436  0.00  0.00    +0.000 A 
ATOM      4  N   UNL     1       2.189   2.846  20.460  0.00  0.00    +0.000 NA
ATOM      5  C   UNL     1       2.215   3.320  19.210  0.00  0.00    +0.000 A 
ATOM      6  N   UNL     1       2.155   4.621  18.882  0.00  0.00    +0.000 NA
ENDROOT
BRANCH   1  10
ATOM      7  C   UNL     1       1.785   9.644  18.701  0.00  0.00    +0.000 A 
ATOM      8  C   UNL     1       2.294   8.692  17.820  0.00  0.00    +0.000 A 
ATOM      9  C   UNL     1       2.394   7.352  18.204  0.00  0.00    +0.000 A 
ATOM     10  C   UNL     1       2.009   6.929  19.484  0.00  0.00    +0.000 A 
ATOM     11  C   UNL     1       1.532   7.913  20.370  0.00  0.00    +0.000 A 
ATOM     12  C   UNL     1       1.422   9.256  19.987  0.00  0.00    +0.000 A 
BRANCH   7  14
ATOM     13  C   UNL     1       0.842  11.794  18.916  0.00  0.00    +0.000 C 
ATOM     14  O   UNL     1       1.715  10.918  18.211  0.00  0.00    +0.000 OA
ENDBRANCH   7  14
ENDBRANCH   1  10
BRANCH   5  15
ATOM     15  S   UNL     1       2.285   2.127  17.901  0.00  0.00    +0.000 S 
BRANCH  15  16
ATOM     16  C   UNL     1       4.083   1.888  17.786  0.00  0.00    +0.000 C 
BRANCH  16  17
ATOM     17  C   UNL     1       4.793   3.182  17.439  0.00  0.00    +0.000 C 
ATOM     18  O   UNL     1       4.863   3.581  16.278  0.00  0.00    +0.000 OA
ATOM     19  N   UNL     1       5.340   3.831  18.532  0.00  0.00    +0.000 N 
ATOM     20  C   UNL     1       6.081   5.007  18.396  0.00  0.00    +0.000 A 
ATOM     21  C   UNL     1       5.674   6.041  17.557  0.00  0.00    +0.000 A 
ATOM     22  C   UNL     1       6.512   7.137  17.389  0.00  0.00    +0.000 A 
ATOM     23  C   UNL     1       7.733   7.160  18.049  0.00  0.00    +0.000 A 
ATOM     24  C   UNL     1       8.034   6.106  18.898  0.00  0.00    +0.000 A 
ATOM     25  N   UNL     1       7.218   5.046  19.117  0.00  0.00    +0.000 NA
ATOM     26  H   UNL     1       5.669   3.241  19.289  0.00  0.00    +0.000 HD
ENDBRANCH  16  17
ENDBRANCH  15  16
ENDBRANCH   5  15
TORSDOF 5
ENDMDL
MODEL 3
REMARK VINA RESULT:      -7.8      4.227      7.169
REMARK  Name = 
REMARK  6 active torsions:
REMARK  status: ('A' for Active; 'I' for Inactive)
REMARK    1  A    between atoms: C_1  and  O_2
REMARK    2  A    between atoms: O_2  and  C_3
REMARK    3  A    between atoms: C_6  and  C_7
REMARK    4  A    between atoms: C_11  and  S_12
REMARK    5  A    between atoms: S_12  and  C_13
REMARK    6  A    between atoms: C_13  and  C_14
REMARK                            x       y       z     vdW  Elec       q    Type
REMARK                         _______ _______ _______ _____ _____    ______ ____
ROOT
ATOM      1  C   UNL     1       2.844   6.420  18.802  0.00  0.00    +0.000 A 
ATOM      2  C   UNL     1       2.203   5.265  18.397  0.00  0.00    +0.000 A 
ATOM      3  C   UNL     1       2.979   4.135  18.336  0.00  0.00    +0.000 A 
ATOM      4  N   UNL     1       4.281   4.110  18.631  0.00  0.00    +0.000 NA
ATOM      5  C   UNL     1       4.821   5.268  19.026  0.00  0.00    +0.000 A 
ATOM      6  N   UNL     1       4.156   6.430  19.123  0.00  0.00    +0.000 NA
ENDROOT
BRANCH   1  10
ATOM      7  C   UNL     1       0.742  10.166  19.183  0.00  0.00    +0.000 A 
ATOM      8  C   UNL     1       1.341   9.818  17.974  0.00  0.00    +0.000 A 
ATOM      9  C   UNL     1       2.029   8.607  17.847  0.00  0.00    +0.000 A 
ATOM     10  C   UNL     1       2.156   7.722  18.928  0.00  0.00    +0.000 A 
ATOM     11  C   UNL     1       1.573   8.112  20.149  0.00  0.00    +0.000 A 
ATOM     12  C   UNL     1       0.876   9.319  20.278  0.00  0.00    +0.000 A 
BRANCH   7  14
ATOM     13  C   UNL     1      -1.102  11.402  19.978  0.00  0.00    +0.000 C 
ATOM     14  O   UNL     1       0.080  11.362  19.184  0.00  0.00    +0.000 OA
ENDBRANCH   7  14
ENDBRANCH   1  10
BRANCH   5  15
ATOM     15  S   UNL     1       6.554   5.258  19.399  0.00  0.00    +0.000 S 
BRANCH  15  16
ATOM     16  C   UNL     1       7.207   6.035  17.892  0.00  0.00    +0.000 C 
BRANCH  16  17
ATOM     17  C   UNL     1       7.031   5.136  16.684  0.00  0.00    +0.000 C 
ATOM     18  O   UNL     1       6.939   3.916  16.803  0.00  0.00    +0.000 OA
ATOM     19  N   UNL     1       6.996   5.817  15.480  0.00  0.00    +0.000 N 
ATOM     20  C   UNL     1       6.898   5.148  14.257  0.00  0.00    +0.000 A 
ATOM     21  C   UNL     1       6.021   4.083  14.069  0.00  0.00    +0.000 A 
ATOM     22  C   UNL     1       6.051   3.396  12.861  0.00  0.00    +0.000 A 
ATOM     23  C   UNL     1       6.962   3.783  11.887  0.00  0.00    +0.000 A 
ATOM     24  C   UNL     1       7.765   4.883  12.147  0.00  0.00    +0.000 A 
ATOM     25  N   UNL     1       7.727   5.600  13.297  0.00  0.00    +0.000 NA
ATOM     26  H   UNL     1       7.552   6.664  15.424  0.00  0.00    +0.000 HD
ENDBRANCH  16  17
ENDBRANCH  15  16
ENDBRANCH   5  15
TORSDOF 5
ENDMDL
MODEL 4
REMARK VINA RESULT:      -7.7      7.768      9.707
REMARK  Name = 
REMARK  6 active torsions:
REMARK  status: ('A' for Active; 'I' for Inactive)
REMARK    1  A    between atoms: C_1  and  O_2
REMARK    2  A    between atoms: O_2  and  C_3
REMARK    3  A    between atoms: C_6  and  C_7
REMARK    4  A    between atoms: C_11  and  S_12
REMARK    5  A    between atoms: S_12  and  C_13
REMARK    6  A    between atoms: C_13  and  C_14
REMARK                            x       y       z     vdW  Elec       q    Type
REMARK                         _______ _______ _______ _____ _____    ______ ____
ROOT
ATOM      1  C   UNL     1       0.581   9.663  21.233  0.00  0.00    +0.000 A 
ATOM      2  C   UNL     1      -0.147   9.197  22.312  0.00  0.00    +0.000 A 
ATOM      3  C   UNL     1      -0.745  10.153  23.094  0.00  0.00    +0.000 A 
ATOM      4  N   UNL     1      -0.645  11.466  22.871  0.00  0.00    +0.000 NA
ATOM      5  C   UNL     1       0.068  11.832  21.800  0.00  0.00    +0.000 A 
ATOM      6  N   UNL     1       0.691  10.983  20.968  0.00  0.00    +0.000 NA
ENDROOT
BRANCH   1  10
ATOM      7  C   UNL     1       2.533   7.047  18.416  0.00  0.00    +0.000 A 
ATOM      8  C   UNL     1       2.355   6.646  19.738  0.00  0.00    +0.000 A 
ATOM      9  C   UNL     1       1.728   7.493  20.657  0.00  0.00    +0.000 A 
ATOM     10  C   UNL     1       1.281   8.770  20.287  0.00  0.00    +0.000 A 
ATOM     11  C   UNL     1       1.504   9.167  18.955  0.00  0.00    +0.000 A 
ATOM     12  C   UNL     1       2.124   8.319  18.029  0.00  0.00    +0.000 A 
BRANCH   7  14
ATOM     13  C   UNL     1       3.226   4.811  18.131  0.00  0.00    +0.000 C 
ATOM     14  O   UNL     1       3.139   6.130  17.603  0.00  0.00    +0.000 OA
ENDBRANCH   7  14
ENDBRANCH   1  10
BRANCH   5  15
ATOM     15  S   UNL     1       0.230  13.571  21.501  0.00  0.00    +0.000 S 
BRANCH  15  16
ATOM     16  C   UNL     1      -1.306  13.880  20.583  0.00  0.00    +0.000 C 
BRANCH  16  17
ATOM     17  C   UNL     1      -1.386  13.026  19.332  0.00  0.00    +0.000 C 
ATOM     18  O   UNL     1      -0.460  12.989  18.523  0.00  0.00    +0.000 OA
ATOM     19  N   UNL     1      -2.573  12.328  19.206  0.00  0.00    +0.000 N 
ATOM     20  C   UNL     1      -2.848  11.535  18.088  0.00  0.00    +0.000 A 
ATOM     21  C   UNL     1      -1.894  10.682  17.539  0.00  0.00    +0.000 A 
ATOM     22  C   UNL     1      -2.199  10.002  16.365  0.00  0.00    +0.000 A 
ATOM     23  C   UNL     1      -3.438  10.206  15.771  0.00  0.00    +0.000 A 
ATOM     24  C   UNL     1      -4.340  11.040  16.414  0.00  0.00    +0.000 A 
ATOM     25  N   UNL     1      -4.087  11.680  17.581  0.00  0.00    +0.000 NA
ATOM     26  H   UNL     1      -3.402  12.773  19.587  0.00  0.00    +0.000 HD
ENDBRANCH  16  17
ENDBRANCH  15  16
ENDBRANCH   5  15
TORSDOF 5
ENDMDL
MODEL 5
REMARK VINA RESULT:      -7.7      2.301      9.567
REMARK  Name = 
REMARK  6 active torsions:
REMARK  status: ('A' for Active; 'I' for Inactive)
REMARK    1  A    between atoms: C_1  and  O_2
REMARK    2  A    between atoms: O_2  and  C_3
REMARK    3  A    between atoms: C_6  and  C_7
REMARK    4  A    between atoms: C_11  and  S_12
REMARK    5  A    between atoms: S_12  and  C_13
REMARK    6  A    between atoms: C_13  and  C_14
REMARK                            x       y       z     vdW  Elec       q    Type
REMARK                         _______ _______ _______ _____ _____    ______ ____
ROOT
ATOM      1  C   UNL     1       5.326   4.800  17.322  0.00  0.00    +0.000 A 
ATOM      2  C   UNL     1       5.508   4.663  15.959  0.00  0.00    +0.000 A 
ATOM      3  C   UNL     1       6.579   5.333  15.423  0.00  0.00    +0.000 A 
ATOM      4  N   UNL     1       7.412   6.095  16.137  0.00  0.00    +0.000 NA
ATOM      5  C   UNL     1       7.172   6.165  17.450  0.00  0.00    +0.000 A 
ATOM      6  N   UNL     1       6.157   5.550  18.078  0.00  0.00    +0.000 NA
ENDROOT
BRANCH   1  10
ATOM      7  C   UNL     1       2.063   2.968  19.464  0.00  0.00    +0.000 A 
ATOM      8  C   UNL     1       3.284   3.187  20.099  0.00  0.00    +0.000 A 
ATOM      9  C   UNL     1       4.347   3.775  19.407  0.00  0.00    +0.000 A 
ATOM     10  C   UNL     1       4.227   4.141  18.059  0.00  0.00    +0.000 A 
ATOM     11  C   UNL     1       2.997   3.877  17.428  0.00  0.00    +0.000 A 
ATOM     12  C   UNL     1       1.926   3.296  18.119  0.00  0.00    +0.000 A 
BRANCH   7  14
ATOM     13  C   UNL     1       1.225   2.633  21.643  0.00  0.00    +0.000 C 
ATOM     14  O   UNL     1       1.090   2.407  20.244  0.00  0.00    +0.000 OA
ENDBRANCH   7  14
ENDBRANCH   1  10
BRANCH   5  15
ATOM     15  S   UNL     1       8.254   7.190  18.410  0.00  0.00    +0.000 S 
BRANCH  15  16
ATOM     16  C   UNL     1       7.846   8.819  17.717  0.00  0.00    +0.000 C 
BRANCH  16  17
ATOM     17  C   UNL     1       8.653   9.920  18.378  0.00  0.00    +0.000 C 
ATOM     18  O   UNL     1       9.274   9.720  19.419  0.00  0.00    +0.000 OA
ATOM     19  N   UNL     1       8.603  11.129  17.707  0.00  0.00    +0.000 N 
ATOM     20  C   UNL     1       9.238  12.272  18.200  0.00  0.00    +0.000 A 
ATOM     21  C   UNL     1      10.526  12.229  18.726  0.00  0.00    +0.000 A 
ATOM     22  C   UNL     1      11.057  13.382  19.295  0.00  0.00    +0.000 A 
ATOM     23  C   UNL     1      10.281  14.533  19.334  0.00  0.00    +0.000 A 
ATOM     24  C   UNL     1       9.026  14.493  18.746  0.00  0.00    +0.000 A 
ATOM     25  N   UNL     1       8.501  13.398  18.144  0.00  0.00    +0.000 NA
ATOM     26  H   UNL     1       7.741  11.338  17.214  0.00  0.00    +0.000 HD
ENDBRANCH  16  17
ENDBRANCH  15  16
ENDBRANCH   5  15
TORSDOF 5
ENDMDL
MODEL 6
REMARK VINA RESULT:      -7.6      4.176      7.139
REMARK  Name = 
REMARK  6 active torsions:
REMARK  status: ('A' for Active; 'I' for Inactive)
REMARK    1  A    between atoms: C_1  and  O_2
REMARK    2  A    between atoms: O_2  and  C_3
REMARK    3  A    between atoms: C_6  and  C_7
REMARK    4  A    between atoms: C_11  and  S_12
REMARK    5  A    between atoms: S_12  and  C_13
REMARK    6  A    between atoms: C_13  and  C_14
REMARK                            x       y       z     vdW  Elec       q    Type
REMARK                         _______ _______ _______ _____ _____    ______ ____
ROOT
ATOM      1  C   UNL     1       2.331   6.174  19.898  0.00  0.00    +0.000 A 
ATOM      2  C   UNL     1       1.638   5.301  20.715  0.00  0.00    +0.000 A 
ATOM      3  C   UNL     1       2.174   4.045  20.848  0.00  0.00    +0.000 A 
ATOM      4  N   UNL     1       3.289   3.643  20.232  0.00  0.00    +0.000 NA
ATOM      5  C   UNL     1       3.903   4.553  19.468  0.00  0.00    +0.000 A 
ATOM      6  N   UNL     1       3.469   5.808  19.271  0.00  0.00    +0.000 NA
ENDROOT
BRANCH   1  10
ATOM      7  C   UNL     1       1.166  10.261  19.170  0.00  0.00    +0.000 A 
ATOM      8  C   UNL     1       0.917   9.671  20.407  0.00  0.00    +0.000 A 
ATOM      9  C   UNL     1       1.287   8.344  20.646  0.00  0.00    +0.000 A 
ATOM     10  C   UNL     1       1.895   7.565  19.652  0.00  0.00    +0.000 A 
ATOM     11  C   UNL     1       2.104   8.171  18.398  0.00  0.00    +0.000 A 
ATOM     12  C   UNL     1       1.743   9.502  18.157  0.00  0.00    +0.000 A 
BRANCH   7  14
ATOM     13  C   UNL     1      -0.172  12.007  20.020  0.00  0.00    +0.000 C 
ATOM     14  O   UNL     1       0.780  11.568  19.056  0.00  0.00    +0.000 OA
ENDBRANCH   7  14
ENDBRANCH   1  10
BRANCH   5  15
ATOM     15  S   UNL     1       5.372   4.031  18.624  0.00  0.00    +0.000 S 
BRANCH  15  16
ATOM     16  C   UNL     1       6.096   5.647  18.217  0.00  0.00    +0.000 C 
BRANCH  16  17
ATOM     17  C   UNL     1       6.409   5.756  16.737  0.00  0.00    +0.000 C 
ATOM     18  O   UNL     1       6.530   6.850  16.189  0.00  0.00    +0.000 OA
ATOM     19  N   UNL     1       6.530   4.535  16.099  0.00  0.00    +0.000 N 
ATOM     20  C   UNL     1       6.758   4.442  14.723  0.00  0.00    +0.000 A 
ATOM     21  C   UNL     1       7.683   5.256  14.075  0.00  0.00    +0.000 A 
ATOM     22  C   UNL     1       7.783   5.183  12.689  0.00  0.00    +0.000 A 
ATOM     23  C   UNL     1       6.951   4.313  11.998  0.00  0.00    +0.000 A 
ATOM     24  C   UNL     1       6.093   3.509  12.733  0.00  0.00    +0.000 A 
ATOM     25  N   UNL     1       6.004   3.526  14.085  0.00  0.00    +0.000 NA
ATOM     26  H   UNL     1       5.953   3.780  16.456  0.00  0.00    +0.000 HD
ENDBRANCH  16  17
ENDBRANCH  15  16
ENDBRANCH   5  15
TORSDOF 5
ENDMDL
MODEL 7
REMARK VINA RESULT:      -7.6      6.761      9.014
REMARK  Name = 
REMARK  6 active torsions:
REMARK  status: ('A' for Active; 'I' for Inactive)
REMARK    1  A    between atoms: C_1  and  O_2
REMARK    2  A    between atoms: O_2  and  C_3
REMARK    3  A    between atoms: C_6  and  C_7
REMARK    4  A    between atoms: C_11  and  S_12
REMARK    5  A    between atoms: S_12  and  C_13
REMARK    6  A    between atoms: C_13  and  C_14
REMARK                            x       y       z     vdW  Elec       q    Type
REMARK                         _______ _______ _______ _____ _____    ______ ____
ROOT
ATOM      1  C   UNL     1      -1.129  11.012  19.675  0.00  0.00    +0.000 A 
ATOM      2  C   UNL     1      -1.120  12.167  20.435  0.00  0.00    +0.000 A 
ATOM      3  C   UNL     1      -0.342  12.140  21.565  0.00  0.00    +0.000 A 
ATOM      4  N   UNL     1       0.369  11.078  21.953  0.00  0.00    +0.000 NA
ATOM      5  C   UNL     1       0.314  10.006  21.155  0.00  0.00    +0.000 A 
ATOM      6  N   UNL     1      -0.410   9.925  20.028  0.00  0.00    +0.000 NA
ENDROOT
BRANCH   1  10
ATOM      7  C   UNL     1      -3.479  10.566  16.088  0.00  0.00    +0.000 A 
ATOM      8  C   UNL     1      -2.287   9.860  16.238  0.00  0.00    +0.000 A 
ATOM      9  C   UNL     1      -1.519  10.006  17.397  0.00  0.00    +0.000 A 
ATOM     10  C   UNL     1      -1.907  10.875  18.426  0.00  0.00    +0.000 A 
ATOM     11  C   UNL     1      -3.095  11.605  18.236  0.00  0.00    +0.000 A 
ATOM     12  C   UNL     1      -3.873  11.457  17.082  0.00  0.00    +0.000 A 
BRANCH   7  14
ATOM     13  C   UNL     1      -3.342  10.030  13.796  0.00  0.00    +0.000 C 
ATOM     14  O   UNL     1      -4.157  10.330  14.924  0.00  0.00    +0.000 OA
ENDBRANCH   7  14
ENDBRANCH   1  10
BRANCH   5  15
ATOM     15  S   UNL     1       1.235   8.579  21.666  0.00  0.00    +0.000 S 
BRANCH  15  16
ATOM     16  C   UNL     1       1.954   8.079  20.074  0.00  0.00    +0.000 C 
BRANCH  16  17
ATOM     17  C   UNL     1       1.928   6.572  19.904  0.00  0.00    +0.000 C 
ATOM     18  O   UNL     1       1.567   5.832  20.816  0.00  0.00    +0.000 OA
ATOM     19  N   UNL     1       2.348   6.143  18.658  0.00  0.00    +0.000 N 
ATOM     20  C   UNL     1       2.446   4.786  18.339  0.00  0.00    +0.000 A 
ATOM     21  C   UNL     1       1.457   3.874  18.695  0.00  0.00    +0.000 A 
ATOM     22  C   UNL     1       1.668   2.523  18.441  0.00  0.00    +0.000 A 
ATOM     23  C   UNL     1       2.862   2.126  17.854  0.00  0.00    +0.000 A 
ATOM     24  C   UNL     1       3.769   3.110  17.494  0.00  0.00    +0.000 A 
ATOM     25  N   UNL     1       3.573   4.437  17.688  0.00  0.00    +0.000 NA
ATOM     26  H   UNL     1       3.057   6.708  18.200  0.00  0.00    +0.000 HD
ENDBRANCH  16  17
ENDBRANCH  15  16
ENDBRANCH   5  15
TORSDOF 5
ENDMDL
MODEL 8
REMARK VINA RESULT:      -7.6      4.882      7.274
REMARK  Name = 
REMARK  6 active torsions:
REMARK  status: ('A' for Active; 'I' for Inactive)
REMARK    1  A    between atoms: C_1  and  O_2
REMARK    2  A    between atoms: O_2  and  C_3
REMARK    3  A    between atoms: C_6  and  C_7
REMARK    4  A    between atoms: C_11  and  S_12
REMARK    5  A    between atoms: S_12  and  C_13
REMARK    6  A    between atoms: C_13  and  C_14
REMARK                            x       y       z     vdW  Elec       q    Type
REMARK                         _______ _______ _______ _____ _____    ______ ____
ROOT
ATOM      1  C   UNL     1       3.946   3.560  17.844  0.00  0.00    +0.000 A 
ATOM      2  C   UNL     1       3.485   2.257  17.858  0.00  0.00    +0.000 A 
ATOM      3  C   UNL     1       2.486   1.980  18.757  0.00  0.00    +0.000 A 
ATOM      4  N   UNL     1       1.970   2.882  19.596  0.00  0.00    +0.000 NA
ATOM      5  C   UNL     1       2.464   4.121  19.509  0.00  0.00    +0.000 A 
ATOM      6  N   UNL     1       3.437   4.502  18.667  0.00  0.00    +0.000 NA
ENDROOT
BRANCH   1  10
ATOM      7  C   UNL     1       7.053   5.024  15.237  0.00  0.00    +0.000 A 
ATOM      8  C   UNL     1       5.808   4.677  14.718  0.00  0.00    +0.000 A 
ATOM      9  C   UNL     1       4.799   4.196  15.558  0.00  0.00    +0.000 A 
ATOM     10  C   UNL     1       5.012   4.028  16.933  0.00  0.00    +0.000 A 
ATOM     11  C   UNL     1       6.289   4.351  17.430  0.00  0.00    +0.000 A 
ATOM     12  C   UNL     1       7.300   4.841  16.594  0.00  0.00    +0.000 A 
BRANCH   7  14
ATOM     13  C   UNL     1       7.726   5.104  12.978  0.00  0.00    +0.000 C 
ATOM     14  O   UNL     1       7.954   5.501  14.327  0.00  0.00    +0.000 OA
ENDBRANCH   7  14
ENDBRANCH   1  10
BRANCH   5  15
ATOM     15  S   UNL     1       1.806   5.326  20.631  0.00  0.00    +0.000 S 
BRANCH  15  16
ATOM     16  C   UNL     1       2.359   6.853  19.817  0.00  0.00    +0.000 C 
BRANCH  16  17
ATOM     17  C   UNL     1       1.605   8.063  20.336  0.00  0.00    +0.000 C 
ATOM     18  O   UNL     1       1.315   8.173  21.526  0.00  0.00    +0.000 OA
ATOM     19  N   UNL     1       1.286   8.986  19.357  0.00  0.00    +0.000 N 
ATOM     20  C   UNL     1       0.542  10.134  19.640  0.00  0.00    +0.000 A 
ATOM     21  C   UNL     1       0.788  10.910  20.769  0.00  0.00    +0.000 A 
ATOM     22  C   UNL     1      -0.058  11.978  21.046  0.00  0.00    +0.000 A 
ATOM     23  C   UNL     1      -1.128  12.228  20.197  0.00  0.00    +0.000 A 
ATOM     24  C   UNL     1      -1.268  11.429  19.072  0.00  0.00    +0.000 A 
ATOM     25  N   UNL     1      -0.434  10.410  18.753  0.00  0.00    +0.000 NA
ATOM     26  H   UNL     1       1.104   8.616  18.429  0.00  0.00    +0.000 HD
ENDBRANCH  16  17
ENDBRANCH  15  16
ENDBRANCH   5  15
TORSDOF 5
ENDMDL
MODEL 9
REMARK VINA RESULT:      -7.6      3.606      7.847
REMARK  Name = 
REMARK  6 active torsions:
REMARK  status: ('A' for Active; 'I' for Inactive)
REMARK    1  A    between atoms: C_1  and  O_2
REMARK    2  A    between atoms: O_2  and  C_3
REMARK    3  A    between atoms: C_6  and  C_7
REMARK    4  A    between atoms: C_11  and  S_12
REMARK    5  A    between atoms: S_12  and  C_13
REMARK    6  A    between atoms: C_13  and  C_14
REMARK                            x       y       z     vdW  Elec       q    Type
REMARK                         _______ _______ _______ _____ _____    ______ ____
ROOT
ATOM      1  C   UNL     1       3.566   6.009  19.077  0.00  0.00    +0.000 A 
ATOM      2  C   UNL     1       3.232   4.800  19.658  0.00  0.00    +0.000 A 
ATOM      3  C   UNL     1       4.175   3.807  19.568  0.00  0.00    +0.000 A 
ATOM      4  N   UNL     1       5.352   3.952  18.954  0.00  0.00    +0.000 NA
ATOM      5  C   UNL     1       5.600   5.156  18.428  0.00  0.00    +0.000 A 
ATOM      6  N   UNL     1       4.753   6.197  18.461  0.00  0.00    +0.000 NA
ENDROOT
BRANCH   1  10
ATOM      7  C   UNL     1       1.038   9.501  19.098  0.00  0.00    +0.000 A 
ATOM      8  C   UNL     1       1.165   8.721  20.245  0.00  0.00    +0.000 A 
ATOM      9  C   UNL     1       1.979   7.584  20.241  0.00  0.00    +0.000 A 
ATOM     10  C   UNL     1       2.670   7.184  19.089  0.00  0.00    +0.000 A 
ATOM     11  C   UNL     1       2.497   7.967  17.932  0.00  0.00    +0.000 A 
ATOM     12  C   UNL     1       1.690   9.111  17.933  0.00  0.00    +0.000 A 
BRANCH   7  14
ATOM     13  C   UNL     1       0.764  11.656  20.016  0.00  0.00    +0.000 C 
ATOM     14  O   UNL     1       0.233  10.599  19.223  0.00  0.00    +0.000 OA
ENDBRANCH   7  14
ENDBRANCH   1  10
BRANCH   5  15
ATOM     15  S   UNL     1       7.149   5.361  17.589  0.00  0.00    +0.000 S 
BRANCH  15  16
ATOM     16  C   UNL     1       7.997   6.466  18.755  0.00  0.00    +0.000 C 
BRANCH  16  17
ATOM     17  C   UNL     1       8.148   7.863  18.183  0.00  0.00    +0.000 C 
ATOM     18  O   UNL     1       7.781   8.129  17.041  0.00  0.00    +0.000 OA
ATOM     19  N   UNL     1       8.731   8.764  19.056  0.00  0.00    +0.000 N 
ATOM     20  C   UNL     1       9.002  10.083  18.681  0.00  0.00    +0.000 A 
ATOM     21  C   UNL     1       8.085  10.848  17.967  0.00  0.00    +0.000 A 
ATOM     22  C   UNL     1       8.462  12.116  17.535  0.00  0.00    +0.000 A 
ATOM     23  C   UNL     1       9.742  12.571  17.818  0.00  0.00    +0.000 A 
ATOM     24  C   UNL     1      10.571  11.756  18.574  0.00  0.00    +0.000 A 
ATOM     25  N   UNL     1      10.217  10.537  19.046  0.00  0.00    +0.000 NA
ATOM     26  H   UNL     1       9.416   8.388  19.703  0.00  0.00    +0.000 HD
ENDBRANCH  16  17
ENDBRANCH  15  16
ENDBRANCH   5  15
TORSDOF 5
ENDMDL
