MODEL 1
REMARK VINA RESULT:      -8.1      0.000      0.000
REMARK  Name = 
REMARK  9 active torsions:
REMARK  status: ('A' for Active; 'I' for Inactive)
REMARK    1  A    between atoms: C_1  and  C_2
REMARK    2  A    between atoms: C_2  and  C_3
REMARK    3  A    between atoms: C_3  and  N_4
REMARK    4  A    between atoms: C_6  and  C_7
REMARK    5  A    between atoms: C_10  and  C_11
REMARK    6  A    between atoms: C_17  and  C_18
REMARK    7  A    between atoms: C_18  and  C_19
REMARK    8  A    between atoms: C_19  and  N_20
REMARK    9  A    between atoms: C_21  and  C_22
REMARK                            x       y       z     vdW  Elec       q    Type
REMARK                         _______ _______ _______ _____ _____    ______ ____
ROOT
ATOM      1  N   UNL     1       4.347   5.022  17.390  0.00  0.00    +0.000 N 
ATOM      2  N   UNL     1       4.233   6.240  17.957  0.00  0.00    +0.000 NA
ATOM      3  C   UNL     1       2.922   6.309  18.227  0.00  0.00    +0.000 A 
ATOM      4  N   UNL     1       2.225   5.185  17.844  0.00  0.00    +0.000 NA
ATOM      5  C   UNL     1       3.132   4.390  17.315  0.00  0.00    +0.000 A 
ENDROOT
BRANCH   3   6
ATOM      6  C   UNL     1       2.259   7.437  18.878  0.00  0.00    +0.000 A 
ATOM      7  C   UNL     1       1.928   7.421  20.240  0.00  0.00    +0.000 A 
ATOM      8  C   UNL     1       1.285   8.520  20.837  0.00  0.00    +0.000 A 
ATOM      9  C   UNL     1       0.965   9.653  20.077  0.00  0.00    +0.000 A 
ATOM     10  C   UNL     1       1.293   9.665  18.715  0.00  0.00    +0.000 A 
ATOM     11  C   UNL     1       1.931   8.571  18.124  0.00  0.00    +0.000 A 
BRANCH   9  12
ATOM     12  C   UNL     1       0.290  10.865  20.628  0.00  0.00    +0.000 C 
ATOM     13  N   UNL     1      -0.737  11.427  19.924  0.00  0.00    +0.000 N 
ATOM     14  O   UNL     1       0.634  11.361  21.695  0.00  0.00    +0.000 OA
ATOM     15  H   UNL     1      -1.106  11.083  19.053  0.00  0.00    +0.000 HD
ATOM     16  H   UNL     1      -1.177  12.236  20.341  0.00  0.00    +0.000 HD
ENDBRANCH   9  12
ENDBRANCH   3   6
BRANCH   1  17
ATOM     17  C   UNL     1       5.655   4.533  17.006  0.00  0.00    +0.000 C 
BRANCH  17  19
ATOM     18  C   UNL     1       6.164   3.900  14.592  0.00  0.00    +0.000 C 
ATOM     19  C   UNL     1       6.103   5.017  15.626  0.00  0.00    +0.000 C 
ENDBRANCH  17  19
ENDBRANCH   1  17
BRANCH   5  20
ATOM     20  C   UNL     1       2.900   3.030  16.734  0.00  0.00    +0.000 C 
BRANCH  20  21
ATOM     21  C   UNL     1       3.006   1.925  17.797  0.00  0.00    +0.000 C 
BRANCH  21  22
ATOM     22  N   UNL     1       2.513   2.336  19.121  0.00  0.00    +0.000 N 
ATOM     23  C   UNL     1       3.362   2.611  20.203  0.00  0.00    +0.000 A 
ATOM     24  C   UNL     1       4.852   2.411  20.141  0.00  0.00    +0.000 C 
ATOM     25  C   UNL     1       2.841   3.072  21.357  0.00  0.00    +0.000 A 
ATOM     26  C   UNL     1       1.432   3.304  21.506  0.00  0.00    +0.000 A 
ATOM     27  C   UNL     1       0.594   3.016  20.507  0.00  0.00    +0.000 A 
ATOM     28  C   UNL     1       1.119   2.468  19.230  0.00  0.00    +0.000 A 
ATOM     29  O   UNL     1       0.318   2.167  18.348  0.00  0.00    +0.000 OA
ENDBRANCH  21  22
ENDBRANCH  20  21
ENDBRANCH   5  20
TORSDOF 7
ENDMDL
MODEL 2
REMARK VINA RESULT:      -8.0      2.647      7.443
REMARK  Name = 
REMARK  9 active torsions:
REMARK  status: ('A' for Active; 'I' for Inactive)
REMARK    1  A    between atoms: C_1  and  C_2
REMARK    2  A    between atoms: C_2  and  C_3
REMARK    3  A    between atoms: C_3  and  N_4
REMARK    4  A    between atoms: C_6  and  C_7
REMARK    5  A    between atoms: C_10  and  C_11
REMARK    6  A    between atoms: C_17  and  C_18
REMARK    7  A    between atoms: C_18  and  C_19
REMARK    8  A    between atoms: C_19  and  N_20
REMARK    9  A    between atoms: C_21  and  C_22
REMARK                            x       y       z     vdW  Elec       q    Type
REMARK                         _______ _______ _______ _____ _____    ______ ____
ROOT
ATOM      1  N   UNL     1       2.625   4.825  20.454  0.00  0.00    +0.000 N 
ATOM      2  N   UNL     1       3.488   4.280  19.573  0.00  0.00    +0.000 NA
ATOM      3  C   UNL     1       3.578   5.233  18.635  0.00  0.00    +0.000 A 
ATOM      4  N   UNL     1       2.799   6.338  18.901  0.00  0.00    +0.000 NA
ATOM      5  C   UNL     1       2.203   6.063  20.042  0.00  0.00    +0.000 A 
ENDROOT
BRANCH   3   6
ATOM      6  C   UNL     1       4.417   5.158  17.441  0.00  0.00    +0.000 A 
ATOM      7  C   UNL     1       4.752   6.295  16.693  0.00  0.00    +0.000 A 
ATOM      8  C   UNL     1       5.558   6.190  15.546  0.00  0.00    +0.000 A 
ATOM      9  C   UNL     1       6.042   4.942  15.131  0.00  0.00    +0.000 A 
ATOM     10  C   UNL     1       5.703   3.807  15.878  0.00  0.00    +0.000 A 
ATOM     11  C   UNL     1       4.901   3.913  17.017  0.00  0.00    +0.000 A 
BRANCH   9  12
ATOM     12  C   UNL     1       6.907   4.738  13.932  0.00  0.00    +0.000 C 
ATOM     13  N   UNL     1       6.619   3.714  13.076  0.00  0.00    +0.000 N 
ATOM     14  O   UNL     1       7.863   5.470  13.700  0.00  0.00    +0.000 OA
ATOM     15  H   UNL     1       5.847   3.075  13.167  0.00  0.00    +0.000 HD
ATOM     16  H   UNL     1       7.220   3.622  12.268  0.00  0.00    +0.000 HD
ENDBRANCH   9  12
ENDBRANCH   3   6
BRANCH   1  17
ATOM     17  C   UNL     1       2.309   4.114  21.676  0.00  0.00    +0.000 C 
BRANCH  17  19
ATOM     18  C   UNL     1       0.693   2.761  20.246  0.00  0.00    +0.000 C 
ATOM     19  C   UNL     1       1.645   2.756  21.435  0.00  0.00    +0.000 C 
ENDBRANCH  17  19
ENDBRANCH   1  17
BRANCH   5  20
ATOM     20  C   UNL     1       1.237   6.937  20.780  0.00  0.00    +0.000 C 
BRANCH  20  21
ATOM     21  C   UNL     1       1.763   8.373  20.935  0.00  0.00    +0.000 C 
BRANCH  21  22
ATOM     22  N   UNL     1       0.746   9.402  20.666  0.00  0.00    +0.000 N 
ATOM     23  C   UNL     1      -0.049   9.975  21.670  0.00  0.00    +0.000 A 
ATOM     24  C   UNL     1      -0.009   9.516  23.103  0.00  0.00    +0.000 C 
ATOM     25  C   UNL     1      -0.892  10.979  21.359  0.00  0.00    +0.000 A 
ATOM     26  C   UNL     1      -0.991  11.490  20.021  0.00  0.00    +0.000 A 
ATOM     27  C   UNL     1      -0.275  10.941  19.037  0.00  0.00    +0.000 A 
ATOM     28  C   UNL     1       0.639   9.806  19.325  0.00  0.00    +0.000 A 
ATOM     29  O   UNL     1       1.246   9.291  18.390  0.00  0.00    +0.000 OA
ENDBRANCH  21  22
ENDBRANCH  20  21
ENDBRANCH   5  20
TORSDOF 7
ENDMDL
MODEL 3
REMARK VINA RESULT:      -8.0      1.194      1.707
REMARK  Name = 
REMARK  9 active torsions:
REMARK  status: ('A' for Active; 'I' for Inactive)
REMARK    1  A    between atoms: C_1  and  C_2
REMARK    2  A    between atoms: C_2  and  C_3
REMARK    3  A    between atoms: C_3  and  N_4
REMARK    4  A    between atoms: C_6  and  C_7
REMARK    5  A    between atoms: C_10  and  C_11
REMARK    6  A    between atoms: C_17  and  C_18
REMARK    7  A    between atoms: C_18  and  C_19
REMARK    8  A    between atoms: C_19  and  N_20
REMARK    9  A    between atoms: C_21  and  C_22
REMARK                            x       y       z     vdW  Elec       q    Type
REMARK                         _______ _______ _______ _____ _____    ______ ____
ROOT
ATOM      1  N   UNL     1       5.030   6.092  17.183  0.00  0.00    +0.000 N 
ATOM      2  N   UNL     1       4.476   7.295  17.435  0.00  0.00    +0.000 NA
ATOM      3  C   UNL     1       3.331   6.959  18.047  0.00  0.00    +0.000 A 
ATOM      4  N   UNL     1       3.157   5.599  18.174  0.00  0.00    +0.000 NA
ATOM      5  C   UNL     1       4.228   5.069  17.622  0.00  0.00    +0.000 A 
ENDROOT
BRANCH   3   6
ATOM      6  C   UNL     1       2.345   7.909  18.558  0.00  0.00    +0.000 A 
ATOM      7  C   UNL     1       1.777   8.902  17.748  0.00  0.00    +0.000 A 
ATOM      8  C   UNL     1       0.834   9.804  18.270  0.00  0.00    +0.000 A 
ATOM      9  C   UNL     1       0.444   9.724  19.614  0.00  0.00    +0.000 A 
ATOM     10  C   UNL     1       1.015   8.734  20.422  0.00  0.00    +0.000 A 
ATOM     11  C   UNL     1       1.954   7.838  19.902  0.00  0.00    +0.000 A 
BRANCH   9  12
ATOM     12  C   UNL     1      -0.553  10.635  20.249  0.00  0.00    +0.000 C 
ATOM     13  N   UNL     1      -1.438  11.306  19.453  0.00  0.00    +0.000 N 
ATOM     14  O   UNL     1      -0.595  10.790  21.465  0.00  0.00    +0.000 OA
ATOM     15  H   UNL     1      -1.497  11.228  18.451  0.00  0.00    +0.000 HD
ATOM     16  H   UNL     1      -2.106  11.899  19.926  0.00  0.00    +0.000 HD
ENDBRANCH   9  12
ENDBRANCH   3   6
BRANCH   1  17
ATOM     17  C   UNL     1       6.341   6.024  16.572  0.00  0.00    +0.000 C 
BRANCH  17  19
ATOM     18  C   UNL     1       7.785   6.272  18.656  0.00  0.00    +0.000 C 
ATOM     19  C   UNL     1       7.396   6.857  17.305  0.00  0.00    +0.000 C 
ENDBRANCH  17  19
ENDBRANCH   1  17
BRANCH   5  20
ATOM     20  C   UNL     1       4.538   3.610  17.491  0.00  0.00    +0.000 C 
BRANCH  20  21
ATOM     21  C   UNL     1       3.278   2.740  17.618  0.00  0.00    +0.000 C 
BRANCH  21  22
ATOM     22  N   UNL     1       2.652   2.804  18.947  0.00  0.00    +0.000 N 
ATOM     23  C   UNL     1       3.340   2.506  20.134  0.00  0.00    +0.000 A 
ATOM     24  C   UNL     1       4.754   1.992  20.148  0.00  0.00    +0.000 C 
ATOM     25  C   UNL     1       2.725   2.678  21.320  0.00  0.00    +0.000 A 
ATOM     26  C   UNL     1       1.380   3.173  21.405  0.00  0.00    +0.000 A 
ATOM     27  C   UNL     1       0.687   3.430  20.294  0.00  0.00    +0.000 A 
ATOM     28  C   UNL     1       1.309   3.218  18.962  0.00  0.00    +0.000 A 
ATOM     29  O   UNL     1       0.629   3.416  17.958  0.00  0.00    +0.000 OA
ENDBRANCH  21  22
ENDBRANCH  20  21
ENDBRANCH   5  20
TORSDOF 7
ENDMDL
MODEL 4
REMARK VINA RESULT:      -8.0      0.992      1.445
REMARK  Name = 
REMARK  9 active torsions:
REMARK  status: ('A' for Active; 'I' for Inactive)
REMARK    1  A    between atoms: C_1  and  C_2
REMARK    2  A    between atoms: C_2  and  C_3
REMARK    3  A    between atoms: C_3  and  N_4
REMARK    4  A    between atoms: C_6  and  C_7
REMARK    5  A    between atoms: C_10  and  C_11
REMARK    6  A    between atoms: C_17  and  C_18
REMARK    7  A    between atoms: C_18  and  C_19
REMARK    8  A    between atoms: C_19  and  N_20
REMARK    9  A    between atoms: C_21  and  C_22
REMARK                            x       y       z     vdW  Elec       q    Type
REMARK                         _______ _______ _______ _____ _____    ______ ____
ROOT
ATOM      1  N   UNL     1       4.737   6.163  16.900  0.00  0.00    +0.000 N 
ATOM      2  N   UNL     1       4.041   7.314  16.995  0.00  0.00    +0.000 NA
ATOM      3  C   UNL     1       3.251   7.084  18.053  0.00  0.00    +0.000 A 
ATOM      4  N   UNL     1       3.430   5.836  18.608  0.00  0.00    +0.000 NA
ATOM      5  C   UNL     1       4.361   5.269  17.870  0.00  0.00    +0.000 A 
ENDROOT
BRANCH   3   6
ATOM      6  C   UNL     1       2.293   8.038  18.606  0.00  0.00    +0.000 A 
ATOM      7  C   UNL     1       1.737   9.068  17.835  0.00  0.00    +0.000 A 
ATOM      8  C   UNL     1       0.822   9.975  18.397  0.00  0.00    +0.000 A 
ATOM      9  C   UNL     1       0.447   9.861  19.743  0.00  0.00    +0.000 A 
ATOM     10  C   UNL     1       1.006   8.834  20.513  0.00  0.00    +0.000 A 
ATOM     11  C   UNL     1       1.918   7.935  19.952  0.00  0.00    +0.000 A 
BRANCH   9  12
ATOM     12  C   UNL     1      -0.521  10.774  20.420  0.00  0.00    +0.000 C 
ATOM     13  N   UNL     1      -1.231  11.663  19.664  0.00  0.00    +0.000 N 
ATOM     14  O   UNL     1      -0.693  10.740  21.633  0.00  0.00    +0.000 OA
ATOM     15  H   UNL     1      -1.177  11.753  18.663  0.00  0.00    +0.000 HD
ATOM     16  H   UNL     1      -1.887  12.250  20.160  0.00  0.00    +0.000 HD
ENDBRANCH   9  12
ENDBRANCH   3   6
BRANCH   1  17
ATOM     17  C   UNL     1       5.771   6.035  15.894  0.00  0.00    +0.000 C 
BRANCH  17  19
ATOM     18  C   UNL     1       6.324   3.935  14.562  0.00  0.00    +0.000 C 
ATOM     19  C   UNL     1       5.378   5.117  14.734  0.00  0.00    +0.000 C 
ENDBRANCH  17  19
ENDBRANCH   1  17
BRANCH   5  20
ATOM     20  C   UNL     1       4.927   3.894  18.045  0.00  0.00    +0.000 C 
BRANCH  20  21
ATOM     21  C   UNL     1       3.844   2.808  17.942  0.00  0.00    +0.000 C 
BRANCH  21  22
ATOM     22  N   UNL     1       2.949   2.760  19.109  0.00  0.00    +0.000 N 
ATOM     23  C   UNL     1       3.387   2.418  20.398  0.00  0.00    +0.000 A 
ATOM     24  C   UNL     1       4.793   1.966  20.687  0.00  0.00    +0.000 C 
ATOM     25  C   UNL     1       2.527   2.487  21.433  0.00  0.00    +0.000 A 
ATOM     26  C   UNL     1       1.169   2.917  21.255  0.00  0.00    +0.000 A 
ATOM     27  C   UNL     1       0.713   3.214  20.036  0.00  0.00    +0.000 A 
ATOM     28  C   UNL     1       1.613   3.114  18.858  0.00  0.00    +0.000 A 
ATOM     29  O   UNL     1       1.150   3.346  17.744  0.00  0.00    +0.000 OA
ENDBRANCH  21  22
ENDBRANCH  20  21
ENDBRANCH   5  20
TORSDOF 7
ENDMDL
MODEL 5
REMARK VINA RESULT:      -8.0      1.494      2.181
REMARK  Name = 
REMARK  9 active torsions:
REMARK  status: ('A' for Active; 'I' for Inactive)
REMARK    1  A    between atoms: C_1  and  C_2
REMARK    2  A    between atoms: C_2  and  C_3
REMARK    3  A    between atoms: C_3  and  N_4
REMARK    4  A    between atoms: C_6  and  C_7
REMARK    5  A    between atoms: C_10  and  C_11
REMARK    6  A    between atoms: C_17  and  C_18
REMARK    7  A    between atoms: C_18  and  C_19
REMARK    8  A    between atoms: C_19  and  N_20
REMARK    9  A    between atoms: C_21  and  C_22
REMARK                            x       y       z     vdW  Elec       q    Type
REMARK                         _______ _______ _______ _____ _____    ______ ____
ROOT
ATOM      1  N   UNL     1       4.879   6.232  17.127  0.00  0.00    +0.000 N 
ATOM      2  N   UNL     1       4.122   7.347  17.122  0.00  0.00    +0.000 NA
ATOM      3  C   UNL     1       3.335   7.164  18.191  0.00  0.00    +0.000 A 
ATOM      4  N   UNL     1       3.575   5.978  18.849  0.00  0.00    +0.000 NA
ATOM      5  C   UNL     1       4.541   5.402  18.166  0.00  0.00    +0.000 A 
ENDROOT
BRANCH   3   6
ATOM      6  C   UNL     1       2.323   8.109  18.659  0.00  0.00    +0.000 A 
ATOM      7  C   UNL     1       1.802   9.113  17.830  0.00  0.00    +0.000 A 
ATOM      8  C   UNL     1       0.832  10.010  18.310  0.00  0.00    +0.000 A 
ATOM      9  C   UNL     1       0.368   9.914  19.629  0.00  0.00    +0.000 A 
ATOM     10  C   UNL     1       0.891   8.912  20.456  0.00  0.00    +0.000 A 
ATOM     11  C   UNL     1       1.857   8.022  19.977  0.00  0.00    +0.000 A 
BRANCH   9  12
ATOM     12  C   UNL     1      -0.663  10.818  20.219  0.00  0.00    +0.000 C 
ATOM     13  N   UNL     1      -1.653  11.306  19.415  0.00  0.00    +0.000 N 
ATOM     14  O   UNL     1      -0.640  11.128  21.405  0.00  0.00    +0.000 OA
ATOM     15  H   UNL     1      -1.770  11.094  18.438  0.00  0.00    +0.000 HD
ATOM     16  H   UNL     1      -2.339  11.901  19.859  0.00  0.00    +0.000 HD
ENDBRANCH   9  12
ENDBRANCH   3   6
BRANCH   1  17
ATOM     17  C   UNL     1       5.927   6.076  16.140  0.00  0.00    +0.000 C 
BRANCH  17  19
ATOM     18  C   UNL     1       6.122   3.894  14.840  0.00  0.00    +0.000 C 
ATOM     19  C   UNL     1       5.489   5.277  14.910  0.00  0.00    +0.000 C 
ENDBRANCH  17  19
ENDBRANCH   1  17
BRANCH   5  20
ATOM     20  C   UNL     1       5.178   4.079  18.458  0.00  0.00    +0.000 C 
BRANCH  20  21
ATOM     21  C   UNL     1       4.176   2.920  18.337  0.00  0.00    +0.000 C 
BRANCH  21  22
ATOM     22  N   UNL     1       3.148   2.921  19.389  0.00  0.00    +0.000 N 
ATOM     23  C   UNL     1       1.810   3.273  19.154  0.00  0.00    +0.000 A 
ATOM     24  C   UNL     1       1.324   3.784  17.825  0.00  0.00    +0.000 C 
ATOM     25  C   UNL     1       0.908   3.159  20.148  0.00  0.00    +0.000 A 
ATOM     26  C   UNL     1       1.277   2.671  21.447  0.00  0.00    +0.000 A 
ATOM     27  C   UNL     1       2.549   2.362  21.712  0.00  0.00    +0.000 A 
ATOM     28  C   UNL     1       3.586   2.510  20.659  0.00  0.00    +0.000 A 
ATOM     29  O   UNL     1       4.755   2.265  20.949  0.00  0.00    +0.000 OA
ENDBRANCH  21  22
ENDBRANCH  20  21
ENDBRANCH   5  20
TORSDOF 7
ENDMDL
MODEL 6
REMARK VINA RESULT:      -7.9      1.599      2.060
REMARK  Name = 
REMARK  9 active torsions:
REMARK  status: ('A' for Active; 'I' for Inactive)
REMARK    1  A    between atoms: C_1  and  C_2
REMARK    2  A    between atoms: C_2  and  C_3
REMARK    3  A    between atoms: C_3  and  N_4
REMARK    4  A    between atoms: C_6  and  C_7
REMARK    5  A    between atoms: C_10  and  C_11
REMARK    6  A    between atoms: C_17  and  C_18
REMARK    7  A    between atoms: C_18  and  C_19
REMARK    8  A    between atoms: C_19  and  N_20
REMARK    9  A    between atoms: C_21  and  C_22
REMARK                            x       y       z     vdW  Elec       q    Type
REMARK                         _______ _______ _______ _____ _____    ______ ____
ROOT
ATOM      1  N   UNL     1       4.684   6.186  17.002  0.00  0.00    +0.000 N 
ATOM      2  N   UNL     1       3.909   7.289  17.016  0.00  0.00    +0.000 NA
ATOM      3  C   UNL     1       3.250   7.159  18.176  0.00  0.00    +0.000 A 
ATOM      4  N   UNL     1       3.585   6.018  18.871  0.00  0.00    +0.000 NA
ATOM      5  C   UNL     1       4.481   5.416  18.118  0.00  0.00    +0.000 A 
ENDROOT
BRANCH   3   6
ATOM      6  C   UNL     1       2.276   8.116  18.698  0.00  0.00    +0.000 A 
ATOM      7  C   UNL     1       1.832   8.076  20.028  0.00  0.00    +0.000 A 
ATOM      8  C   UNL     1       0.891   9.007  20.500  0.00  0.00    +0.000 A 
ATOM      9  C   UNL     1       0.381   9.996  19.647  0.00  0.00    +0.000 A 
ATOM     10  C   UNL     1       0.824  10.032  18.319  0.00  0.00    +0.000 A 
ATOM     11  C   UNL     1       1.759   9.104  17.851  0.00  0.00    +0.000 A 
BRANCH   9  12
ATOM     12  C   UNL     1      -0.614  11.027  20.064  0.00  0.00    +0.000 C 
ATOM     13  N   UNL     1      -0.876  11.193  21.395  0.00  0.00    +0.000 N 
ATOM     14  O   UNL     1      -1.196  11.725  19.242  0.00  0.00    +0.000 OA
ATOM     15  H   UNL     1      -0.435  10.685  22.144  0.00  0.00    +0.000 HD
ATOM     16  H   UNL     1      -1.544  11.913  21.634  0.00  0.00    +0.000 HD
ENDBRANCH   9  12
ENDBRANCH   3   6
BRANCH   1  17
ATOM     17  C   UNL     1       5.620   5.986  15.914  0.00  0.00    +0.000 C 
BRANCH  17  19
ATOM     18  C   UNL     1       6.453   4.159  14.347  0.00  0.00    +0.000 C 
ATOM     19  C   UNL     1       5.245   4.819  14.998  0.00  0.00    +0.000 C 
ENDBRANCH  17  19
ENDBRANCH   1  17
BRANCH   5  20
ATOM     20  C   UNL     1       5.173   4.122  18.413  0.00  0.00    +0.000 C 
BRANCH  20  21
ATOM     21  C   UNL     1       4.215   2.923  18.321  0.00  0.00    +0.000 C 
BRANCH  21  22
ATOM     22  N   UNL     1       3.174   2.923  19.360  0.00  0.00    +0.000 N 
ATOM     23  C   UNL     1       1.838   3.268  19.107  0.00  0.00    +0.000 A 
ATOM     24  C   UNL     1       1.365   3.772  17.771  0.00  0.00    +0.000 C 
ATOM     25  C   UNL     1       0.924   3.153  20.090  0.00  0.00    +0.000 A 
ATOM     26  C   UNL     1       1.280   2.671  21.395  0.00  0.00    +0.000 A 
ATOM     27  C   UNL     1       2.549   2.369  21.677  0.00  0.00    +0.000 A 
ATOM     28  C   UNL     1       3.599   2.519  20.637  0.00  0.00    +0.000 A 
ATOM     29  O   UNL     1       4.765   2.281  20.942  0.00  0.00    +0.000 OA
ENDBRANCH  21  22
ENDBRANCH  20  21
ENDBRANCH   5  20
TORSDOF 7
ENDMDL
MODEL 7
REMARK VINA RESULT:      -7.9      0.920      1.069
REMARK  Name = 
REMARK  9 active torsions:
REMARK  status: ('A' for Active; 'I' for Inactive)
REMARK    1  A    between atoms: C_1  and  C_2
REMARK    2  A    between atoms: C_2  and  C_3
REMARK    3  A    between atoms: C_3  and  N_4
REMARK    4  A    between atoms: C_6  and  C_7
REMARK    5  A    between atoms: C_10  and  C_11
REMARK    6  A    between atoms: C_17  and  C_18
REMARK    7  A    between atoms: C_18  and  C_19
REMARK    8  A    between atoms: C_19  and  N_20
REMARK    9  A    between atoms: C_21  and  C_22
REMARK                            x       y       z     vdW  Elec       q    Type
REMARK                         _______ _______ _______ _____ _____    ______ ____
ROOT
ATOM      1  N   UNL     1       4.528   5.086  18.096  0.00  0.00    +0.000 N 
ATOM      2  N   UNL     1       4.321   6.243  18.757  0.00  0.00    +0.000 NA
ATOM      3  C   UNL     1       2.987   6.362  18.713  0.00  0.00    +0.000 A 
ATOM      4  N   UNL     1       2.367   5.328  18.046  0.00  0.00    +0.000 NA
ATOM      5  C   UNL     1       3.348   4.539  17.661  0.00  0.00    +0.000 A 
ENDROOT
BRANCH   3   6
ATOM      6  C   UNL     1       2.223   7.454  19.312  0.00  0.00    +0.000 A 
ATOM      7  C   UNL     1       1.784   7.414  20.643  0.00  0.00    +0.000 A 
ATOM      8  C   UNL     1       1.046   8.478  21.190  0.00  0.00    +0.000 A 
ATOM      9  C   UNL     1       0.738   9.601  20.411  0.00  0.00    +0.000 A 
ATOM     10  C   UNL     1       1.174   9.639  19.081  0.00  0.00    +0.000 A 
ATOM     11  C   UNL     1       1.907   8.578  18.538  0.00  0.00    +0.000 A 
BRANCH   9  12
ATOM     12  C   UNL     1      -0.034  10.777  20.910  0.00  0.00    +0.000 C 
ATOM     13  N   UNL     1      -0.994  11.327  20.109  0.00  0.00    +0.000 N 
ATOM     14  O   UNL     1       0.174  11.256  22.020  0.00  0.00    +0.000 OA
ATOM     15  H   UNL     1      -1.253  10.994  19.195  0.00  0.00    +0.000 HD
ATOM     16  H   UNL     1      -1.504  12.111  20.493  0.00  0.00    +0.000 HD
ENDBRANCH   9  12
ENDBRANCH   3   6
BRANCH   1  17
ATOM     17  C   UNL     1       5.873   4.561  17.982  0.00  0.00    +0.000 C 
BRANCH  17  19
ATOM     18  C   UNL     1       7.421   6.512  17.448  0.00  0.00    +0.000 C 
ATOM     19  C   UNL     1       6.946   5.520  18.502  0.00  0.00    +0.000 C 
ENDBRANCH  17  19
ENDBRANCH   1  17
BRANCH   5  20
ATOM     20  C   UNL     1       3.219   3.264  16.888  0.00  0.00    +0.000 C 
BRANCH  20  21
ATOM     21  C   UNL     1       3.150   2.037  17.811  0.00  0.00    +0.000 C 
BRANCH  21  22
ATOM     22  N   UNL     1       2.581   2.331  19.136  0.00  0.00    +0.000 N 
ATOM     23  C   UNL     1       3.357   2.417  20.302  0.00  0.00    +0.000 A 
ATOM     24  C   UNL     1       4.831   2.114  20.324  0.00  0.00    +0.000 C 
ATOM     25  C   UNL     1       2.777   2.783  21.461  0.00  0.00    +0.000 A 
ATOM     26  C   UNL     1       1.378   3.101  21.535  0.00  0.00    +0.000 A 
ATOM     27  C   UNL     1       0.607   2.993  20.451  0.00  0.00    +0.000 A 
ATOM     28  C   UNL     1       1.194   2.555  19.159  0.00  0.00    +0.000 A 
ATOM     29  O   UNL     1       0.449   2.417  18.192  0.00  0.00    +0.000 OA
ENDBRANCH  21  22
ENDBRANCH  20  21
ENDBRANCH   5  20
TORSDOF 7
ENDMDL
MODEL 8
REMARK VINA RESULT:      -7.9      2.530      7.513
REMARK  Name = 
REMARK  9 active torsions:
REMARK  status: ('A' for Active; 'I' for Inactive)
REMARK    1  A    between atoms: C_1  and  C_2
REMARK    2  A    between atoms: C_2  and  C_3
REMARK    3  A    between atoms: C_3  and  N_4
REMARK    4  A    between atoms: C_6  and  C_7
REMARK    5  A    between atoms: C_10  and  C_11
REMARK    6  A    between atoms: C_17  and  C_18
REMARK    7  A    between atoms: C_18  and  C_19
REMARK    8  A    between atoms: C_19  and  N_20
REMARK    9  A    between atoms: C_21  and  C_22
REMARK                            x       y       z     vdW  Elec       q    Type
REMARK                         _______ _______ _______ _____ _____    ______ ____
ROOT
ATOM      1  N   UNL     1       2.589   4.958  20.454  0.00  0.00    +0.000 N 
ATOM      2  N   UNL     1       3.449   4.397  19.581  0.00  0.00    +0.000 NA
ATOM      3  C   UNL     1       3.553   5.341  18.636  0.00  0.00    +0.000 A 
ATOM      4  N   UNL     1       2.786   6.457  18.890  0.00  0.00    +0.000 NA
ATOM      5  C   UNL     1       2.183   6.198  20.031  0.00  0.00    +0.000 A 
ENDROOT
BRANCH   3   6
ATOM      6  C   UNL     1       4.396   5.247  17.446  0.00  0.00    +0.000 A 
ATOM      7  C   UNL     1       4.782   6.379  16.714  0.00  0.00    +0.000 A 
ATOM      8  C   UNL     1       5.590   6.256  15.570  0.00  0.00    +0.000 A 
ATOM      9  C   UNL     1       6.026   4.994  15.143  0.00  0.00    +0.000 A 
ATOM     10  C   UNL     1       5.637   3.864  15.873  0.00  0.00    +0.000 A 
ATOM     11  C   UNL     1       4.832   3.989  17.009  0.00  0.00    +0.000 A 
BRANCH   9  12
ATOM     12  C   UNL     1       6.889   4.770  13.946  0.00  0.00    +0.000 C 
ATOM     13  N   UNL     1       6.605   3.726  13.111  0.00  0.00    +0.000 N 
ATOM     14  O   UNL     1       7.840   5.502  13.696  0.00  0.00    +0.000 OA
ATOM     15  H   UNL     1       5.837   3.085  13.218  0.00  0.00    +0.000 HD
ATOM     16  H   UNL     1       7.205   3.622  12.304  0.00  0.00    +0.000 HD
ENDBRANCH   9  12
ENDBRANCH   3   6
BRANCH   1  17
ATOM     17  C   UNL     1       2.260   4.261  21.680  0.00  0.00    +0.000 C 
BRANCH  17  19
ATOM     18  C   UNL     1       0.869   2.560  20.392  0.00  0.00    +0.000 C 
ATOM     19  C   UNL     1       1.924   2.783  21.467  0.00  0.00    +0.000 C 
ENDBRANCH  17  19
ENDBRANCH   1  17
BRANCH   5  20
ATOM     20  C   UNL     1       1.225   7.089  20.758  0.00  0.00    +0.000 C 
BRANCH  20  21
ATOM     21  C   UNL     1       1.820   8.482  21.020  0.00  0.00    +0.000 C 
BRANCH  21  22
ATOM     22  N   UNL     1       0.834   9.569  20.921  0.00  0.00    +0.000 N 
ATOM     23  C   UNL     1       0.376  10.080  19.697  0.00  0.00    +0.000 A 
ATOM     24  C   UNL     1       0.930   9.635  18.370  0.00  0.00    +0.000 C 
ATOM     25  C   UNL     1      -0.597  11.012  19.687  0.00  0.00    +0.000 A 
ATOM     26  C   UNL     1      -1.192  11.490  20.903  0.00  0.00    +0.000 A 
ATOM     27  C   UNL     1      -0.753  11.050  22.084  0.00  0.00    +0.000 A 
ATOM     28  C   UNL     1       0.346  10.052  22.146  0.00  0.00    +0.000 A 
ATOM     29  O   UNL     1       0.761   9.705  23.249  0.00  0.00    +0.000 OA
ENDBRANCH  21  22
ENDBRANCH  20  21
ENDBRANCH   5  20
TORSDOF 7
ENDMDL
MODEL 9
REMARK VINA RESULT:      -7.9      1.693      2.251
REMARK  Name = 
REMARK  9 active torsions:
REMARK  status: ('A' for Active; 'I' for Inactive)
REMARK    1  A    between atoms: C_1  and  C_2
REMARK    2  A    between atoms: C_2  and  C_3
REMARK    3  A    between atoms: C_3  and  N_4
REMARK    4  A    between atoms: C_6  and  C_7
REMARK    5  A    between atoms: C_10  and  C_11
REMARK    6  A    between atoms: C_17  and  C_18
REMARK    7  A    between atoms: C_18  and  C_19
REMARK    8  A    between atoms: C_19  and  N_20
REMARK    9  A    between atoms: C_21  and  C_22
REMARK                            x       y       z     vdW  Elec       q    Type
REMARK                         _______ _______ _______ _____ _____    ______ ____
ROOT
ATOM      1  N   UNL     1       4.706   6.230  17.100  0.00  0.00    +0.000 N 
ATOM      2  N   UNL     1       3.943   7.341  17.133  0.00  0.00    +0.000 NA
ATOM      3  C   UNL     1       3.226   7.162  18.251  0.00  0.00    +0.000 A 
ATOM      4  N   UNL     1       3.513   5.983  18.902  0.00  0.00    +0.000 NA
ATOM      5  C   UNL     1       4.439   5.407  18.164  0.00  0.00    +0.000 A 
ENDROOT
BRANCH   3   6
ATOM      6  C   UNL     1       2.239   8.105  18.773  0.00  0.00    +0.000 A 
ATOM      7  C   UNL     1       1.802   8.064  20.104  0.00  0.00    +0.000 A 
ATOM      8  C   UNL     1       0.848   8.982  20.577  0.00  0.00    +0.000 A 
ATOM      9  C   UNL     1       0.317   9.956  19.721  0.00  0.00    +0.000 A 
ATOM     10  C   UNL     1       0.752   9.993  18.390  0.00  0.00    +0.000 A 
ATOM     11  C   UNL     1       1.700   9.078  17.922  0.00  0.00    +0.000 A 
BRANCH   9  12
ATOM     12  C   UNL     1      -0.694  10.972  20.137  0.00  0.00    +0.000 C 
ATOM     13  N   UNL     1      -0.923  11.169  21.470  0.00  0.00    +0.000 N 
ATOM     14  O   UNL     1      -1.318  11.631  19.313  0.00  0.00    +0.000 OA
ATOM     15  H   UNL     1      -0.448  10.696  22.220  0.00  0.00    +0.000 HD
ATOM     16  H   UNL     1      -1.604  11.878  21.708  0.00  0.00    +0.000 HD
ENDBRANCH   9  12
ENDBRANCH   3   6
BRANCH   1  17
ATOM     17  C   UNL     1       5.692   6.072  16.050  0.00  0.00    +0.000 C 
BRANCH  17  19
ATOM     18  C   UNL     1       7.447   7.275  17.450  0.00  0.00    +0.000 C 
ATOM     19  C   UNL     1       7.133   6.076  16.565  0.00  0.00    +0.000 C 
ENDBRANCH  17  19
ENDBRANCH   1  17
BRANCH   5  20
ATOM     20  C   UNL     1       5.100   4.090  18.426  0.00  0.00    +0.000 C 
BRANCH  20  21
ATOM     21  C   UNL     1       4.110   2.919  18.327  0.00  0.00    +0.000 C 
BRANCH  21  22
ATOM     22  N   UNL     1       3.091   2.920  19.388  0.00  0.00    +0.000 N 
ATOM     23  C   UNL     1       1.748   3.256  19.162  0.00  0.00    +0.000 A 
ATOM     24  C   UNL     1       1.245   3.749  17.832  0.00  0.00    +0.000 C 
ATOM     25  C   UNL     1       0.856   3.143  20.165  0.00  0.00    +0.000 A 
ATOM     26  C   UNL     1       1.243   2.672  21.466  0.00  0.00    +0.000 A 
ATOM     27  C   UNL     1       2.519   2.380  21.722  0.00  0.00    +0.000 A 
ATOM     28  C   UNL     1       3.546   2.527  20.659  0.00  0.00    +0.000 A 
ATOM     29  O   UNL     1       4.719   2.297  20.940  0.00  0.00    +0.000 OA
ENDBRANCH  21  22
ENDBRANCH  20  21
ENDBRANCH   5  20
TORSDOF 7
ENDMDL
