MODEL 1
REMARK VINA RESULT:      -7.9      0.000      0.000
REMARK  Name = 
REMARK  14 active torsions:
REMARK  status: ('A' for Active; 'I' for Inactive)
REMARK    1  A    between atoms: C_1  and  C_2
REMARK    2  A    between atoms: C_2  and  C_3
REMARK    3  A    between atoms: C_3  and  C_4
REMARK    4  A    between atoms: C_4  and  C_5
REMARK    5  A    between atoms: C_13  and  C_14
REMARK    6  A    between atoms: C_14  and  C_16
REMARK    7  A    between atoms: C_19  and  O_20
REMARK    8  A    between atoms: O_20  and  C_21
REMARK    9  A    between atoms: C_21  and  C_22
REMARK   10  A    between atoms: C_22  and  C_23
REMARK   11  A    between atoms: C_23  and  N_24
REMARK   12  A    between atoms: N_24  and  C_25
REMARK   13  A    between atoms: N_24  and  C_26
REMARK   14  A    between atoms: N_24  and  C_27
REMARK                            x       y       z     vdW  Elec       q    Type
REMARK                         _______ _______ _______ _____ _____    ______ ____
ROOT
ATOM      1  C   UNL     1       3.795   6.802  17.781  0.00  0.00    +0.000 C 
ATOM      2  O   UNL     1       4.435   7.258  16.823  0.00  0.00    +0.000 OA
ENDROOT
BRANCH   1  11
ATOM      3  C   UNL     1       5.266   5.056  18.816  0.00  0.00    +0.000 A 
ATOM      4  O   UNL     1       5.181   3.790  19.310  0.00  0.00    +0.000 OA
ATOM      5  C   UNL     1       3.922   3.346  19.072  0.00  0.00    +0.000 A 
ATOM      6  C   UNL     1       3.454   2.071  19.381  0.00  0.00    +0.000 A 
ATOM      7  C   UNL     1       2.136   1.774  19.030  0.00  0.00    +0.000 A 
ATOM      8  C   UNL     1       1.341   2.720  18.385  0.00  0.00    +0.000 A 
ATOM      9  C   UNL     1       1.848   3.994  18.075  0.00  0.00    +0.000 A 
ATOM     10  C   UNL     1       3.164   4.335  18.445  0.00  0.00    +0.000 A 
ATOM     11  C   UNL     1       4.037   5.480  18.331  0.00  0.00    +0.000 A 
BRANCH   3  12
ATOM     12  C   UNL     1       6.616   5.682  18.887  0.00  0.00    +0.000 C 
BRANCH  12  13
ATOM     13  C   UNL     1       7.324   5.614  17.536  0.00  0.00    +0.000 C 
BRANCH  13  15
ATOM     14  C   UNL     1       6.547   4.860  15.275  0.00  0.00    +0.000 C 
ATOM     15  C   UNL     1       6.853   4.429  16.701  0.00  0.00    +0.000 C 
ENDBRANCH  13  15
ENDBRANCH  12  13
ENDBRANCH   3  12
ENDBRANCH   1  11
BRANCH   1  16
ATOM     16  C   UNL     1       2.744   7.667  18.361  0.00  0.00    +0.000 A 
ATOM     17  C   UNL     1       2.356   7.431  19.679  0.00  0.00    +0.000 A 
ATOM     18  C   UNL     1       1.448   8.257  20.257  0.00  0.00    +0.000 A 
ATOM     19  C   UNL     1       0.880   9.332  19.581  0.00  0.00    +0.000 A 
ATOM     20  C   UNL     1       1.220   9.546  18.223  0.00  0.00    +0.000 A 
ATOM     21  C   UNL     1       2.139   8.685  17.617  0.00  0.00    +0.000 A 
BRANCH  19  22
ATOM     22  O   UNL     1       0.004  10.176  20.223  0.00  0.00    +0.000 OA
BRANCH  22  23
ATOM     23  C   UNL     1      -0.209  11.411  19.510  0.00  0.00    +0.000 C 
BRANCH  23  24
ATOM     24  C   UNL     1      -1.687  11.533  19.219  0.00  0.00    +0.000 C 
BRANCH  24  25
ATOM     25  C   UNL     1      -1.929  11.867  17.754  0.00  0.00    +0.000 C 
BRANCH  25  26
ATOM     26  N   UNL     1      -3.008  10.982  17.108  0.00  0.00    +0.000 N 
ATOM     27  C   UNL     1      -2.826  10.903  15.595  0.00  0.00    +0.000 C 
ATOM     28  C   UNL     1      -2.999   9.577  17.703  0.00  0.00    +0.000 C 
ATOM     29  C   UNL     1      -4.374  11.613  17.391  0.00  0.00    +0.000 C 
ENDBRANCH  25  26
ENDBRANCH  24  25
ENDBRANCH  23  24
ENDBRANCH  22  23
ENDBRANCH  19  22
ENDBRANCH   1  16
TORSDOF 10
ENDMDL
MODEL 2
REMARK VINA RESULT:      -7.9      1.328      3.671
REMARK  Name = 
REMARK  14 active torsions:
REMARK  status: ('A' for Active; 'I' for Inactive)
REMARK    1  A    between atoms: C_1  and  C_2
REMARK    2  A    between atoms: C_2  and  C_3
REMARK    3  A    between atoms: C_3  and  C_4
REMARK    4  A    between atoms: C_4  and  C_5
REMARK    5  A    between atoms: C_13  and  C_14
REMARK    6  A    between atoms: C_14  and  C_16
REMARK    7  A    between atoms: C_19  and  O_20
REMARK    8  A    between atoms: O_20  and  C_21
REMARK    9  A    between atoms: C_21  and  C_22
REMARK   10  A    between atoms: C_22  and  C_23
REMARK   11  A    between atoms: C_23  and  N_24
REMARK   12  A    between atoms: N_24  and  C_25
REMARK   13  A    between atoms: N_24  and  C_26
REMARK   14  A    between atoms: N_24  and  C_27
REMARK                            x       y       z     vdW  Elec       q    Type
REMARK                         _______ _______ _______ _____ _____    ______ ____
ROOT
ATOM      1  C   UNL     1       3.019   6.031  19.358  0.00  0.00    +0.000 C 
ATOM      2  O   UNL     1       3.105   5.628  20.526  0.00  0.00    +0.000 OA
ENDROOT
BRANCH   1  11
ATOM      3  C   UNL     1       2.800   4.274  17.582  0.00  0.00    +0.000 A 
ATOM      4  O   UNL     1       3.503   3.773  16.530  0.00  0.00    +0.000 OA
ATOM      5  C   UNL     1       4.718   4.374  16.530  0.00  0.00    +0.000 A 
ATOM      6  C   UNL     1       5.750   4.090  15.638  0.00  0.00    +0.000 A 
ATOM      7  C   UNL     1       6.949   4.783  15.810  0.00  0.00    +0.000 A 
ATOM      8  C   UNL     1       7.096   5.705  16.845  0.00  0.00    +0.000 A 
ATOM      9  C   UNL     1       6.040   5.959  17.737  0.00  0.00    +0.000 A 
ATOM     10  C   UNL     1       4.806   5.299  17.570  0.00  0.00    +0.000 A 
ATOM     11  C   UNL     1       3.519   5.271  18.225  0.00  0.00    +0.000 A 
BRANCH   3  12
ATOM     12  C   UNL     1       1.466   3.654  17.816  0.00  0.00    +0.000 C 
BRANCH  12  13
ATOM     13  C   UNL     1       1.545   2.568  18.886  0.00  0.00    +0.000 C 
BRANCH  13  15
ATOM     14  C   UNL     1       1.490   2.745  21.386  0.00  0.00    +0.000 C 
ATOM     15  C   UNL     1       0.688   2.897  20.102  0.00  0.00    +0.000 C 
ENDBRANCH  13  15
ENDBRANCH  12  13
ENDBRANCH   3  12
ENDBRANCH   1  11
BRANCH   1  16
ATOM     16  C   UNL     1       2.375   7.346  19.145  0.00  0.00    +0.000 A 
ATOM     17  C   UNL     1       1.696   7.923  20.216  0.00  0.00    +0.000 A 
ATOM     18  C   UNL     1       1.160   9.161  20.068  0.00  0.00    +0.000 A 
ATOM     19  C   UNL     1       1.257   9.879  18.881  0.00  0.00    +0.000 A 
ATOM     20  C   UNL     1       1.893   9.279  17.766  0.00  0.00    +0.000 A 
ATOM     21  C   UNL     1       2.427   7.995  17.907  0.00  0.00    +0.000 A 
BRANCH  19  22
ATOM     22  O   UNL     1       0.748  11.153  18.792  0.00  0.00    +0.000 OA
BRANCH  22  23
ATOM     23  C   UNL     1      -0.375  11.371  19.670  0.00  0.00    +0.000 C 
BRANCH  23  24
ATOM     24  C   UNL     1      -1.596  10.753  19.031  0.00  0.00    +0.000 C 
BRANCH  24  25
ATOM     25  C   UNL     1      -2.122  11.626  17.901  0.00  0.00    +0.000 C 
BRANCH  25  26
ATOM     26  N   UNL     1      -3.210  10.932  17.064  0.00  0.00    +0.000 N 
ATOM     27  C   UNL     1      -2.821  10.875  15.589  0.00  0.00    +0.000 C 
ATOM     28  C   UNL     1      -3.489   9.524  17.580  0.00  0.00    +0.000 C 
ATOM     29  C   UNL     1      -4.498  11.750  17.186  0.00  0.00    +0.000 C 
ENDBRANCH  25  26
ENDBRANCH  24  25
ENDBRANCH  23  24
ENDBRANCH  22  23
ENDBRANCH  19  22
ENDBRANCH   1  16
TORSDOF 10
ENDMDL
MODEL 3
REMARK VINA RESULT:      -7.8      2.511      4.525
REMARK  Name = 
REMARK  14 active torsions:
REMARK  status: ('A' for Active; 'I' for Inactive)
REMARK    1  A    between atoms: C_1  and  C_2
REMARK    2  A    between atoms: C_2  and  C_3
REMARK    3  A    between atoms: C_3  and  C_4
REMARK    4  A    between atoms: C_4  and  C_5
REMARK    5  A    between atoms: C_13  and  C_14
REMARK    6  A    between atoms: C_14  and  C_16
REMARK    7  A    between atoms: C_19  and  O_20
REMARK    8  A    between atoms: O_20  and  C_21
REMARK    9  A    between atoms: C_21  and  C_22
REMARK   10  A    between atoms: C_22  and  C_23
REMARK   11  A    between atoms: C_23  and  N_24
REMARK   12  A    between atoms: N_24  and  C_25
REMARK   13  A    between atoms: N_24  and  C_26
REMARK   14  A    between atoms: N_24  and  C_27
REMARK                            x       y       z     vdW  Elec       q    Type
REMARK                         _______ _______ _______ _____ _____    ______ ____
ROOT
ATOM      1  C   UNL     1       4.868   4.605  17.638  0.00  0.00    +0.000 C 
ATOM      2  O   UNL     1       4.765   3.474  18.133  0.00  0.00    +0.000 OA
ENDROOT
BRANCH   1  11
ATOM      3  C   UNL     1       6.926   5.793  16.836  0.00  0.00    +0.000 A 
ATOM      4  O   UNL     1       7.709   5.872  15.725  0.00  0.00    +0.000 OA
ATOM      5  C   UNL     1       7.112   5.137  14.755  0.00  0.00    +0.000 A 
ATOM      6  C   UNL     1       7.578   5.011  13.448  0.00  0.00    +0.000 A 
ATOM      7  C   UNL     1       6.814   4.241  12.571  0.00  0.00    +0.000 A 
ATOM      8  C   UNL     1       5.628   3.643  12.996  0.00  0.00    +0.000 A 
ATOM      9  C   UNL     1       5.178   3.801  14.318  0.00  0.00    +0.000 A 
ATOM     10  C   UNL     1       5.945   4.546  15.237  0.00  0.00    +0.000 A 
ATOM     11  C   UNL     1       5.857   4.934  16.625  0.00  0.00    +0.000 A 
BRANCH   3  12
ATOM     12  C   UNL     1       7.362   6.629  17.990  0.00  0.00    +0.000 C 
BRANCH  12  13
ATOM     13  C   UNL     1       7.736   8.038  17.536  0.00  0.00    +0.000 C 
BRANCH  13  15
ATOM     14  C   UNL     1       8.793  10.220  18.173  0.00  0.00    +0.000 C 
ATOM     15  C   UNL     1       8.591   8.764  18.567  0.00  0.00    +0.000 C 
ENDBRANCH  13  15
ENDBRANCH  12  13
ENDBRANCH   3  12
ENDBRANCH   1  11
BRANCH   1  16
ATOM     16  C   UNL     1       3.930   5.642  18.124  0.00  0.00    +0.000 A 
ATOM     17  C   UNL     1       3.251   5.401  19.317  0.00  0.00    +0.000 A 
ATOM     18  C   UNL     1       2.441   6.366  19.822  0.00  0.00    +0.000 A 
ATOM     19  C   UNL     1       2.257   7.591  19.188  0.00  0.00    +0.000 A 
ATOM     20  C   UNL     1       2.894   7.824  17.945  0.00  0.00    +0.000 A 
ATOM     21  C   UNL     1       3.711   6.825  17.411  0.00  0.00    +0.000 A 
BRANCH  19  22
ATOM     22  O   UNL     1       1.470   8.562  19.763  0.00  0.00    +0.000 OA
BRANCH  22  23
ATOM     23  C   UNL     1       1.148   8.281  21.140  0.00  0.00    +0.000 C 
BRANCH  23  24
ATOM     24  C   UNL     1      -0.100   9.054  21.496  0.00  0.00    +0.000 C 
BRANCH  24  25
ATOM     25  C   UNL     1      -0.335  10.194  20.515  0.00  0.00    +0.000 C 
BRANCH  25  26
ATOM     26  N   UNL     1      -0.619  11.535  21.212  0.00  0.00    +0.000 N 
ATOM     27  C   UNL     1      -0.914  11.335  22.697  0.00  0.00    +0.000 C 
ATOM     28  C   UNL     1       0.546  12.504  21.044  0.00  0.00    +0.000 C 
ATOM     29  C   UNL     1      -1.857  12.157  20.560  0.00  0.00    +0.000 C 
ENDBRANCH  25  26
ENDBRANCH  24  25
ENDBRANCH  23  24
ENDBRANCH  22  23
ENDBRANCH  19  22
ENDBRANCH   1  16
TORSDOF 10
ENDMDL
MODEL 4
REMARK VINA RESULT:      -7.8      0.413      1.183
REMARK  Name = 
REMARK  14 active torsions:
REMARK  status: ('A' for Active; 'I' for Inactive)
REMARK    1  A    between atoms: C_1  and  C_2
REMARK    2  A    between atoms: C_2  and  C_3
REMARK    3  A    between atoms: C_3  and  C_4
REMARK    4  A    between atoms: C_4  and  C_5
REMARK    5  A    between atoms: C_13  and  C_14
REMARK    6  A    between atoms: C_14  and  C_16
REMARK    7  A    between atoms: C_19  and  O_20
REMARK    8  A    between atoms: O_20  and  C_21
REMARK    9  A    between atoms: C_21  and  C_22
REMARK   10  A    between atoms: C_22  and  C_23
REMARK   11  A    between atoms: C_23  and  N_24
REMARK   12  A    between atoms: N_24  and  C_25
REMARK   13  A    between atoms: N_24  and  C_26
REMARK   14  A    between atoms: N_24  and  C_27
REMARK                            x       y       z     vdW  Elec       q    Type
REMARK                         _______ _______ _______ _____ _____    ______ ____
ROOT
ATOM      1  C   UNL     1       3.703   6.847  17.801  0.00  0.00    +0.000 C 
ATOM      2  O   UNL     1       4.292   7.249  16.787  0.00  0.00    +0.000 OA
ENDROOT
BRANCH   1  11
ATOM      3  C   UNL     1       5.165   5.131  18.899  0.00  0.00    +0.000 A 
ATOM      4  O   UNL     1       5.077   3.875  19.415  0.00  0.00    +0.000 OA
ATOM      5  C   UNL     1       3.825   3.418  19.162  0.00  0.00    +0.000 A 
ATOM      6  C   UNL     1       3.359   2.146  19.487  0.00  0.00    +0.000 A 
ATOM      7  C   UNL     1       2.050   1.835  19.117  0.00  0.00    +0.000 A 
ATOM      8  C   UNL     1       1.262   2.763  18.437  0.00  0.00    +0.000 A 
ATOM      9  C   UNL     1       1.768   4.034  18.113  0.00  0.00    +0.000 A 
ATOM     10  C   UNL     1       3.075   4.390  18.502  0.00  0.00    +0.000 A 
ATOM     11  C   UNL     1       3.943   5.537  18.382  0.00  0.00    +0.000 A 
BRANCH   3  12
ATOM     12  C   UNL     1       6.509   5.767  18.983  0.00  0.00    +0.000 C 
BRANCH  12  13
ATOM     13  C   UNL     1       7.166   5.846  17.607  0.00  0.00    +0.000 C 
BRANCH  13  15
ATOM     14  C   UNL     1       6.693   4.543  15.518  0.00  0.00    +0.000 C 
ATOM     15  C   UNL     1       7.250   4.483  16.933  0.00  0.00    +0.000 C 
ENDBRANCH  13  15
ENDBRANCH  12  13
ENDBRANCH   3  12
ENDBRANCH   1  11
BRANCH   1  16
ATOM     16  C   UNL     1       2.720   7.765  18.418  0.00  0.00    +0.000 A 
ATOM     17  C   UNL     1       2.250   8.830  17.652  0.00  0.00    +0.000 A 
ATOM     18  C   UNL     1       1.293   9.642  18.168  0.00  0.00    +0.000 A 
ATOM     19  C   UNL     1       0.766   9.458  19.442  0.00  0.00    +0.000 A 
ATOM     20  C   UNL     1       1.279   8.417  20.253  0.00  0.00    +0.000 A 
ATOM     21  C   UNL     1       2.279   7.591  19.734  0.00  0.00    +0.000 A 
BRANCH  19  22
ATOM     22  O   UNL     1      -0.241  10.272  19.905  0.00  0.00    +0.000 OA
BRANCH  22  23
ATOM     23  C   UNL     1      -0.120  11.633  19.444  0.00  0.00    +0.000 C 
BRANCH  23  24
ATOM     24  C   UNL     1      -1.498  12.121  19.061  0.00  0.00    +0.000 C 
BRANCH  24  25
ATOM     25  C   UNL     1      -1.866  11.671  17.655  0.00  0.00    +0.000 C 
BRANCH  25  26
ATOM     26  N   UNL     1      -3.275  11.060  17.570  0.00  0.00    +0.000 N 
ATOM     27  C   UNL     1      -3.235   9.548  17.776  0.00  0.00    +0.000 C 
ATOM     28  C   UNL     1      -4.214  11.695  18.590  0.00  0.00    +0.000 C 
ATOM     29  C   UNL     1      -3.830  11.337  16.171  0.00  0.00    +0.000 C 
ENDBRANCH  25  26
ENDBRANCH  24  25
ENDBRANCH  23  24
ENDBRANCH  22  23
ENDBRANCH  19  22
ENDBRANCH   1  16
TORSDOF 10
ENDMDL
MODEL 5
REMARK VINA RESULT:      -7.6      2.337      4.532
REMARK  Name = 
REMARK  14 active torsions:
REMARK  status: ('A' for Active; 'I' for Inactive)
REMARK    1  A    between atoms: C_1  and  C_2
REMARK    2  A    between atoms: C_2  and  C_3
REMARK    3  A    between atoms: C_3  and  C_4
REMARK    4  A    between atoms: C_4  and  C_5
REMARK    5  A    between atoms: C_13  and  C_14
REMARK    6  A    between atoms: C_14  and  C_16
REMARK    7  A    between atoms: C_19  and  O_20
REMARK    8  A    between atoms: O_20  and  C_21
REMARK    9  A    between atoms: C_21  and  C_22
REMARK   10  A    between atoms: C_22  and  C_23
REMARK   11  A    between atoms: C_23  and  N_24
REMARK   12  A    between atoms: N_24  and  C_25
REMARK   13  A    between atoms: N_24  and  C_26
REMARK   14  A    between atoms: N_24  and  C_27
REMARK                            x       y       z     vdW  Elec       q    Type
REMARK                         _______ _______ _______ _____ _____    ______ ____
ROOT
ATOM      1  C   UNL     1       4.607   3.909  17.294  0.00  0.00    +0.000 C 
ATOM      2  O   UNL     1       4.188   2.769  17.538  0.00  0.00    +0.000 OA
ENDROOT
BRANCH   1  11
ATOM      3  C   UNL     1       6.966   4.585  16.780  0.00  0.00    +0.000 A 
ATOM      4  O   UNL     1       7.800   4.697  15.710  0.00  0.00    +0.000 OA
ATOM      5  C   UNL     1       7.071   4.437  14.598  0.00  0.00    +0.000 A 
ATOM      6  C   UNL     1       7.556   4.504  13.293  0.00  0.00    +0.000 A 
ATOM      7  C   UNL     1       6.651   4.238  12.264  0.00  0.00    +0.000 A 
ATOM      8  C   UNL     1       5.319   3.937  12.547  0.00  0.00    +0.000 A 
ATOM      9  C   UNL     1       4.859   3.892  13.874  0.00  0.00    +0.000 A 
ATOM     10  C   UNL     1       5.756   4.123  14.936  0.00  0.00    +0.000 A 
ATOM     11  C   UNL     1       5.705   4.165  16.379  0.00  0.00    +0.000 A 
BRANCH   3  12
ATOM     12  C   UNL     1       7.561   4.941  18.099  0.00  0.00    +0.000 C 
BRANCH  12  13
ATOM     13  C   UNL     1       7.240   6.386  18.473  0.00  0.00    +0.000 C 
BRANCH  13  15
ATOM     14  C   UNL     1       7.952   8.699  17.820  0.00  0.00    +0.000 C 
ATOM     15  C   UNL     1       7.478   7.345  17.314  0.00  0.00    +0.000 C 
ENDBRANCH  13  15
ENDBRANCH  12  13
ENDBRANCH   3  12
ENDBRANCH   1  11
BRANCH   1  16
ATOM     16  C   UNL     1       3.937   5.034  17.985  0.00  0.00    +0.000 A 
ATOM     17  C   UNL     1       3.804   6.238  17.296  0.00  0.00    +0.000 A 
ATOM     18  C   UNL     1       3.129   7.261  17.879  0.00  0.00    +0.000 A 
ATOM     19  C   UNL     1       2.569   7.157  19.149  0.00  0.00    +0.000 A 
ATOM     20  C   UNL     1       2.750   5.960  19.883  0.00  0.00    +0.000 A 
ATOM     21  C   UNL     1       3.463   4.911  19.295  0.00  0.00    +0.000 A 
BRANCH  19  22
ATOM     22  O   UNL     1       1.846   8.199  19.680  0.00  0.00    +0.000 OA
BRANCH  22  23
ATOM     23  C   UNL     1       1.360   7.925  21.009  0.00  0.00    +0.000 C 
BRANCH  23  24
ATOM     24  C   UNL     1       0.651   9.161  21.512  0.00  0.00    +0.000 C 
BRANCH  24  25
ATOM     25  C   UNL     1      -0.131   9.835  20.394  0.00  0.00    +0.000 C 
BRANCH  25  26
ATOM     26  N   UNL     1      -0.284  11.352  20.599  0.00  0.00    +0.000 N 
ATOM     27  C   UNL     1      -1.250  11.953  19.582  0.00  0.00    +0.000 C 
ATOM     28  C   UNL     1      -0.758  11.672  22.013  0.00  0.00    +0.000 C 
ATOM     29  C   UNL     1       1.087  12.000  20.396  0.00  0.00    +0.000 C 
ENDBRANCH  25  26
ENDBRANCH  24  25
ENDBRANCH  23  24
ENDBRANCH  22  23
ENDBRANCH  19  22
ENDBRANCH   1  16
TORSDOF 10
ENDMDL
MODEL 6
REMARK VINA RESULT:      -7.6      2.767      5.041
REMARK  Name = 
REMARK  14 active torsions:
REMARK  status: ('A' for Active; 'I' for Inactive)
REMARK    1  A    between atoms: C_1  and  C_2
REMARK    2  A    between atoms: C_2  and  C_3
REMARK    3  A    between atoms: C_3  and  C_4
REMARK    4  A    between atoms: C_4  and  C_5
REMARK    5  A    between atoms: C_13  and  C_14
REMARK    6  A    between atoms: C_14  and  C_16
REMARK    7  A    between atoms: C_19  and  O_20
REMARK    8  A    between atoms: O_20  and  C_21
REMARK    9  A    between atoms: C_21  and  C_22
REMARK   10  A    between atoms: C_22  and  C_23
REMARK   11  A    between atoms: C_23  and  N_24
REMARK   12  A    between atoms: N_24  and  C_25
REMARK   13  A    between atoms: N_24  and  C_26
REMARK   14  A    between atoms: N_24  and  C_27
REMARK                            x       y       z     vdW  Elec       q    Type
REMARK                         _______ _______ _______ _____ _____    ______ ____
ROOT
ATOM      1  C   UNL     1       3.008   6.009  19.430  0.00  0.00    +0.000 C 
ATOM      2  O   UNL     1       3.065   5.568  20.587  0.00  0.00    +0.000 OA
ENDROOT
BRANCH   1  11
ATOM      3  C   UNL     1       2.834   4.257  17.645  0.00  0.00    +0.000 A 
ATOM      4  O   UNL     1       3.540   3.793  16.578  0.00  0.00    +0.000 OA
ATOM      5  C   UNL     1       4.728   4.445  16.563  0.00  0.00    +0.000 A 
ATOM      6  C   UNL     1       5.756   4.211  15.652  0.00  0.00    +0.000 A 
ATOM      7  C   UNL     1       6.927   4.953  15.809  0.00  0.00    +0.000 A 
ATOM      8  C   UNL     1       7.053   5.873  16.849  0.00  0.00    +0.000 A 
ATOM      9  C   UNL     1       6.003   6.076  17.760  0.00  0.00    +0.000 A 
ATOM     10  C   UNL     1       4.795   5.366  17.608  0.00  0.00    +0.000 A 
ATOM     11  C   UNL     1       3.521   5.279  18.284  0.00  0.00    +0.000 A 
BRANCH   3  12
ATOM     12  C   UNL     1       1.531   3.579  17.897  0.00  0.00    +0.000 C 
BRANCH  12  13
ATOM     13  C   UNL     1       1.642   2.587  19.052  0.00  0.00    +0.000 C 
BRANCH  13  15
ATOM     14  C   UNL     1       1.554   2.641  21.557  0.00  0.00    +0.000 C 
ATOM     15  C   UNL     1       0.843   3.034  20.270  0.00  0.00    +0.000 C 
ENDBRANCH  13  15
ENDBRANCH  12  13
ENDBRANCH   3  12
ENDBRANCH   1  11
BRANCH   1  16
ATOM     16  C   UNL     1       2.387   7.340  19.247  0.00  0.00    +0.000 A 
ATOM     17  C   UNL     1       2.517   7.956  18.004  0.00  0.00    +0.000 A 
ATOM     18  C   UNL     1       1.895   9.143  17.788  0.00  0.00    +0.000 A 
ATOM     19  C   UNL     1       1.134   9.775  18.766  0.00  0.00    +0.000 A 
ATOM     20  C   UNL     1       1.044   9.189  20.052  0.00  0.00    +0.000 A 
ATOM     21  C   UNL     1       1.701   7.977  20.286  0.00  0.00    +0.000 A 
BRANCH  19  22
ATOM     22  O   UNL     1       0.475  10.950  18.487  0.00  0.00    +0.000 OA
BRANCH  22  23
ATOM     23  C   UNL     1       0.829  12.019  19.387  0.00  0.00    +0.000 C 
BRANCH  23  24
ATOM     24  C   UNL     1       2.024  12.741  18.809  0.00  0.00    +0.000 C 
BRANCH  24  25
ATOM     25  C   UNL     1       1.768  14.238  18.719  0.00  0.00    +0.000 C 
BRANCH  25  26
ATOM     26  N   UNL     1       3.018  15.079  19.026  0.00  0.00    +0.000 N 
ATOM     27  C   UNL     1       2.814  16.539  18.628  0.00  0.00    +0.000 C 
ATOM     28  C   UNL     1       3.394  14.994  20.501  0.00  0.00    +0.000 C 
ATOM     29  C   UNL     1       4.181  14.520  18.203  0.00  0.00    +0.000 C 
ENDBRANCH  25  26
ENDBRANCH  24  25
ENDBRANCH  23  24
ENDBRANCH  22  23
ENDBRANCH  19  22
ENDBRANCH   1  16
TORSDOF 10
ENDMDL
MODEL 7
REMARK VINA RESULT:      -7.6      2.651      8.608
REMARK  Name = 
REMARK  14 active torsions:
REMARK  status: ('A' for Active; 'I' for Inactive)
REMARK    1  A    between atoms: C_1  and  C_2
REMARK    2  A    between atoms: C_2  and  C_3
REMARK    3  A    between atoms: C_3  and  C_4
REMARK    4  A    between atoms: C_4  and  C_5
REMARK    5  A    between atoms: C_13  and  C_14
REMARK    6  A    between atoms: C_14  and  C_16
REMARK    7  A    between atoms: C_19  and  O_20
REMARK    8  A    between atoms: O_20  and  C_21
REMARK    9  A    between atoms: C_21  and  C_22
REMARK   10  A    between atoms: C_22  and  C_23
REMARK   11  A    between atoms: C_23  and  N_24
REMARK   12  A    between atoms: N_24  and  C_25
REMARK   13  A    between atoms: N_24  and  C_26
REMARK   14  A    between atoms: N_24  and  C_27
REMARK                            x       y       z     vdW  Elec       q    Type
REMARK                         _______ _______ _______ _____ _____    ______ ____
ROOT
ATOM      1  C   UNL     1       1.220  10.348  18.606  0.00  0.00    +0.000 C 
ATOM      2  O   UNL     1       2.098  11.079  18.126  0.00  0.00    +0.000 OA
ENDROOT
BRANCH   1  11
ATOM      3  C   UNL     1      -0.525  11.499  19.990  0.00  0.00    +0.000 A 
ATOM      4  O   UNL     1      -1.842  11.836  19.924  0.00  0.00    +0.000 OA
ATOM      5  C   UNL     1      -2.344  11.291  18.788  0.00  0.00    +0.000 A 
ATOM      6  C   UNL     1      -3.677  11.365  18.388  0.00  0.00    +0.000 A 
ATOM      7  C   UNL     1      -4.023  10.713  17.204  0.00  0.00    +0.000 A 
ATOM      8  C   UNL     1      -3.067  10.008  16.474  0.00  0.00    +0.000 A 
ATOM      9  C   UNL     1      -1.734   9.941  16.912  0.00  0.00    +0.000 A 
ATOM     10  C   UNL     1      -1.346  10.616  18.087  0.00  0.00    +0.000 A 
ATOM     11  C   UNL     1      -0.136  10.805  18.853  0.00  0.00    +0.000 A 
BRANCH   3  12
ATOM     12  C   UNL     1       0.183  11.919  21.232  0.00  0.00    +0.000 C 
BRANCH  12  13
ATOM     13  C   UNL     1      -0.713  11.754  22.457  0.00  0.00    +0.000 C 
BRANCH  13  15
ATOM     14  C   UNL     1       0.193   9.583  23.324  0.00  0.00    +0.000 C 
ATOM     15  C   UNL     1      -1.024  10.290  22.747  0.00  0.00    +0.000 C 
ENDBRANCH  13  15
ENDBRANCH  12  13
ENDBRANCH   3  12
ENDBRANCH   1  11
BRANCH   1  16
ATOM     16  C   UNL     1       1.607   8.957  18.933  0.00  0.00    +0.000 A 
ATOM     17  C   UNL     1       2.184   8.186  17.926  0.00  0.00    +0.000 A 
ATOM     18  C   UNL     1       2.615   6.933  18.220  0.00  0.00    +0.000 A 
ATOM     19  C   UNL     1       2.495   6.382  19.491  0.00  0.00    +0.000 A 
ATOM     20  C   UNL     1       1.855   7.133  20.508  0.00  0.00    +0.000 A 
ATOM     21  C   UNL     1       1.391   8.416  20.204  0.00  0.00    +0.000 A 
BRANCH  19  22
ATOM     22  O   UNL     1       2.994   5.129  19.759  0.00  0.00    +0.000 OA
BRANCH  22  23
ATOM     23  C   UNL     1       2.952   4.252  18.615  0.00  0.00    +0.000 C 
BRANCH  23  24
ATOM     24  C   UNL     1       4.375   3.928  18.222  0.00  0.00    +0.000 C 
BRANCH  24  25
ATOM     25  C   UNL     1       4.521   3.855  16.710  0.00  0.00    +0.000 C 
BRANCH  25  26
ATOM     26  N   UNL     1       5.732   4.647  16.186  0.00  0.00    +0.000 N 
ATOM     27  C   UNL     1       5.348   6.087  15.854  0.00  0.00    +0.000 C 
ATOM     28  C   UNL     1       6.876   4.637  17.194  0.00  0.00    +0.000 C 
ATOM     29  C   UNL     1       6.220   3.975  14.901  0.00  0.00    +0.000 C 
ENDBRANCH  25  26
ENDBRANCH  24  25
ENDBRANCH  23  24
ENDBRANCH  22  23
ENDBRANCH  19  22
ENDBRANCH   1  16
TORSDOF 10
ENDMDL
MODEL 8
REMARK VINA RESULT:      -7.5      2.005      2.533
REMARK  Name = 
REMARK  14 active torsions:
REMARK  status: ('A' for Active; 'I' for Inactive)
REMARK    1  A    between atoms: C_1  and  C_2
REMARK    2  A    between atoms: C_2  and  C_3
REMARK    3  A    between atoms: C_3  and  C_4
REMARK    4  A    between atoms: C_4  and  C_5
REMARK    5  A    between atoms: C_13  and  C_14
REMARK    6  A    between atoms: C_14  and  C_16
REMARK    7  A    between atoms: C_19  and  O_20
REMARK    8  A    between atoms: O_20  and  C_21
REMARK    9  A    between atoms: C_21  and  C_22
REMARK   10  A    between atoms: C_22  and  C_23
REMARK   11  A    between atoms: C_23  and  N_24
REMARK   12  A    between atoms: N_24  and  C_25
REMARK   13  A    between atoms: N_24  and  C_26
REMARK   14  A    between atoms: N_24  and  C_27
REMARK                            x       y       z     vdW  Elec       q    Type
REMARK                         _______ _______ _______ _____ _____    ______ ____
ROOT
ATOM      1  C   UNL     1       3.761   6.698  17.703  0.00  0.00    +0.000 C 
ATOM      2  O   UNL     1       4.388   7.136  16.729  0.00  0.00    +0.000 OA
ENDROOT
BRANCH   1  11
ATOM      3  C   UNL     1       5.196   4.846  18.597  0.00  0.00    +0.000 A 
ATOM      4  O   UNL     1       5.067   3.586  19.096  0.00  0.00    +0.000 OA
ATOM      5  C   UNL     1       3.764   3.233  18.976  0.00  0.00    +0.000 A 
ATOM      6  C   UNL     1       3.238   1.991  19.327  0.00  0.00    +0.000 A 
ATOM      7  C   UNL     1       1.876   1.790  19.100  0.00  0.00    +0.000 A 
ATOM      8  C   UNL     1       1.092   2.794  18.532  0.00  0.00    +0.000 A 
ATOM      9  C   UNL     1       1.657   4.031  18.177  0.00  0.00    +0.000 A 
ATOM     10  C   UNL     1       3.023   4.276  18.423  0.00  0.00    +0.000 A 
ATOM     11  C   UNL     1       3.960   5.358  18.228  0.00  0.00    +0.000 A 
BRANCH   3  12
ATOM     12  C   UNL     1       6.587   5.376  18.542  0.00  0.00    +0.000 C 
BRANCH  12  13
ATOM     13  C   UNL     1       7.393   4.689  17.442  0.00  0.00    +0.000 C 
BRANCH  13  15
ATOM     14  C   UNL     1       7.059   4.890  14.965  0.00  0.00    +0.000 C 
ATOM     15  C   UNL     1       6.522   4.291  16.256  0.00  0.00    +0.000 C 
ENDBRANCH  13  15
ENDBRANCH  12  13
ENDBRANCH   3  12
ENDBRANCH   1  11
BRANCH   1  16
ATOM     16  C   UNL     1       2.773   7.603  18.331  0.00  0.00    +0.000 A 
ATOM     17  C   UNL     1       2.394   7.345  19.647  0.00  0.00    +0.000 A 
ATOM     18  C   UNL     1       1.546   8.203  20.270  0.00  0.00    +0.000 A 
ATOM     19  C   UNL     1       1.032   9.332  19.640  0.00  0.00    +0.000 A 
ATOM     20  C   UNL     1       1.362   9.572  18.284  0.00  0.00    +0.000 A 
ATOM     21  C   UNL     1       2.218   8.680  17.632  0.00  0.00    +0.000 A 
BRANCH  19  22
ATOM     22  O   UNL     1       0.219  10.204  20.326  0.00  0.00    +0.000 OA
BRANCH  22  23
ATOM     23  C   UNL     1       0.927  11.358  20.824  0.00  0.00    +0.000 C 
BRANCH  23  24
ATOM     24  C   UNL     1       0.040  12.567  20.636  0.00  0.00    +0.000 C 
BRANCH  24  25
ATOM     25  C   UNL     1      -1.420  12.217  20.885  0.00  0.00    +0.000 C 
BRANCH  25  26
ATOM     26  N   UNL     1      -1.902  12.619  22.289  0.00  0.00    +0.000 N 
ATOM     27  C   UNL     1      -1.907  11.421  23.235  0.00  0.00    +0.000 C 
ATOM     28  C   UNL     1      -1.039  13.733  22.871  0.00  0.00    +0.000 C 
ATOM     29  C   UNL     1      -3.337  13.138  22.169  0.00  0.00    +0.000 C 
ENDBRANCH  25  26
ENDBRANCH  24  25
ENDBRANCH  23  24
ENDBRANCH  22  23
ENDBRANCH  19  22
ENDBRANCH   1  16
TORSDOF 10
ENDMDL
MODEL 9
REMARK VINA RESULT:      -7.5      2.543      4.778
REMARK  Name = 
REMARK  14 active torsions:
REMARK  status: ('A' for Active; 'I' for Inactive)
REMARK    1  A    between atoms: C_1  and  C_2
REMARK    2  A    between atoms: C_2  and  C_3
REMARK    3  A    between atoms: C_3  and  C_4
REMARK    4  A    between atoms: C_4  and  C_5
REMARK    5  A    between atoms: C_13  and  C_14
REMARK    6  A    between atoms: C_14  and  C_16
REMARK    7  A    between atoms: C_19  and  O_20
REMARK    8  A    between atoms: O_20  and  C_21
REMARK    9  A    between atoms: C_21  and  C_22
REMARK   10  A    between atoms: C_22  and  C_23
REMARK   11  A    between atoms: C_23  and  N_24
REMARK   12  A    between atoms: N_24  and  C_25
REMARK   13  A    between atoms: N_24  and  C_26
REMARK   14  A    between atoms: N_24  and  C_27
REMARK                            x       y       z     vdW  Elec       q    Type
REMARK                         _______ _______ _______ _____ _____    ______ ____
ROOT
ATOM      1  C   UNL     1       2.964   5.990  19.510  0.00  0.00    +0.000 C 
ATOM      2  O   UNL     1       3.001   5.582  20.680  0.00  0.00    +0.000 OA
ENDROOT
BRANCH   1  11
ATOM      3  C   UNL     1       2.830   4.294  17.668  0.00  0.00    +0.000 A 
ATOM      4  O   UNL     1       3.600   3.796  16.662  0.00  0.00    +0.000 OA
ATOM      5  C   UNL     1       4.832   4.349  16.781  0.00  0.00    +0.000 A 
ATOM      6  C   UNL     1       5.923   4.050  15.968  0.00  0.00    +0.000 A 
ATOM      7  C   UNL     1       7.128   4.691  16.260  0.00  0.00    +0.000 A 
ATOM      8  C   UNL     1       7.223   5.577  17.333  0.00  0.00    +0.000 A 
ATOM      9  C   UNL     1       6.106   5.846  18.142  0.00  0.00    +0.000 A 
ATOM     10  C   UNL     1       4.867   5.240  17.853  0.00  0.00    +0.000 A 
ATOM     11  C   UNL     1       3.529   5.244  18.399  0.00  0.00    +0.000 A 
BRANCH   3  12
ATOM     12  C   UNL     1       1.459   3.721  17.771  0.00  0.00    +0.000 C 
BRANCH  12  13
ATOM     13  C   UNL     1       1.398   2.636  18.845  0.00  0.00    +0.000 C 
BRANCH  13  15
ATOM     14  C   UNL     1       1.471   2.674  21.350  0.00  0.00    +0.000 C 
ATOM     15  C   UNL     1       0.708   3.123  20.113  0.00  0.00    +0.000 C 
ENDBRANCH  13  15
ENDBRANCH  12  13
ENDBRANCH   3  12
ENDBRANCH   1  11
BRANCH   1  16
ATOM     16  C   UNL     1       2.312   7.297  19.273  0.00  0.00    +0.000 A 
ATOM     17  C   UNL     1       1.636   7.892  20.336  0.00  0.00    +0.000 A 
ATOM     18  C   UNL     1       1.092   9.124  20.165  0.00  0.00    +0.000 A 
ATOM     19  C   UNL     1       1.178   9.817  18.961  0.00  0.00    +0.000 A 
ATOM     20  C   UNL     1       1.810   9.197  17.856  0.00  0.00    +0.000 A 
ATOM     21  C   UNL     1       2.352   7.919  18.021  0.00  0.00    +0.000 A 
BRANCH  19  22
ATOM     22  O   UNL     1       0.660  11.086  18.848  0.00  0.00    +0.000 OA
BRANCH  22  23
ATOM     23  C   UNL     1       0.245  11.638  20.114  0.00  0.00    +0.000 C 
BRANCH  23  24
ATOM     24  C   UNL     1       0.499  13.127  20.080  0.00  0.00    +0.000 C 
BRANCH  24  25
ATOM     25  C   UNL     1       1.905  13.452  20.562  0.00  0.00    +0.000 C 
BRANCH  25  26
ATOM     26  N   UNL     1       2.681  14.349  19.583  0.00  0.00    +0.000 N 
ATOM     27  C   UNL     1       3.961  14.885  20.220  0.00  0.00    +0.000 C 
ATOM     28  C   UNL     1       3.018  13.602  18.297  0.00  0.00    +0.000 C 
ATOM     29  C   UNL     1       1.792  15.542  19.224  0.00  0.00    +0.000 C 
ENDBRANCH  25  26
ENDBRANCH  24  25
ENDBRANCH  23  24
ENDBRANCH  22  23
ENDBRANCH  19  22
ENDBRANCH   1  16
TORSDOF 10
ENDMDL
