MODEL 1
REMARK VINA RESULT:      -7.6      0.000      0.000
REMARK  Name = 
REMARK  9 active torsions:
REMARK  status: ('A' for Active; 'I' for Inactive)
REMARK    1  A    between atoms: C_1  and  O_2
REMARK    2  A    between atoms: O_2  and  C_3
REMARK    3  A    between atoms: C_5  and  C_6
REMARK    4  A    between atoms: C_16  and  N_17
REMARK    5  A    between atoms: N_17  and  C_18
REMARK    6  A    between atoms: C_21  and  C_22
REMARK    7  A    between atoms: C_33  and  O_34
REMARK    8  A    between atoms: O_34  and  C_35
REMARK    9  A    between atoms: C_36  and  O_37
REMARK                            x       y       z     vdW  Elec       q    Type
REMARK                         _______ _______ _______ _____ _____    ______ ____
ROOT
ATOM      1  C   UNL     1      -2.699  12.837  20.354  0.00  0.00    +0.000 C 
ATOM      2  C   UNL     1      -2.635  12.049  19.071  0.00  0.00    +0.000 A 
ATOM      3  N   UNL     1      -3.316  12.371  17.927  0.00  0.00    +0.000 N 
ATOM      4  C   UNL     1      -3.102  11.405  16.967  0.00  0.00    +0.000 A 
ATOM      5  C   UNL     1      -3.588  11.315  15.658  0.00  0.00    +0.000 A 
ATOM      6  C   UNL     1      -3.227  10.193  14.906  0.00  0.00    +0.000 A 
ATOM      7  C   UNL     1      -2.422   9.194  15.448  0.00  0.00    +0.000 A 
ATOM      8  C   UNL     1      -1.930   9.303  16.754  0.00  0.00    +0.000 A 
ATOM      9  C   UNL     1      -2.263  10.436  17.523  0.00  0.00    +0.000 A 
ATOM     10  C   UNL     1      -1.927  10.881  18.832  0.00  0.00    +0.000 A 
ATOM     11  C   UNL     1      -1.000  10.266  19.855  0.00  0.00    +0.000 C 
ATOM     12  C   UNL     1      -1.398  10.837  21.262  0.00  0.00    +0.000 C 
ATOM     13  C   UNL     1      -0.334  10.758  22.341  0.00  0.00    +0.000 C 
ATOM     14  O   UNL     1       0.000  12.118  22.676  0.00  0.00    +0.000 OA
ATOM     15  C   UNL     1      -0.846  12.966  22.022  0.00  0.00    +0.000 C 
ATOM     16  O   UNL     1      -0.810  14.181  22.132  0.00  0.00    +0.000 OA
ATOM     17  N   UNL     1      -1.706  12.255  21.248  0.00  0.00    +0.000 N 
ATOM     18  H   UNL     1      -3.924  13.171  17.808  0.00  0.00    +0.000 HD
ENDROOT
BRANCH   1  21
ATOM     19  C   UNL     1      -5.641  13.574  22.747  0.00  0.00    +0.000 A 
ATOM     20  C   UNL     1      -4.362  13.565  22.168  0.00  0.00    +0.000 A 
ATOM     21  C   UNL     1      -4.082  12.849  21.000  0.00  0.00    +0.000 A 
ATOM     22  C   UNL     1      -5.144  12.149  20.409  0.00  0.00    +0.000 A 
ATOM     23  C   UNL     1      -6.442  12.126  20.965  0.00  0.00    +0.000 A 
ATOM     24  C   UNL     1      -6.689  12.852  22.143  0.00  0.00    +0.000 A 
BRANCH  19  26
ATOM     25  C   UNL     1      -5.779  15.742  23.793  0.00  0.00    +0.000 C 
ATOM     26  O   UNL     1      -5.666  14.331  23.892  0.00  0.00    +0.000 OA
ENDBRANCH  19  26
BRANCH  23  27
ATOM     27  O   UNL     1      -7.275  11.360  20.197  0.00  0.00    +0.000 OA
ATOM     28  C   UNL     1      -7.435   9.969  20.386  0.00  0.00    +0.000 C 
ENDBRANCH  23  27
BRANCH  24  29
ATOM     29  O   UNL     1      -7.916  12.922  22.740  0.00  0.00    +0.000 OA
ATOM     30  H   UNL     1      -7.919  13.584  23.435  0.00  0.00    +0.000 HD
ENDBRANCH  24  29
ENDBRANCH   1  21
BRANCH  11  31
ATOM     31  N   UNL     1       0.426  10.516  19.555  0.00  0.00    +0.000 N 
ATOM     32  H   UNL     1       0.523  11.306  18.914  0.00  0.00    +0.000 HD
BRANCH  31  33
ATOM     33  C   UNL     1       1.235   9.436  19.180  0.00  0.00    +0.000 A 
ATOM     34  C   UNL     1       1.426   8.370  20.071  0.00  0.00    +0.000 A 
ATOM     35  C   UNL     1       2.244   7.283  19.738  0.00  0.00    +0.000 A 
ATOM     36  C   UNL     1       2.858   7.227  18.488  0.00  0.00    +0.000 A 
ATOM     37  C   UNL     1       2.597   8.228  17.552  0.00  0.00    +0.000 A 
ATOM     38  C   UNL     1       1.776   9.306  17.893  0.00  0.00    +0.000 A 
BRANCH  36  39
ATOM     39  C   UNL     1       3.756   6.163  18.159  0.00  0.00    +0.000 C 
ATOM     40  N   UNL     1       4.461   5.274  17.902  0.00  0.00    +0.000 NA
ENDBRANCH  36  39
ENDBRANCH  31  33
ENDBRANCH  11  31
TORSDOF 7
ENDMDL
MODEL 2
REMARK VINA RESULT:      -7.5      0.150      2.279
REMARK  Name = 
REMARK  9 active torsions:
REMARK  status: ('A' for Active; 'I' for Inactive)
REMARK    1  A    between atoms: C_1  and  O_2
REMARK    2  A    between atoms: O_2  and  C_3
REMARK    3  A    between atoms: C_5  and  C_6
REMARK    4  A    between atoms: C_16  and  N_17
REMARK    5  A    between atoms: N_17  and  C_18
REMARK    6  A    between atoms: C_21  and  C_22
REMARK    7  A    between atoms: C_33  and  O_34
REMARK    8  A    between atoms: O_34  and  C_35
REMARK    9  A    between atoms: C_36  and  O_37
REMARK                            x       y       z     vdW  Elec       q    Type
REMARK                         _______ _______ _______ _____ _____    ______ ____
ROOT
ATOM      1  C   UNL     1      -2.662  12.848  20.346  0.00  0.00    +0.000 C 
ATOM      2  C   UNL     1      -2.605  12.064  19.060  0.00  0.00    +0.000 A 
ATOM      3  N   UNL     1      -3.271  12.406  17.913  0.00  0.00    +0.000 N 
ATOM      4  C   UNL     1      -3.070  11.440  16.950  0.00  0.00    +0.000 A 
ATOM      5  C   UNL     1      -3.549  11.367  15.637  0.00  0.00    +0.000 A 
ATOM      6  C   UNL     1      -3.206  10.241  14.882  0.00  0.00    +0.000 A 
ATOM      7  C   UNL     1      -2.426   9.223  15.425  0.00  0.00    +0.000 A 
ATOM      8  C   UNL     1      -1.941   9.316  16.735  0.00  0.00    +0.000 A 
ATOM      9  C   UNL     1      -2.256  10.451  17.508  0.00  0.00    +0.000 A 
ATOM     10  C   UNL     1      -1.920  10.883  18.821  0.00  0.00    +0.000 A 
ATOM     11  C   UNL     1      -1.014  10.243  19.847  0.00  0.00    +0.000 C 
ATOM     12  C   UNL     1      -1.410  10.816  21.255  0.00  0.00    +0.000 C 
ATOM     13  C   UNL     1      -0.356  10.709  22.341  0.00  0.00    +0.000 C 
ATOM     14  O   UNL     1       0.005  12.060  22.685  0.00  0.00    +0.000 OA
ATOM     15  C   UNL     1      -0.819  12.929  22.029  0.00  0.00    +0.000 C 
ATOM     16  O   UNL     1      -0.758  14.142  22.146  0.00  0.00    +0.000 OA
ATOM     17  N   UNL     1      -1.688  12.240  21.245  0.00  0.00    +0.000 N 
ATOM     18  H   UNL     1      -3.860  13.220  17.794  0.00  0.00    +0.000 HD
ENDROOT
BRANCH   1  21
ATOM     19  C   UNL     1      -6.417  12.254  21.033  0.00  0.00    +0.000 A 
ATOM     20  C   UNL     1      -5.148  12.218  20.433  0.00  0.00    +0.000 A 
ATOM     21  C   UNL     1      -4.049  12.885  20.982  0.00  0.00    +0.000 A 
ATOM     22  C   UNL     1      -4.258  13.583  22.181  0.00  0.00    +0.000 A 
ATOM     23  C   UNL     1      -5.520  13.651  22.811  0.00  0.00    +0.000 A 
ATOM     24  C   UNL     1      -6.607  12.973  22.230  0.00  0.00    +0.000 A 
BRANCH  19  26
ATOM     25  C   UNL     1      -7.192  10.134  20.187  0.00  0.00    +0.000 C 
ATOM     26  O   UNL     1      -7.336  11.540  20.303  0.00  0.00    +0.000 OA
ENDBRANCH  19  26
BRANCH  23  27
ATOM     27  O   UNL     1      -5.445  14.403  23.951  0.00  0.00    +0.000 OA
ATOM     28  C   UNL     1      -5.920  15.731  24.030  0.00  0.00    +0.000 C 
ENDBRANCH  23  27
BRANCH  24  29
ATOM     29  O   UNL     1      -7.858  12.948  22.778  0.00  0.00    +0.000 OA
ATOM     30  H   UNL     1      -8.347  13.742  22.547  0.00  0.00    +0.000 HD
ENDBRANCH  24  29
ENDBRANCH   1  21
BRANCH  11  31
ATOM     31  N   UNL     1       0.419  10.465  19.559  0.00  0.00    +0.000 N 
ATOM     32  H   UNL     1       0.537  11.252  18.919  0.00  0.00    +0.000 HD
BRANCH  31  33
ATOM     33  C   UNL     1       1.210   9.369  19.192  0.00  0.00    +0.000 A 
ATOM     34  C   UNL     1       1.824   9.347  17.931  0.00  0.00    +0.000 A 
ATOM     35  C   UNL     1       2.607   8.258  17.524  0.00  0.00    +0.000 A 
ATOM     36  C   UNL     1       2.819   7.187  18.390  0.00  0.00    +0.000 A 
ATOM     37  C   UNL     1       2.301   7.239  19.684  0.00  0.00    +0.000 A 
ATOM     38  C   UNL     1       1.525   8.331  20.082  0.00  0.00    +0.000 A 
BRANCH  36  39
ATOM     39  C   UNL     1       3.552   6.034  17.963  0.00  0.00    +0.000 C 
ATOM     40  N   UNL     1       4.121   5.089  17.596  0.00  0.00    +0.000 NA
ENDBRANCH  36  39
ENDBRANCH  31  33
ENDBRANCH  11  31
TORSDOF 7
ENDMDL
MODEL 3
REMARK VINA RESULT:      -7.5      4.324      6.211
REMARK  Name = 
REMARK  9 active torsions:
REMARK  status: ('A' for Active; 'I' for Inactive)
REMARK    1  A    between atoms: C_1  and  O_2
REMARK    2  A    between atoms: O_2  and  C_3
REMARK    3  A    between atoms: C_5  and  C_6
REMARK    4  A    between atoms: C_16  and  N_17
REMARK    5  A    between atoms: N_17  and  C_18
REMARK    6  A    between atoms: C_21  and  C_22
REMARK    7  A    between atoms: C_33  and  O_34
REMARK    8  A    between atoms: O_34  and  C_35
REMARK    9  A    between atoms: C_36  and  O_37
REMARK                            x       y       z     vdW  Elec       q    Type
REMARK                         _______ _______ _______ _____ _____    ______ ____
ROOT
ATOM      1  C   UNL     1      -1.687  12.648  20.216  0.00  0.00    +0.000 C 
ATOM      2  C   UNL     1      -1.152  14.012  19.868  0.00  0.00    +0.000 A 
ATOM      3  N   UNL     1      -1.787  15.192  20.154  0.00  0.00    +0.000 N 
ATOM      4  C   UNL     1      -1.071  16.248  19.632  0.00  0.00    +0.000 A 
ATOM      5  C   UNL     1      -1.333  17.622  19.677  0.00  0.00    +0.000 A 
ATOM      6  C   UNL     1      -0.437  18.476  19.027  0.00  0.00    +0.000 A 
ATOM      7  C   UNL     1       0.669  17.973  18.347  0.00  0.00    +0.000 A 
ATOM      8  C   UNL     1       0.928  16.598  18.322  0.00  0.00    +0.000 A 
ATOM      9  C   UNL     1       0.051  15.719  18.988  0.00  0.00    +0.000 A 
ATOM     10  C   UNL     1       0.022  14.312  19.193  0.00  0.00    +0.000 A 
ATOM     11  C   UNL     1       1.018  13.253  18.780  0.00  0.00    +0.000 C 
ATOM     12  C   UNL     1       0.269  11.873  18.770  0.00  0.00    +0.000 C 
ATOM     13  C   UNL     1       1.143  10.637  18.870  0.00  0.00    +0.000 C 
ATOM     14  O   UNL     1       0.802  10.004  20.119  0.00  0.00    +0.000 OA
ATOM     15  C   UNL     1      -0.262  10.650  20.677  0.00  0.00    +0.000 C 
ATOM     16  O   UNL     1      -0.782  10.319  21.731  0.00  0.00    +0.000 OA
ATOM     17  N   UNL     1      -0.635  11.694  19.891  0.00  0.00    +0.000 N 
ATOM     18  H   UNL     1      -2.672  15.283  20.637  0.00  0.00    +0.000 HD
ENDROOT
BRANCH   1  21
ATOM     19  C   UNL     1      -4.219  11.301  17.627  0.00  0.00    +0.000 A 
ATOM     20  C   UNL     1      -3.015  11.626  18.272  0.00  0.00    +0.000 A 
ATOM     21  C   UNL     1      -2.988  12.296  19.499  0.00  0.00    +0.000 A 
ATOM     22  C   UNL     1      -4.224  12.618  20.078  0.00  0.00    +0.000 A 
ATOM     23  C   UNL     1      -5.456  12.318  19.457  0.00  0.00    +0.000 A 
ATOM     24  C   UNL     1      -5.448  11.647  18.221  0.00  0.00    +0.000 A 
BRANCH  19  26
ATOM     25  C   UNL     1      -2.751  10.847  15.769  0.00  0.00    +0.000 C 
ATOM     26  O   UNL     1      -3.990  10.661  16.434  0.00  0.00    +0.000 OA
ENDBRANCH  19  26
BRANCH  23  27
ATOM     27  O   UNL     1      -6.498  12.753  20.229  0.00  0.00    +0.000 OA
ATOM     28  C   UNL     1      -7.067  11.976  21.263  0.00  0.00    +0.000 C 
ENDBRANCH  23  27
BRANCH  24  29
ATOM     29  O   UNL     1      -6.585  11.281  17.557  0.00  0.00    +0.000 OA
ATOM     30  H   UNL     1      -6.410  11.168  16.619  0.00  0.00    +0.000 HD
ENDBRANCH  24  29
ENDBRANCH   1  21
BRANCH  11  31
ATOM     31  N   UNL     1       2.206  13.216  19.660  0.00  0.00    +0.000 N 
ATOM     32  H   UNL     1       1.923  13.150  20.640  0.00  0.00    +0.000 HD
BRANCH  31  33
ATOM     33  C   UNL     1       3.217  14.166  19.469  0.00  0.00    +0.000 A 
ATOM     34  C   UNL     1       3.786  14.326  18.197  0.00  0.00    +0.000 A 
ATOM     35  C   UNL     1       4.813  15.254  17.974  0.00  0.00    +0.000 A 
ATOM     36  C   UNL     1       5.261  16.065  19.014  0.00  0.00    +0.000 A 
ATOM     37  C   UNL     1       4.635  15.990  20.259  0.00  0.00    +0.000 A 
ATOM     38  C   UNL     1       3.610  15.065  20.470  0.00  0.00    +0.000 A 
BRANCH  36  39
ATOM     39  C   UNL     1       6.358  16.963  18.822  0.00  0.00    +0.000 C 
ATOM     40  N   UNL     1       7.233  17.708  18.640  0.00  0.00    +0.000 NA
ENDBRANCH  36  39
ENDBRANCH  31  33
ENDBRANCH  11  31
TORSDOF 7
ENDMDL
MODEL 4
REMARK VINA RESULT:      -7.4      4.285      5.981
REMARK  Name = 
REMARK  9 active torsions:
REMARK  status: ('A' for Active; 'I' for Inactive)
REMARK    1  A    between atoms: C_1  and  O_2
REMARK    2  A    between atoms: O_2  and  C_3
REMARK    3  A    between atoms: C_5  and  C_6
REMARK    4  A    between atoms: C_16  and  N_17
REMARK    5  A    between atoms: N_17  and  C_18
REMARK    6  A    between atoms: C_21  and  C_22
REMARK    7  A    between atoms: C_33  and  O_34
REMARK    8  A    between atoms: O_34  and  C_35
REMARK    9  A    between atoms: C_36  and  O_37
REMARK                            x       y       z     vdW  Elec       q    Type
REMARK                         _______ _______ _______ _____ _____    ______ ____
ROOT
ATOM      1  C   UNL     1      -1.753  12.664  20.298  0.00  0.00    +0.000 C 
ATOM      2  C   UNL     1      -1.216  14.021  19.926  0.00  0.00    +0.000 A 
ATOM      3  N   UNL     1      -1.840  15.207  20.206  0.00  0.00    +0.000 N 
ATOM      4  C   UNL     1      -1.126  16.253  19.661  0.00  0.00    +0.000 A 
ATOM      5  C   UNL     1      -1.381  17.629  19.693  0.00  0.00    +0.000 A 
ATOM      6  C   UNL     1      -0.489  18.470  19.020  0.00  0.00    +0.000 A 
ATOM      7  C   UNL     1       0.605  17.954  18.331  0.00  0.00    +0.000 A 
ATOM      8  C   UNL     1       0.856  16.576  18.319  0.00  0.00    +0.000 A 
ATOM      9  C   UNL     1      -0.016  15.711  19.009  0.00  0.00    +0.000 A 
ATOM     10  C   UNL     1      -0.050  14.306  19.231  0.00  0.00    +0.000 A 
ATOM     11  C   UNL     1       0.935  13.237  18.818  0.00  0.00    +0.000 C 
ATOM     12  C   UNL     1       0.179  11.861  18.835  0.00  0.00    +0.000 C 
ATOM     13  C   UNL     1       1.048  10.622  18.938  0.00  0.00    +0.000 C 
ATOM     14  O   UNL     1       0.721  10.006  20.199  0.00  0.00    +0.000 OA
ATOM     15  C   UNL     1      -0.332  10.665  20.764  0.00  0.00    +0.000 C 
ATOM     16  O   UNL     1      -0.839  10.349  21.829  0.00  0.00    +0.000 OA
ATOM     17  N   UNL     1      -0.710  11.701  19.971  0.00  0.00    +0.000 N 
ATOM     18  H   UNL     1      -2.718  15.309  20.699  0.00  0.00    +0.000 HD
ENDROOT
BRANCH   1  21
ATOM     19  C   UNL     1      -5.515  12.252  19.520  0.00  0.00    +0.000 A 
ATOM     20  C   UNL     1      -4.315  12.574  20.174  0.00  0.00    +0.000 A 
ATOM     21  C   UNL     1      -3.066  12.311  19.603  0.00  0.00    +0.000 A 
ATOM     22  C   UNL     1      -3.055  11.727  18.328  0.00  0.00    +0.000 A 
ATOM     23  C   UNL     1      -4.240  11.379  17.641  0.00  0.00    +0.000 A 
ATOM     24  C   UNL     1      -5.480  11.652  18.245  0.00  0.00    +0.000 A 
BRANCH  19  26
ATOM     25  C   UNL     1      -6.497  12.583  21.696  0.00  0.00    +0.000 C 
ATOM     26  O   UNL     1      -6.606  12.589  20.282  0.00  0.00    +0.000 OA
ENDBRANCH  19  26
BRANCH  23  27
ATOM     27  O   UNL     1      -3.941  10.816  16.431  0.00  0.00    +0.000 OA
ATOM     28  C   UNL     1      -2.635  10.796  15.892  0.00  0.00    +0.000 C 
ENDBRANCH  23  27
BRANCH  24  29
ATOM     29  O   UNL     1      -6.680  11.387  17.649  0.00  0.00    +0.000 OA
ATOM     30  H   UNL     1      -6.640  10.566  17.152  0.00  0.00    +0.000 HD
ENDBRANCH  24  29
ENDBRANCH   1  21
BRANCH  11  31
ATOM     31  N   UNL     1       2.135  13.204  19.682  0.00  0.00    +0.000 N 
ATOM     32  H   UNL     1       1.866  13.135  20.665  0.00  0.00    +0.000 HD
BRANCH  31  33
ATOM     33  C   UNL     1       3.137  14.161  19.479  0.00  0.00    +0.000 A 
ATOM     34  C   UNL     1       3.728  14.290  18.214  0.00  0.00    +0.000 A 
ATOM     35  C   UNL     1       4.747  15.223  17.981  0.00  0.00    +0.000 A 
ATOM     36  C   UNL     1       5.167  16.071  19.004  0.00  0.00    +0.000 A 
ATOM     37  C   UNL     1       4.520  16.026  20.239  0.00  0.00    +0.000 A 
ATOM     38  C   UNL     1       3.502  15.094  20.460  0.00  0.00    +0.000 A 
BRANCH  36  39
ATOM     39  C   UNL     1       6.257  16.976  18.804  0.00  0.00    +0.000 C 
ATOM     40  N   UNL     1       7.165  17.685  18.646  0.00  0.00    +0.000 NA
ENDBRANCH  36  39
ENDBRANCH  31  33
ENDBRANCH  11  31
TORSDOF 7
ENDMDL
MODEL 5
REMARK VINA RESULT:      -7.2      1.092      1.387
REMARK  Name = 
REMARK  9 active torsions:
REMARK  status: ('A' for Active; 'I' for Inactive)
REMARK    1  A    between atoms: C_1  and  O_2
REMARK    2  A    between atoms: O_2  and  C_3
REMARK    3  A    between atoms: C_5  and  C_6
REMARK    4  A    between atoms: C_16  and  N_17
REMARK    5  A    between atoms: N_17  and  C_18
REMARK    6  A    between atoms: C_21  and  C_22
REMARK    7  A    between atoms: C_33  and  O_34
REMARK    8  A    between atoms: O_34  and  C_35
REMARK    9  A    between atoms: C_36  and  O_37
REMARK                            x       y       z     vdW  Elec       q    Type
REMARK                         _______ _______ _______ _____ _____    ______ ____
ROOT
ATOM      1  C   UNL     1      -1.852  12.613  20.371  0.00  0.00    +0.000 C 
ATOM      2  C   UNL     1      -2.102  11.910  19.062  0.00  0.00    +0.000 A 
ATOM      3  N   UNL     1      -2.931  12.377  18.076  0.00  0.00    +0.000 N 
ATOM      4  C   UNL     1      -2.998  11.460  17.048  0.00  0.00    +0.000 A 
ATOM      5  C   UNL     1      -3.712  11.510  15.845  0.00  0.00    +0.000 A 
ATOM      6  C   UNL     1      -3.617  10.409  14.988  0.00  0.00    +0.000 A 
ATOM      7  C   UNL     1      -2.850   9.298  15.329  0.00  0.00    +0.000 A 
ATOM      8  C   UNL     1      -2.129   9.268  16.528  0.00  0.00    +0.000 A 
ATOM      9  C   UNL     1      -2.192  10.374  17.398  0.00  0.00    +0.000 A 
ATOM     10  C   UNL     1      -1.585  10.694  18.644  0.00  0.00    +0.000 A 
ATOM     11  C   UNL     1      -0.571   9.918  19.453  0.00  0.00    +0.000 C 
ATOM     12  C   UNL     1      -0.650  10.432  20.935  0.00  0.00    +0.000 C 
ATOM     13  C   UNL     1       0.568  10.170  21.799  0.00  0.00    +0.000 C 
ATOM     14  O   UNL     1       1.110  11.463  22.133  0.00  0.00    +0.000 OA
ATOM     15  C   UNL     1       0.265  12.436  21.683  0.00  0.00    +0.000 C 
ATOM     16  O   UNL     1       0.458  13.630  21.843  0.00  0.00    +0.000 OA
ATOM     17  N   UNL     1      -0.793  11.872  21.043  0.00  0.00    +0.000 N 
ATOM     18  H   UNL     1      -3.454  13.242  18.107  0.00  0.00    +0.000 HD
ENDROOT
BRANCH   1  21
ATOM     19  C   UNL     1      -4.168  13.137  23.419  0.00  0.00    +0.000 A 
ATOM     20  C   UNL     1      -3.019  13.028  22.619  0.00  0.00    +0.000 A 
ATOM     21  C   UNL     1      -3.091  12.725  21.255  0.00  0.00    +0.000 A 
ATOM     22  C   UNL     1      -4.370  12.551  20.706  0.00  0.00    +0.000 A 
ATOM     23  C   UNL     1      -5.549  12.643  21.478  0.00  0.00    +0.000 A 
ATOM     24  C   UNL     1      -5.441  12.944  22.847  0.00  0.00    +0.000 A 
BRANCH  19  26
ATOM     25  C   UNL     1      -3.088  14.589  25.011  0.00  0.00    +0.000 C 
ATOM     26  O   UNL     1      -3.844  13.425  24.722  0.00  0.00    +0.000 OA
ENDBRANCH  19  26
BRANCH  23  27
ATOM     27  O   UNL     1      -6.649  12.418  20.698  0.00  0.00    +0.000 OA
ATOM     28  C   UNL     1      -7.220  11.138  20.522  0.00  0.00    +0.000 C 
ENDBRANCH  23  27
BRANCH  24  29
ATOM     29  O   UNL     1      -6.521  13.089  23.672  0.00  0.00    +0.000 OA
ATOM     30  H   UNL     1      -7.206  12.453  23.451  0.00  0.00    +0.000 HD
ENDBRANCH  24  29
ENDBRANCH   1  21
BRANCH  11  31
ATOM     31  N   UNL     1       0.800  10.038  18.913  0.00  0.00    +0.000 N 
ATOM     32  H   UNL     1       0.800  10.594  18.056  0.00  0.00    +0.000 HD
BRANCH  31  33
ATOM     33  C   UNL     1       1.579   8.881  18.786  0.00  0.00    +0.000 A 
ATOM     34  C   UNL     1       2.404   8.720  17.663  0.00  0.00    +0.000 A 
ATOM     35  C   UNL     1       3.181   7.566  17.494  0.00  0.00    +0.000 A 
ATOM     36  C   UNL     1       3.175   6.569  18.467  0.00  0.00    +0.000 A 
ATOM     37  C   UNL     1       2.440   6.760  19.638  0.00  0.00    +0.000 A 
ATOM     38  C   UNL     1       1.671   7.916  19.799  0.00  0.00    +0.000 A 
BRANCH  36  39
ATOM     39  C   UNL     1       3.903   5.353  18.275  0.00  0.00    +0.000 C 
ATOM     40  N   UNL     1       4.477   4.358  18.090  0.00  0.00    +0.000 NA
ENDBRANCH  36  39
ENDBRANCH  31  33
ENDBRANCH  11  31
TORSDOF 7
ENDMDL
MODEL 6
REMARK VINA RESULT:      -7.1      4.191      5.988
REMARK  Name = 
REMARK  9 active torsions:
REMARK  status: ('A' for Active; 'I' for Inactive)
REMARK    1  A    between atoms: C_1  and  O_2
REMARK    2  A    between atoms: O_2  and  C_3
REMARK    3  A    between atoms: C_5  and  C_6
REMARK    4  A    between atoms: C_16  and  N_17
REMARK    5  A    between atoms: N_17  and  C_18
REMARK    6  A    between atoms: C_21  and  C_22
REMARK    7  A    between atoms: C_33  and  O_34
REMARK    8  A    between atoms: O_34  and  C_35
REMARK    9  A    between atoms: C_36  and  O_37
REMARK                            x       y       z     vdW  Elec       q    Type
REMARK                         _______ _______ _______ _____ _____    ______ ____
ROOT
ATOM      1  C   UNL     1      -2.142  13.422  21.181  0.00  0.00    +0.000 C 
ATOM      2  C   UNL     1      -1.582  14.609  20.441  0.00  0.00    +0.000 A 
ATOM      3  N   UNL     1      -2.239  15.799  20.272  0.00  0.00    +0.000 N 
ATOM      4  C   UNL     1      -1.485  16.643  19.484  0.00  0.00    +0.000 A 
ATOM      5  C   UNL     1      -1.752  17.947  19.052  0.00  0.00    +0.000 A 
ATOM      6  C   UNL     1      -0.809  18.562  18.223  0.00  0.00    +0.000 A 
ATOM      7  C   UNL     1       0.348  17.893  17.830  0.00  0.00    +0.000 A 
ATOM      8  C   UNL     1       0.609  16.594  18.282  0.00  0.00    +0.000 A 
ATOM      9  C   UNL     1      -0.316  15.962  19.136  0.00  0.00    +0.000 A 
ATOM     10  C   UNL     1      -0.360  14.701  19.793  0.00  0.00    +0.000 A 
ATOM     11  C   UNL     1       0.666  13.592  19.828  0.00  0.00    +0.000 C 
ATOM     12  C   UNL     1      -0.078  12.267  20.221  0.00  0.00    +0.000 C 
ATOM     13  C   UNL     1       0.787  11.157  20.789  0.00  0.00    +0.000 C 
ATOM     14  O   UNL     1       0.351  10.963  22.148  0.00  0.00    +0.000 OA
ATOM     15  C   UNL     1      -0.755  11.729  22.381  0.00  0.00    +0.000 C 
ATOM     16  O   UNL     1      -1.355  11.750  23.444  0.00  0.00    +0.000 OA
ATOM     17  N   UNL     1      -1.066  12.444  21.269  0.00  0.00    +0.000 N 
ATOM     18  H   UNL     1      -3.159  16.021  20.631  0.00  0.00    +0.000 HD
ENDROOT
BRANCH   1  21
ATOM     19  C   UNL     1      -4.555  11.860  18.600  0.00  0.00    +0.000 A 
ATOM     20  C   UNL     1      -3.410  12.421  19.187  0.00  0.00    +0.000 A 
ATOM     21  C   UNL     1      -3.383  12.819  20.527  0.00  0.00    +0.000 A 
ATOM     22  C   UNL     1      -4.549  12.614  21.278  0.00  0.00    +0.000 A 
ATOM     23  C   UNL     1      -5.724  12.061  20.723  0.00  0.00    +0.000 A 
ATOM     24  C   UNL     1      -5.720  11.677  19.371  0.00  0.00    +0.000 A 
BRANCH  19  26
ATOM     25  C   UNL     1      -3.123  10.965  16.880  0.00  0.00    +0.000 C 
ATOM     26  O   UNL     1      -4.345  11.566  17.275  0.00  0.00    +0.000 OA
ENDBRANCH  19  26
BRANCH  23  27
ATOM     27  O   UNL     1      -6.709  11.987  21.669  0.00  0.00    +0.000 OA
ATOM     28  C   UNL     1      -7.822  12.857  21.693  0.00  0.00    +0.000 C 
ENDBRANCH  23  27
BRANCH  24  29
ATOM     29  O   UNL     1      -6.792  11.101  18.750  0.00  0.00    +0.000 OA
ATOM     30  H   UNL     1      -7.394  10.719  19.394  0.00  0.00    +0.000 HD
ENDBRANCH  24  29
ENDBRANCH   1  21
BRANCH  11  31
ATOM     31  N   UNL     1       1.782  13.879  20.755  0.00  0.00    +0.000 N 
ATOM     32  H   UNL     1       1.424  14.178  21.664  0.00  0.00    +0.000 HD
BRANCH  31  33
ATOM     33  C   UNL     1       2.833  14.692  20.313  0.00  0.00    +0.000 A 
ATOM     34  C   UNL     1       3.522  14.358  19.138  0.00  0.00    +0.000 A 
ATOM     35  C   UNL     1       4.591  15.138  18.677  0.00  0.00    +0.000 A 
ATOM     36  C   UNL     1       4.965  16.289  19.366  0.00  0.00    +0.000 A 
ATOM     37  C   UNL     1       4.226  16.692  20.479  0.00  0.00    +0.000 A 
ATOM     38  C   UNL     1       3.159  15.909  20.929  0.00  0.00    +0.000 A 
BRANCH  36  39
ATOM     39  C   UNL     1       6.101  17.055  18.952  0.00  0.00    +0.000 C 
ATOM     40  N   UNL     1       7.039  17.647  18.603  0.00  0.00    +0.000 NA
ENDBRANCH  36  39
ENDBRANCH  31  33
ENDBRANCH  11  31
TORSDOF 7
ENDMDL
MODEL 7
REMARK VINA RESULT:      -7.1      1.049      2.280
REMARK  Name = 
REMARK  9 active torsions:
REMARK  status: ('A' for Active; 'I' for Inactive)
REMARK    1  A    between atoms: C_1  and  O_2
REMARK    2  A    between atoms: O_2  and  C_3
REMARK    3  A    between atoms: C_5  and  C_6
REMARK    4  A    between atoms: C_16  and  N_17
REMARK    5  A    between atoms: N_17  and  C_18
REMARK    6  A    between atoms: C_21  and  C_22
REMARK    7  A    between atoms: C_33  and  O_34
REMARK    8  A    between atoms: O_34  and  C_35
REMARK    9  A    between atoms: C_36  and  O_37
REMARK                            x       y       z     vdW  Elec       q    Type
REMARK                         _______ _______ _______ _____ _____    ______ ____
ROOT
ATOM      1  C   UNL     1      -1.954  12.724  20.232  0.00  0.00    +0.000 C 
ATOM      2  C   UNL     1      -2.190  11.973  18.947  0.00  0.00    +0.000 A 
ATOM      3  N   UNL     1      -3.038  12.382  17.953  0.00  0.00    +0.000 N 
ATOM      4  C   UNL     1      -3.083  11.432  16.954  0.00  0.00    +0.000 A 
ATOM      5  C   UNL     1      -3.805  11.422  15.755  0.00  0.00    +0.000 A 
ATOM      6  C   UNL     1      -3.680  10.298  14.932  0.00  0.00    +0.000 A 
ATOM      7  C   UNL     1      -2.876   9.223  15.302  0.00  0.00    +0.000 A 
ATOM      8  C   UNL     1      -2.148   9.253  16.497  0.00  0.00    +0.000 A 
ATOM      9  C   UNL     1      -2.240  10.384  17.332  0.00  0.00    +0.000 A 
ATOM     10  C   UNL     1      -1.637  10.761  18.564  0.00  0.00    +0.000 A 
ATOM     11  C   UNL     1      -0.594  10.043  19.389  0.00  0.00    +0.000 C 
ATOM     12  C   UNL     1      -0.681  10.601  20.855  0.00  0.00    +0.000 C 
ATOM     13  C   UNL     1       0.550  10.405  21.719  0.00  0.00    +0.000 C 
ATOM     14  O   UNL     1       1.052  11.724  22.009  0.00  0.00    +0.000 OA
ATOM     15  C   UNL     1       0.174  12.655  21.534  0.00  0.00    +0.000 C 
ATOM     16  O   UNL     1       0.331  13.860  21.655  0.00  0.00    +0.000 OA
ATOM     17  N   UNL     1      -0.868  12.038  20.919  0.00  0.00    +0.000 N 
ATOM     18  H   UNL     1      -3.589  13.232  17.960  0.00  0.00    +0.000 HD
ENDROOT
BRANCH   1  21
ATOM     19  C   UNL     1      -5.617  12.728  21.460  0.00  0.00    +0.000 A 
ATOM     20  C   UNL     1      -4.488  12.642  20.630  0.00  0.00    +0.000 A 
ATOM     21  C   UNL     1      -3.192  12.825  21.121  0.00  0.00    +0.000 A 
ATOM     22  C   UNL     1      -3.057  13.080  22.493  0.00  0.00    +0.000 A 
ATOM     23  C   UNL     1      -4.168  13.184  23.359  0.00  0.00    +0.000 A 
ATOM     24  C   UNL     1      -5.459  13.000  22.834  0.00  0.00    +0.000 A 
BRANCH  19  26
ATOM     25  C   UNL     1      -7.286  11.214  20.606  0.00  0.00    +0.000 C 
ATOM     26  O   UNL     1      -6.776  12.529  20.752  0.00  0.00    +0.000 OA
ENDBRANCH  19  26
BRANCH  23  27
ATOM     27  O   UNL     1      -3.753  13.450  24.635  0.00  0.00    +0.000 OA
ATOM     28  C   UNL     1      -3.226  14.701  25.029  0.00  0.00    +0.000 C 
ENDBRANCH  23  27
BRANCH  24  29
ATOM     29  O   UNL     1      -6.593  13.046  23.594  0.00  0.00    +0.000 OA
ATOM     30  H   UNL     1      -6.437  12.667  24.463  0.00  0.00    +0.000 HD
ENDBRANCH  24  29
ENDBRANCH   1  21
BRANCH  11  31
ATOM     31  N   UNL     1       0.770  10.190  18.837  0.00  0.00    +0.000 N 
ATOM     32  H   UNL     1       0.746  10.718  17.963  0.00  0.00    +0.000 HD
BRANCH  31  33
ATOM     33  C   UNL     1       1.584   9.054  18.741  0.00  0.00    +0.000 A 
ATOM     34  C   UNL     1       1.534   8.078  19.747  0.00  0.00    +0.000 A 
ATOM     35  C   UNL     1       2.349   6.939  19.693  0.00  0.00    +0.000 A 
ATOM     36  C   UNL     1       3.201   6.739  18.608  0.00  0.00    +0.000 A 
ATOM     37  C   UNL     1       3.187   7.648  17.550  0.00  0.00    +0.000 A 
ATOM     38  C   UNL     1       2.368   8.779  17.612  0.00  0.00    +0.000 A 
BRANCH  36  39
ATOM     39  C   UNL     1       4.093   5.620  18.574  0.00  0.00    +0.000 C 
ATOM     40  N   UNL     1       4.823   4.718  18.511  0.00  0.00    +0.000 NA
ENDBRANCH  36  39
ENDBRANCH  31  33
ENDBRANCH  11  31
TORSDOF 7
ENDMDL
MODEL 8
REMARK VINA RESULT:      -7.0      4.216      6.200
REMARK  Name = 
REMARK  9 active torsions:
REMARK  status: ('A' for Active; 'I' for Inactive)
REMARK    1  A    between atoms: C_1  and  O_2
REMARK    2  A    between atoms: O_2  and  C_3
REMARK    3  A    between atoms: C_5  and  C_6
REMARK    4  A    between atoms: C_16  and  N_17
REMARK    5  A    between atoms: N_17  and  C_18
REMARK    6  A    between atoms: C_21  and  C_22
REMARK    7  A    between atoms: C_33  and  O_34
REMARK    8  A    between atoms: O_34  and  C_35
REMARK    9  A    between atoms: C_36  and  O_37
REMARK                            x       y       z     vdW  Elec       q    Type
REMARK                         _______ _______ _______ _____ _____    ______ ____
ROOT
ATOM      1  C   UNL     1      -1.968  13.184  20.822  0.00  0.00    +0.000 C 
ATOM      2  C   UNL     1      -1.291  14.367  20.180  0.00  0.00    +0.000 A 
ATOM      3  N   UNL     1      -1.902  15.566  19.924  0.00  0.00    +0.000 N 
ATOM      4  C   UNL     1      -1.030  16.403  19.260  0.00  0.00    +0.000 A 
ATOM      5  C   UNL     1      -1.215  17.713  18.802  0.00  0.00    +0.000 A 
ATOM      6  C   UNL     1      -0.153  18.320  18.125  0.00  0.00    +0.000 A 
ATOM      7  C   UNL     1       1.041  17.638  17.904  0.00  0.00    +0.000 A 
ATOM      8  C   UNL     1       1.218  16.334  18.381  0.00  0.00    +0.000 A 
ATOM      9  C   UNL     1       0.170  15.709  19.085  0.00  0.00    +0.000 A 
ATOM     10  C   UNL     1       0.014  14.446  19.720  0.00  0.00    +0.000 A 
ATOM     11  C   UNL     1       1.011  13.325  19.900  0.00  0.00    +0.000 C 
ATOM     12  C   UNL     1       0.202  12.007  20.171  0.00  0.00    +0.000 C 
ATOM     13  C   UNL     1       0.961  10.884  20.853  0.00  0.00    +0.000 C 
ATOM     14  O   UNL     1       0.326  10.689  22.132  0.00  0.00    +0.000 OA
ATOM     15  C   UNL     1      -0.793  11.468  22.203  0.00  0.00    +0.000 C 
ATOM     16  O   UNL     1      -1.543  11.491  23.166  0.00  0.00    +0.000 OA
ATOM     17  N   UNL     1      -0.928  12.191  21.062  0.00  0.00    +0.000 N 
ATOM     18  H   UNL     1      -2.863  15.797  20.144  0.00  0.00    +0.000 HD
ENDROOT
BRANCH   1  21
ATOM     19  C   UNL     1      -3.935  11.278  18.097  0.00  0.00    +0.000 A 
ATOM     20  C   UNL     1      -2.880  11.818  18.850  0.00  0.00    +0.000 A 
ATOM     21  C   UNL     1      -3.105  12.599  19.988  0.00  0.00    +0.000 A 
ATOM     22  C   UNL     1      -4.439  12.808  20.366  0.00  0.00    +0.000 A 
ATOM     23  C   UNL     1      -5.528  12.291  19.631  0.00  0.00    +0.000 A 
ATOM     24  C   UNL     1      -5.268  11.514  18.488  0.00  0.00    +0.000 A 
BRANCH  19  26
ATOM     25  C   UNL     1      -2.073  10.345  16.883  0.00  0.00    +0.000 C 
ATOM     26  O   UNL     1      -3.468  10.565  17.021  0.00  0.00    +0.000 OA
ENDBRANCH  19  26
BRANCH  23  27
ATOM     27  O   UNL     1      -6.711  12.656  20.211  0.00  0.00    +0.000 OA
ATOM     28  C   UNL     1      -7.460  11.793  21.043  0.00  0.00    +0.000 C 
ENDBRANCH  23  27
BRANCH  24  29
ATOM     29  O   UNL     1      -6.249  10.941  17.730  0.00  0.00    +0.000 OA
ATOM     30  H   UNL     1      -5.892  10.226  17.195  0.00  0.00    +0.000 HD
ENDBRANCH  24  29
ENDBRANCH   1  21
BRANCH  11  31
ATOM     31  N   UNL     1       1.981  13.594  20.984  0.00  0.00    +0.000 N 
ATOM     32  H   UNL     1       1.497  13.714  21.875  0.00  0.00    +0.000 HD
BRANCH  31  33
ATOM     33  C   UNL     1       2.961  14.575  20.783  0.00  0.00    +0.000 A 
ATOM     34  C   UNL     1       3.049  15.658  21.669  0.00  0.00    +0.000 A 
ATOM     35  C   UNL     1       4.004  16.668  21.488  0.00  0.00    +0.000 A 
ATOM     36  C   UNL     1       4.914  16.589  20.436  0.00  0.00    +0.000 A 
ATOM     37  C   UNL     1       4.907  15.466  19.607  0.00  0.00    +0.000 A 
ATOM     38  C   UNL     1       3.952  14.464  19.798  0.00  0.00    +0.000 A 
BRANCH  36  39
ATOM     39  C   UNL     1       5.846  17.647  20.192  0.00  0.00    +0.000 C 
ATOM     40  N   UNL     1       6.628  18.489  20.011  0.00  0.00    +0.000 NA
ENDBRANCH  36  39
ENDBRANCH  31  33
ENDBRANCH  11  31
TORSDOF 7
ENDMDL
MODEL 9
REMARK VINA RESULT:      -6.8      3.836      5.686
REMARK  Name = 
REMARK  9 active torsions:
REMARK  status: ('A' for Active; 'I' for Inactive)
REMARK    1  A    between atoms: C_1  and  O_2
REMARK    2  A    between atoms: O_2  and  C_3
REMARK    3  A    between atoms: C_5  and  C_6
REMARK    4  A    between atoms: C_16  and  N_17
REMARK    5  A    between atoms: N_17  and  C_18
REMARK    6  A    between atoms: C_21  and  C_22
REMARK    7  A    between atoms: C_33  and  O_34
REMARK    8  A    between atoms: O_34  and  C_35
REMARK    9  A    between atoms: C_36  and  O_37
REMARK                            x       y       z     vdW  Elec       q    Type
REMARK                         _______ _______ _______ _____ _____    ______ ____
ROOT
ATOM      1  C   UNL     1      -2.336  13.018  21.430  0.00  0.00    +0.000 C 
ATOM      2  C   UNL     1      -1.722  14.223  20.764  0.00  0.00    +0.000 A 
ATOM      3  N   UNL     1      -2.220  15.496  20.852  0.00  0.00    +0.000 N 
ATOM      4  C   UNL     1      -1.472  16.346  20.066  0.00  0.00    +0.000 A 
ATOM      5  C   UNL     1      -1.608  17.722  19.848  0.00  0.00    +0.000 A 
ATOM      6  C   UNL     1      -0.712  18.331  18.963  0.00  0.00    +0.000 A 
ATOM      7  C   UNL     1       0.271  17.590  18.313  0.00  0.00    +0.000 A 
ATOM      8  C   UNL     1       0.405  16.217  18.551  0.00  0.00    +0.000 A 
ATOM      9  C   UNL     1      -0.472  15.585  19.455  0.00  0.00    +0.000 A 
ATOM     10  C   UNL     1      -0.603  14.257  19.948  0.00  0.00    +0.000 A 
ATOM     11  C   UNL     1       0.250  13.038  19.682  0.00  0.00    +0.000 C 
ATOM     12  C   UNL     1      -0.613  11.771  20.019  0.00  0.00    +0.000 C 
ATOM     13  C   UNL     1       0.156  10.493  20.299  0.00  0.00    +0.000 C 
ATOM     14  O   UNL     1      -0.109  10.159  21.675  0.00  0.00    +0.000 OA
ATOM     15  C   UNL     1      -1.050  11.012  22.174  0.00  0.00    +0.000 C 
ATOM     16  O   UNL     1      -1.486  10.952  23.313  0.00  0.00    +0.000 OA
ATOM     17  N   UNL     1      -1.409  11.913  21.223  0.00  0.00    +0.000 N 
ATOM     18  H   UNL     1      -3.040  15.773  21.377  0.00  0.00    +0.000 HD
ENDROOT
BRANCH   1  21
ATOM     19  C   UNL     1      -5.277  12.116  19.092  0.00  0.00    +0.000 A 
ATOM     20  C   UNL     1      -3.993  12.442  19.556  0.00  0.00    +0.000 A 
ATOM     21  C   UNL     1      -3.729  12.672  20.910  0.00  0.00    +0.000 A 
ATOM     22  C   UNL     1      -4.804  12.542  21.801  0.00  0.00    +0.000 A 
ATOM     23  C   UNL     1      -6.112  12.225  21.374  0.00  0.00    +0.000 A 
ATOM     24  C   UNL     1      -6.345  12.005  20.005  0.00  0.00    +0.000 A 
BRANCH  19  26
ATOM     25  C   UNL     1      -4.120  11.500  17.070  0.00  0.00    +0.000 C 
ATOM     26  O   UNL     1      -5.291  11.954  17.729  0.00  0.00    +0.000 OA
ENDBRANCH  19  26
BRANCH  23  27
ATOM     27  O   UNL     1      -6.964  12.176  22.443  0.00  0.00    +0.000 OA
ATOM     28  C   UNL     1      -6.723  12.866  23.653  0.00  0.00    +0.000 C 
ENDBRANCH  23  27
BRANCH  24  29
ATOM     29  O   UNL     1      -7.565  11.660  19.496  0.00  0.00    +0.000 OA
ATOM     30  H   UNL     1      -7.523  11.574  18.540  0.00  0.00    +0.000 HD
ENDBRANCH  24  29
ENDBRANCH   1  21
BRANCH  11  31
ATOM     31  N   UNL     1       1.514  13.050  20.449  0.00  0.00    +0.000 N 
ATOM     32  H   UNL     1       1.323  13.089  21.452  0.00  0.00    +0.000 HD
BRANCH  31  33
ATOM     33  C   UNL     1       2.523  13.945  20.073  0.00  0.00    +0.000 A 
ATOM     34  C   UNL     1       3.091  14.795  21.033  0.00  0.00    +0.000 A 
ATOM     35  C   UNL     1       4.088  15.716  20.688  0.00  0.00    +0.000 A 
ATOM     36  C   UNL     1       4.563  15.776  19.380  0.00  0.00    +0.000 A 
ATOM     37  C   UNL     1       4.083  14.868  18.435  0.00  0.00    +0.000 A 
ATOM     38  C   UNL     1       3.090  13.951  18.790  0.00  0.00    +0.000 A 
BRANCH  36  39
ATOM     39  C   UNL     1       5.527  16.761  18.994  0.00  0.00    +0.000 C 
ATOM     40  N   UNL     1       6.284  17.585  18.677  0.00  0.00    +0.000 NA
ENDBRANCH  36  39
ENDBRANCH  31  33
ENDBRANCH  11  31
TORSDOF 7
ENDMDL
