MODEL 1
REMARK VINA RESULT:      -8.4      0.000      0.000
REMARK  Name = 
REMARK  10 active torsions:
REMARK  status: ('A' for Active; 'I' for Inactive)
REMARK    1  A    between atoms: C_2  and  O_3
REMARK    2  A    between atoms: C_2  and  C_4
REMARK    3  A    between atoms: C_4  and  C_5
REMARK    4  A    between atoms: C_5  and  C_6
REMARK    5  A    between atoms: C_6  and  C_7
REMARK    6  A    between atoms: C_11  and  C_12
REMARK    7  A    between atoms: N_19  and  S_20
REMARK    8  A    between atoms: S_20  and  C_23
REMARK    9  A    between atoms: C_27  and  O_28
REMARK   10  A    between atoms: O_28  and  C_29
REMARK                            x       y       z     vdW  Elec       q    Type
REMARK                         _______ _______ _______ _____ _____    ______ ____
ROOT
ATOM      1  C   UNL     1       2.446   4.737  20.847  0.00  0.00    +0.000 A 
ATOM      2  C   UNL     1       1.697   5.884  21.047  0.00  0.00    +0.000 A 
ATOM      3  C   UNL     1       1.987   6.803  20.012  0.00  0.00    +0.000 A 
ATOM      4  C   UNL     1       1.558   8.124  19.763  0.00  0.00    +0.000 A 
ATOM      5  C   UNL     1       2.006   8.812  18.625  0.00  0.00    +0.000 A 
ATOM      6  C   UNL     1       2.856   8.156  17.730  0.00  0.00    +0.000 A 
ATOM      7  C   UNL     1       3.289   6.842  17.955  0.00  0.00    +0.000 A 
ATOM      8  C   UNL     1       2.870   6.177  19.122  0.00  0.00    +0.000 A 
ATOM      9  N   UNL     1       3.175   4.937  19.679  0.00  0.00    +0.000 N 
ENDROOT
BRANCH   5  10
ATOM     10  C   UNL     1       1.589  10.241  18.371  0.00  0.00    +0.000 C 
ATOM     11  F   UNL     1       1.483  10.987  19.507  0.00  0.00    +0.000 F 
ATOM     12  F   UNL     1       2.469  10.906  17.573  0.00  0.00    +0.000 F 
ATOM     13  F   UNL     1       0.379  10.329  17.753  0.00  0.00    +0.000 F 
ENDBRANCH   5  10
BRANCH   9  14
ATOM     14  S   UNL     1       4.280   3.815  18.987  0.00  0.00    +0.000 S 
ATOM     15  O   UNL     1       4.692   2.917  20.047  0.00  0.00    +0.000 OA
ATOM     16  O   UNL     1       3.637   3.301  17.792  0.00  0.00    +0.000 OA
BRANCH  14  17
ATOM     17  C   UNL     1       5.727   4.683  18.447  0.00  0.00    +0.000 A 
ATOM     18  C   UNL     1       6.422   5.585  19.252  0.00  0.00    +0.000 A 
ATOM     19  C   UNL     1       7.509   6.270  18.704  0.00  0.00    +0.000 A 
ATOM     20  C   UNL     1       7.906   6.029  17.388  0.00  0.00    +0.000 A 
ATOM     21  C   UNL     1       7.242   5.085  16.600  0.00  0.00    +0.000 A 
ATOM     22  C   UNL     1       6.129   4.435  17.122  0.00  0.00    +0.000 A 
BRANCH  21  23
ATOM     23  O   UNL     1       7.735   4.947  15.338  0.00  0.00    +0.000 OA
BRANCH  23  24
ATOM     24  C   UNL     1       6.839   4.832  14.239  0.00  0.00    +0.000 C 
ATOM     25  F   UNL     1       7.374   5.198  13.057  0.00  0.00    +0.000 F 
ATOM     26  F   UNL     1       6.399   3.559  14.148  0.00  0.00    +0.000 F 
ATOM     27  F   UNL     1       5.772   5.631  14.474  0.00  0.00    +0.000 F 
ENDBRANCH  23  24
ENDBRANCH  21  23
ENDBRANCH  14  17
ENDBRANCH   9  14
BRANCH   1  28
ATOM     28  C   UNL     1       2.465   3.520  21.723  0.00  0.00    +0.000 C 
BRANCH  28  29
ATOM     29  C   UNL     1       1.424   2.459  21.329  0.00  0.00    +0.000 C 
BRANCH  29  30
ATOM     30  C   UNL     1       0.418   2.878  20.255  0.00  0.00    +0.000 C 
BRANCH  30  32
ATOM     31  O   UNL     1       1.141   1.292  18.571  0.00  0.00    +0.000 OA
ATOM     32  C   UNL     1       0.815   2.430  18.870  0.00  0.00    +0.000 C 
BRANCH  32  33
ATOM     33  O   UNL     1       0.752   3.426  17.957  0.00  0.00    +0.000 OA
ATOM     34  H   UNL     1      -0.156   3.674  17.699  0.00  0.00    +0.000 HD
ENDBRANCH  32  33
ENDBRANCH  30  32
ENDBRANCH  29  30
ENDBRANCH  28  29
ENDBRANCH   1  28
TORSDOF 10
ENDMDL
MODEL 2
REMARK VINA RESULT:      -8.4      0.437      1.110
REMARK  Name = 
REMARK  10 active torsions:
REMARK  status: ('A' for Active; 'I' for Inactive)
REMARK    1  A    between atoms: C_2  and  O_3
REMARK    2  A    between atoms: C_2  and  C_4
REMARK    3  A    between atoms: C_4  and  C_5
REMARK    4  A    between atoms: C_5  and  C_6
REMARK    5  A    between atoms: C_6  and  C_7
REMARK    6  A    between atoms: C_11  and  C_12
REMARK    7  A    between atoms: N_19  and  S_20
REMARK    8  A    between atoms: S_20  and  C_23
REMARK    9  A    between atoms: C_27  and  O_28
REMARK   10  A    between atoms: O_28  and  C_29
REMARK                            x       y       z     vdW  Elec       q    Type
REMARK                         _______ _______ _______ _____ _____    ______ ____
ROOT
ATOM      1  C   UNL     1       2.494   4.655  20.802  0.00  0.00    +0.000 A 
ATOM      2  C   UNL     1       1.698   5.772  20.990  0.00  0.00    +0.000 A 
ATOM      3  C   UNL     1       1.989   6.713  19.975  0.00  0.00    +0.000 A 
ATOM      4  C   UNL     1       1.521   8.021  19.727  0.00  0.00    +0.000 A 
ATOM      5  C   UNL     1       1.982   8.739  18.612  0.00  0.00    +0.000 A 
ATOM      6  C   UNL     1       2.884   8.125  17.739  0.00  0.00    +0.000 A 
ATOM      7  C   UNL     1       3.357   6.824  17.963  0.00  0.00    +0.000 A 
ATOM      8  C   UNL     1       2.922   6.130  19.108  0.00  0.00    +0.000 A 
ATOM      9  N   UNL     1       3.254   4.895  19.661  0.00  0.00    +0.000 N 
ENDROOT
BRANCH   5  10
ATOM     10  C   UNL     1       1.523  10.155  18.360  0.00  0.00    +0.000 C 
ATOM     11  F   UNL     1       0.317  10.233  17.733  0.00  0.00    +0.000 F 
ATOM     12  F   UNL     1       1.389  10.872  19.511  0.00  0.00    +0.000 F 
ATOM     13  F   UNL     1       2.394  10.855  17.582  0.00  0.00    +0.000 F 
ENDBRANCH   5  10
BRANCH   9  14
ATOM     14  S   UNL     1       4.420   3.821  18.994  0.00  0.00    +0.000 S 
ATOM     15  O   UNL     1       4.889   2.980  20.077  0.00  0.00    +0.000 OA
ATOM     16  O   UNL     1       3.803   3.237  17.819  0.00  0.00    +0.000 OA
BRANCH  14  17
ATOM     17  C   UNL     1       5.811   4.758  18.422  0.00  0.00    +0.000 A 
ATOM     18  C   UNL     1       6.497   5.672  19.220  0.00  0.00    +0.000 A 
ATOM     19  C   UNL     1       7.535   6.412  18.649  0.00  0.00    +0.000 A 
ATOM     20  C   UNL     1       7.894   6.212  17.314  0.00  0.00    +0.000 A 
ATOM     21  C   UNL     1       7.241   5.257  16.531  0.00  0.00    +0.000 A 
ATOM     22  C   UNL     1       6.174   4.551  17.078  0.00  0.00    +0.000 A 
BRANCH  21  23
ATOM     23  O   UNL     1       7.693   5.163  15.250  0.00  0.00    +0.000 OA
BRANCH  23  24
ATOM     24  C   UNL     1       6.780   4.870  14.199  0.00  0.00    +0.000 C 
ATOM     25  F   UNL     1       5.573   5.454  14.344  0.00  0.00    +0.000 F 
ATOM     26  F   UNL     1       7.314   5.250  13.020  0.00  0.00    +0.000 F 
ATOM     27  F   UNL     1       6.588   3.531  14.163  0.00  0.00    +0.000 F 
ENDBRANCH  23  24
ENDBRANCH  21  23
ENDBRANCH  14  17
ENDBRANCH   9  14
BRANCH   1  28
ATOM     28  C   UNL     1       2.527   3.429  21.665  0.00  0.00    +0.000 C 
BRANCH  28  29
ATOM     29  C   UNL     1       1.448   2.393  21.308  0.00  0.00    +0.000 C 
BRANCH  29  30
ATOM     30  C   UNL     1       1.700   1.576  20.039  0.00  0.00    +0.000 C 
BRANCH  30  32
ATOM     31  O   UNL     1      -0.035   2.811  18.884  0.00  0.00    +0.000 OA
ATOM     32  C   UNL     1       0.965   2.114  18.836  0.00  0.00    +0.000 C 
BRANCH  32  33
ATOM     33  O   UNL     1       1.545   1.762  17.666  0.00  0.00    +0.000 OA
ATOM     34  H   UNL     1       2.326   2.299  17.431  0.00  0.00    +0.000 HD
ENDBRANCH  32  33
ENDBRANCH  30  32
ENDBRANCH  29  30
ENDBRANCH  28  29
ENDBRANCH   1  28
TORSDOF 10
ENDMDL
MODEL 3
REMARK VINA RESULT:      -8.2      0.692      1.151
REMARK  Name = 
REMARK  10 active torsions:
REMARK  status: ('A' for Active; 'I' for Inactive)
REMARK    1  A    between atoms: C_2  and  O_3
REMARK    2  A    between atoms: C_2  and  C_4
REMARK    3  A    between atoms: C_4  and  C_5
REMARK    4  A    between atoms: C_5  and  C_6
REMARK    5  A    between atoms: C_6  and  C_7
REMARK    6  A    between atoms: C_11  and  C_12
REMARK    7  A    between atoms: N_19  and  S_20
REMARK    8  A    between atoms: S_20  and  C_23
REMARK    9  A    between atoms: C_27  and  O_28
REMARK   10  A    between atoms: O_28  and  C_29
REMARK                            x       y       z     vdW  Elec       q    Type
REMARK                         _______ _______ _______ _____ _____    ______ ____
ROOT
ATOM      1  C   UNL     1       2.584   4.548  20.787  0.00  0.00    +0.000 A 
ATOM      2  C   UNL     1       1.731   5.624  20.960  0.00  0.00    +0.000 A 
ATOM      3  C   UNL     1       2.011   6.591  19.967  0.00  0.00    +0.000 A 
ATOM      4  C   UNL     1       1.490   7.879  19.719  0.00  0.00    +0.000 A 
ATOM      5  C   UNL     1       1.954   8.632  18.629  0.00  0.00    +0.000 A 
ATOM      6  C   UNL     1       2.913   8.073  17.780  0.00  0.00    +0.000 A 
ATOM      7  C   UNL     1       3.438   6.793  18.005  0.00  0.00    +0.000 A 
ATOM      8  C   UNL     1       2.999   6.064  19.126  0.00  0.00    +0.000 A 
ATOM      9  N   UNL     1       3.370   4.838  19.675  0.00  0.00    +0.000 N 
ENDROOT
BRANCH   5  10
ATOM     10  C   UNL     1       1.438  10.029  18.379  0.00  0.00    +0.000 C 
ATOM     11  F   UNL     1       2.289  10.801  17.647  0.00  0.00    +0.000 F 
ATOM     12  F   UNL     1       0.257  10.034  17.700  0.00  0.00    +0.000 F 
ATOM     13  F   UNL     1       1.210  10.716  19.533  0.00  0.00    +0.000 F 
ENDBRANCH   5  10
BRANCH   9  14
ATOM     14  S   UNL     1       4.607   3.830  19.036  0.00  0.00    +0.000 S 
ATOM     15  O   UNL     1       5.263   3.197  20.163  0.00  0.00    +0.000 OA
ATOM     16  O   UNL     1       3.980   3.029  18.003  0.00  0.00    +0.000 OA
BRANCH  14  17
ATOM     17  C   UNL     1       5.818   4.839  18.227  0.00  0.00    +0.000 A 
ATOM     18  C   UNL     1       6.755   5.608  18.916  0.00  0.00    +0.000 A 
ATOM     19  C   UNL     1       7.619   6.424  18.182  0.00  0.00    +0.000 A 
ATOM     20  C   UNL     1       7.562   6.441  16.787  0.00  0.00    +0.000 A 
ATOM     21  C   UNL     1       6.659   5.628  16.097  0.00  0.00    +0.000 A 
ATOM     22  C   UNL     1       5.762   4.850  16.821  0.00  0.00    +0.000 A 
BRANCH  21  23
ATOM     23  O   UNL     1       6.712   5.740  14.741  0.00  0.00    +0.000 OA
BRANCH  23  24
ATOM     24  C   UNL     1       6.541   4.583  13.930  0.00  0.00    +0.000 C 
ATOM     25  F   UNL     1       6.938   3.438  14.521  0.00  0.00    +0.000 F 
ATOM     26  F   UNL     1       5.245   4.469  13.575  0.00  0.00    +0.000 F 
ATOM     27  F   UNL     1       7.275   4.741  12.804  0.00  0.00    +0.000 F 
ENDBRANCH  23  24
ENDBRANCH  21  23
ENDBRANCH  14  17
ENDBRANCH   9  14
BRANCH   1  28
ATOM     28  C   UNL     1       2.646   3.313  21.635  0.00  0.00    +0.000 C 
BRANCH  28  29
ATOM     29  C   UNL     1       1.606   2.247  21.251  0.00  0.00    +0.000 C 
BRANCH  29  30
ATOM     30  C   UNL     1       1.634   1.781  19.794  0.00  0.00    +0.000 C 
BRANCH  30  32
ATOM     31  O   UNL     1       1.034   2.893  17.726  0.00  0.00    +0.000 OA
ATOM     32  C   UNL     1       0.774   2.628  18.889  0.00  0.00    +0.000 C 
BRANCH  32  33
ATOM     33  O   UNL     1      -0.357   3.061  19.492  0.00  0.00    +0.000 OA
ATOM     34  H   UNL     1      -0.757   2.412  20.102  0.00  0.00    +0.000 HD
ENDBRANCH  32  33
ENDBRANCH  30  32
ENDBRANCH  29  30
ENDBRANCH  28  29
ENDBRANCH   1  28
TORSDOF 10
ENDMDL
MODEL 4
REMARK VINA RESULT:      -8.1      1.907      2.583
REMARK  Name = 
REMARK  10 active torsions:
REMARK  status: ('A' for Active; 'I' for Inactive)
REMARK    1  A    between atoms: C_2  and  O_3
REMARK    2  A    between atoms: C_2  and  C_4
REMARK    3  A    between atoms: C_4  and  C_5
REMARK    4  A    between atoms: C_5  and  C_6
REMARK    5  A    between atoms: C_6  and  C_7
REMARK    6  A    between atoms: C_11  and  C_12
REMARK    7  A    between atoms: N_19  and  S_20
REMARK    8  A    between atoms: S_20  and  C_23
REMARK    9  A    between atoms: C_27  and  O_28
REMARK   10  A    between atoms: O_28  and  C_29
REMARK                            x       y       z     vdW  Elec       q    Type
REMARK                         _______ _______ _______ _____ _____    ______ ____
ROOT
ATOM      1  C   UNL     1       2.581   4.695  20.740  0.00  0.00    +0.000 A 
ATOM      2  C   UNL     1       1.818   5.824  20.981  0.00  0.00    +0.000 A 
ATOM      3  C   UNL     1       2.058   6.764  19.952  0.00  0.00    +0.000 A 
ATOM      4  C   UNL     1       1.597   8.080  19.738  0.00  0.00    +0.000 A 
ATOM      5  C   UNL     1       1.997   8.794  18.598  0.00  0.00    +0.000 A 
ATOM      6  C   UNL     1       2.830   8.169  17.667  0.00  0.00    +0.000 A 
ATOM      7  C   UNL     1       3.295   6.860  17.857  0.00  0.00    +0.000 A 
ATOM      8  C   UNL     1       2.924   6.169  19.026  0.00  0.00    +0.000 A 
ATOM      9  N   UNL     1       3.270   4.927  19.553  0.00  0.00    +0.000 N 
ENDROOT
BRANCH   5  10
ATOM     10  C   UNL     1       1.545  10.219  18.380  0.00  0.00    +0.000 C 
ATOM     11  F   UNL     1       2.415  10.957  17.635  0.00  0.00    +0.000 F 
ATOM     12  F   UNL     1       0.350  10.294  17.733  0.00  0.00    +0.000 F 
ATOM     13  F   UNL     1       1.384  10.900  19.548  0.00  0.00    +0.000 F 
ENDBRANCH   5  10
BRANCH   9  14
ATOM     14  S   UNL     1       4.373   3.837  18.810  0.00  0.00    +0.000 S 
ATOM     15  O   UNL     1       5.120   3.199  19.875  0.00  0.00    +0.000 OA
ATOM     16  O   UNL     1       3.592   3.045  17.879  0.00  0.00    +0.000 OA
BRANCH  14  17
ATOM     17  C   UNL     1       5.533   4.758  17.838  0.00  0.00    +0.000 A 
ATOM     18  C   UNL     1       5.631   4.642  16.451  0.00  0.00    +0.000 A 
ATOM     19  C   UNL     1       6.629   5.360  15.789  0.00  0.00    +0.000 A 
ATOM     20  C   UNL     1       7.487   6.201  16.502  0.00  0.00    +0.000 A 
ATOM     21  C   UNL     1       7.352   6.358  17.884  0.00  0.00    +0.000 A 
ATOM     22  C   UNL     1       6.393   5.609  18.557  0.00  0.00    +0.000 A 
BRANCH  21  23
ATOM     23  O   UNL     1       8.249   7.210  18.452  0.00  0.00    +0.000 OA
BRANCH  23  24
ATOM     24  C   UNL     1       8.209   8.595  18.130  0.00  0.00    +0.000 C 
ATOM     25  F   UNL     1       8.757   9.391  19.070  0.00  0.00    +0.000 F 
ATOM     26  F   UNL     1       8.839   8.804  16.955  0.00  0.00    +0.000 F 
ATOM     27  F   UNL     1       6.914   8.961  17.984  0.00  0.00    +0.000 F 
ENDBRANCH  23  24
ENDBRANCH  21  23
ENDBRANCH  14  17
ENDBRANCH   9  14
BRANCH   1  28
ATOM     28  C   UNL     1       2.650   3.465  21.595  0.00  0.00    +0.000 C 
BRANCH  28  29
ATOM     29  C   UNL     1       1.669   2.361  21.169  0.00  0.00    +0.000 C 
BRANCH  29  30
ATOM     30  C   UNL     1       0.506   2.807  20.281  0.00  0.00    +0.000 C 
BRANCH  30  32
ATOM     31  O   UNL     1       0.460   3.368  17.924  0.00  0.00    +0.000 OA
ATOM     32  C   UNL     1       0.769   2.589  18.811  0.00  0.00    +0.000 C 
BRANCH  32  33
ATOM     33  O   UNL     1       1.418   1.429  18.561  0.00  0.00    +0.000 OA
ATOM     34  H   UNL     1       1.806   1.011  19.353  0.00  0.00    +0.000 HD
ENDBRANCH  32  33
ENDBRANCH  30  32
ENDBRANCH  29  30
ENDBRANCH  28  29
ENDBRANCH   1  28
TORSDOF 10
ENDMDL
MODEL 5
REMARK VINA RESULT:      -7.8      2.769      3.209
REMARK  Name = 
REMARK  10 active torsions:
REMARK  status: ('A' for Active; 'I' for Inactive)
REMARK    1  A    between atoms: C_2  and  O_3
REMARK    2  A    between atoms: C_2  and  C_4
REMARK    3  A    between atoms: C_4  and  C_5
REMARK    4  A    between atoms: C_5  and  C_6
REMARK    5  A    between atoms: C_6  and  C_7
REMARK    6  A    between atoms: C_11  and  C_12
REMARK    7  A    between atoms: N_19  and  S_20
REMARK    8  A    between atoms: S_20  and  C_23
REMARK    9  A    between atoms: C_27  and  O_28
REMARK   10  A    between atoms: O_28  and  C_29
REMARK                            x       y       z     vdW  Elec       q    Type
REMARK                         _______ _______ _______ _____ _____    ______ ____
ROOT
ATOM      1  C   UNL     1       2.467   6.014  20.005  0.00  0.00    +0.000 A 
ATOM      2  C   UNL     1       1.668   6.899  20.707  0.00  0.00    +0.000 A 
ATOM      3  C   UNL     1       1.563   8.101  19.968  0.00  0.00    +0.000 A 
ATOM      4  C   UNL     1       0.930   9.333  20.239  0.00  0.00    +0.000 A 
ATOM      5  C   UNL     1       0.977  10.374  19.300  0.00  0.00    +0.000 A 
ATOM      6  C   UNL     1       1.631  10.159  18.084  0.00  0.00    +0.000 A 
ATOM      7  C   UNL     1       2.260   8.941  17.792  0.00  0.00    +0.000 A 
ATOM      8  C   UNL     1       2.246   7.918  18.759  0.00  0.00    +0.000 A 
ATOM      9  N   UNL     1       2.832   6.656  18.826  0.00  0.00    +0.000 N 
ENDROOT
BRANCH   5  10
ATOM     10  C   UNL     1       0.342  11.712  19.597  0.00  0.00    +0.000 C 
ATOM     11  F   UNL     1      -0.268  11.767  20.814  0.00  0.00    +0.000 F 
ATOM     12  F   UNL     1       1.246  12.731  19.590  0.00  0.00    +0.000 F 
ATOM     13  F   UNL     1      -0.612  12.050  18.686  0.00  0.00    +0.000 F 
ENDBRANCH   5  10
BRANCH   9  14
ATOM     14  S   UNL     1       3.839   5.995  17.598  0.00  0.00    +0.000 S 
ATOM     15  O   UNL     1       3.534   4.581  17.517  0.00  0.00    +0.000 OA
ATOM     16  O   UNL     1       3.677   6.853  16.440  0.00  0.00    +0.000 OA
BRANCH  14  17
ATOM     17  C   UNL     1       5.533   6.136  18.098  0.00  0.00    +0.000 A 
ATOM     18  C   UNL     1       6.120   5.305  19.051  0.00  0.00    +0.000 A 
ATOM     19  C   UNL     1       7.443   5.547  19.426  0.00  0.00    +0.000 A 
ATOM     20  C   UNL     1       8.168   6.582  18.831  0.00  0.00    +0.000 A 
ATOM     21  C   UNL     1       7.595   7.379  17.837  0.00  0.00    +0.000 A 
ATOM     22  C   UNL     1       6.263   7.176  17.494  0.00  0.00    +0.000 A 
BRANCH  21  23
ATOM     23  O   UNL     1       8.414   8.348  17.340  0.00  0.00    +0.000 OA
BRANCH  23  24
ATOM     24  C   UNL     1       8.564   9.575  18.044  0.00  0.00    +0.000 C 
ATOM     25  F   UNL     1       7.458  10.346  18.042  0.00  0.00    +0.000 F 
ATOM     26  F   UNL     1       8.920   9.321  19.321  0.00  0.00    +0.000 F 
ATOM     27  F   UNL     1       9.560  10.281  17.461  0.00  0.00    +0.000 F 
ENDBRANCH  23  24
ENDBRANCH  21  23
ENDBRANCH  14  17
ENDBRANCH   9  14
BRANCH   1  28
ATOM     28  C   UNL     1       2.861   4.632  20.436  0.00  0.00    +0.000 C 
BRANCH  28  29
ATOM     29  C   UNL     1       1.667   3.739  20.811  0.00  0.00    +0.000 C 
BRANCH  29  30
ATOM     30  C   UNL     1       1.738   2.290  20.324  0.00  0.00    +0.000 C 
BRANCH  30  32
ATOM     31  O   UNL     1       0.201   2.297  18.451  0.00  0.00    +0.000 OA
ATOM     32  C   UNL     1       1.332   2.134  18.880  0.00  0.00    +0.000 C 
BRANCH  32  33
ATOM     33  O   UNL     1       2.370   1.808  18.075  0.00  0.00    +0.000 OA
ATOM     34  H   UNL     1       2.522   0.848  17.990  0.00  0.00    +0.000 HD
ENDBRANCH  32  33
ENDBRANCH  30  32
ENDBRANCH  29  30
ENDBRANCH  28  29
ENDBRANCH   1  28
TORSDOF 10
ENDMDL
MODEL 6
REMARK VINA RESULT:      -7.8      3.782      8.163
REMARK  Name = 
REMARK  10 active torsions:
REMARK  status: ('A' for Active; 'I' for Inactive)
REMARK    1  A    between atoms: C_2  and  O_3
REMARK    2  A    between atoms: C_2  and  C_4
REMARK    3  A    between atoms: C_4  and  C_5
REMARK    4  A    between atoms: C_5  and  C_6
REMARK    5  A    between atoms: C_6  and  C_7
REMARK    6  A    between atoms: C_11  and  C_12
REMARK    7  A    between atoms: N_19  and  S_20
REMARK    8  A    between atoms: S_20  and  C_23
REMARK    9  A    between atoms: C_27  and  O_28
REMARK   10  A    between atoms: O_28  and  C_29
REMARK                            x       y       z     vdW  Elec       q    Type
REMARK                         _______ _______ _______ _____ _____    ______ ____
ROOT
ATOM      1  C   UNL     1       7.353   6.446  17.311  0.00  0.00    +0.000 A 
ATOM      2  C   UNL     1       7.585   6.539  15.949  0.00  0.00    +0.000 A 
ATOM      3  C   UNL     1       6.938   5.460  15.303  0.00  0.00    +0.000 A 
ATOM      4  C   UNL     1       6.895   5.045  13.955  0.00  0.00    +0.000 A 
ATOM      5  C   UNL     1       6.147   3.916  13.586  0.00  0.00    +0.000 A 
ATOM      6  C   UNL     1       5.423   3.234  14.566  0.00  0.00    +0.000 A 
ATOM      7  C   UNL     1       5.447   3.633  15.910  0.00  0.00    +0.000 A 
ATOM      8  C   UNL     1       6.236   4.739  16.278  0.00  0.00    +0.000 A 
ATOM      9  N   UNL     1       6.545   5.329  17.501  0.00  0.00    +0.000 N 
ENDROOT
BRANCH   5  10
ATOM     10  C   UNL     1       6.129   3.436  12.154  0.00  0.00    +0.000 C 
ATOM     11  F   UNL     1       4.910   3.550  11.557  0.00  0.00    +0.000 F 
ATOM     12  F   UNL     1       6.995   4.127  11.361  0.00  0.00    +0.000 F 
ATOM     13  F   UNL     1       6.479   2.125  12.039  0.00  0.00    +0.000 F 
ENDBRANCH   5  10
BRANCH   9  14
ATOM     14  S   UNL     1       5.974   4.757  19.020  0.00  0.00    +0.000 S 
ATOM     15  O   UNL     1       5.906   3.313  18.930  0.00  0.00    +0.000 OA
ATOM     16  O   UNL     1       6.800   5.396  20.027  0.00  0.00    +0.000 OA
BRANCH  14  17
ATOM     17  C   UNL     1       4.321   5.343  19.276  0.00  0.00    +0.000 A 
ATOM     18  C   UNL     1       3.861   6.566  18.791  0.00  0.00    +0.000 A 
ATOM     19  C   UNL     1       2.561   6.965  19.111  0.00  0.00    +0.000 A 
ATOM     20  C   UNL     1       1.735   6.137  19.874  0.00  0.00    +0.000 A 
ATOM     21  C   UNL     1       2.180   4.888  20.313  0.00  0.00    +0.000 A 
ATOM     22  C   UNL     1       3.489   4.505  20.041  0.00  0.00    +0.000 A 
BRANCH  21  23
ATOM     23  O   UNL     1       1.273   4.183  21.043  0.00  0.00    +0.000 OA
BRANCH  23  24
ATOM     24  C   UNL     1       1.540   2.827  21.383  0.00  0.00    +0.000 C 
ATOM     25  F   UNL     1       1.484   1.980  20.336  0.00  0.00    +0.000 F 
ATOM     26  F   UNL     1       2.758   2.738  21.957  0.00  0.00    +0.000 F 
ATOM     27  F   UNL     1       0.617   2.426  22.288  0.00  0.00    +0.000 F 
ENDBRANCH  23  24
ENDBRANCH  21  23
ENDBRANCH  14  17
ENDBRANCH   9  14
BRANCH   1  28
ATOM     28  C   UNL     1       7.875   7.371  18.370  0.00  0.00    +0.000 C 
BRANCH  28  29
ATOM     29  C   UNL     1       8.159   8.795  17.861  0.00  0.00    +0.000 C 
BRANCH  29  30
ATOM     30  C   UNL     1       8.962   9.693  18.803  0.00  0.00    +0.000 C 
BRANCH  30  32
ATOM     31  O   UNL     1       8.496  11.790  17.682  0.00  0.00    +0.000 OA
ATOM     32  C   UNL     1       9.303  11.030  18.194  0.00  0.00    +0.000 C 
BRANCH  32  33
ATOM     33  O   UNL     1      10.618  11.331  18.289  0.00  0.00    +0.000 OA
ATOM     34  H   UNL     1      10.903  12.061  17.707  0.00  0.00    +0.000 HD
ENDBRANCH  32  33
ENDBRANCH  30  32
ENDBRANCH  29  30
ENDBRANCH  28  29
ENDBRANCH   1  28
TORSDOF 10
ENDMDL
MODEL 7
REMARK VINA RESULT:      -7.6      6.586     10.174
REMARK  Name = 
REMARK  10 active torsions:
REMARK  status: ('A' for Active; 'I' for Inactive)
REMARK    1  A    between atoms: C_2  and  O_3
REMARK    2  A    between atoms: C_2  and  C_4
REMARK    3  A    between atoms: C_4  and  C_5
REMARK    4  A    between atoms: C_5  and  C_6
REMARK    5  A    between atoms: C_6  and  C_7
REMARK    6  A    between atoms: C_11  and  C_12
REMARK    7  A    between atoms: N_19  and  S_20
REMARK    8  A    between atoms: S_20  and  C_23
REMARK    9  A    between atoms: C_27  and  O_28
REMARK   10  A    between atoms: O_28  and  C_29
REMARK                            x       y       z     vdW  Elec       q    Type
REMARK                         _______ _______ _______ _____ _____    ______ ____
ROOT
ATOM      1  C   UNL     1      -0.089  10.899  21.736  0.00  0.00    +0.000 A 
ATOM      2  C   UNL     1       0.503   9.746  22.222  0.00  0.00    +0.000 A 
ATOM      3  C   UNL     1       1.024   9.008  21.134  0.00  0.00    +0.000 A 
ATOM      4  C   UNL     1       1.665   7.754  21.053  0.00  0.00    +0.000 A 
ATOM      5  C   UNL     1       2.098   7.259  19.814  0.00  0.00    +0.000 A 
ATOM      6  C   UNL     1       1.914   8.042  18.671  0.00  0.00    +0.000 A 
ATOM      7  C   UNL     1       1.286   9.293  18.730  0.00  0.00    +0.000 A 
ATOM      8  C   UNL     1       0.814   9.761  19.971  0.00  0.00    +0.000 A 
ATOM      9  N   UNL     1       0.089  10.886  20.356  0.00  0.00    +0.000 N 
ENDROOT
BRANCH   5  10
ATOM     10  C   UNL     1       2.745   5.898  19.708  0.00  0.00    +0.000 C 
ATOM     11  F   UNL     1       2.320   5.175  18.634  0.00  0.00    +0.000 F 
ATOM     12  F   UNL     1       4.100   5.973  19.591  0.00  0.00    +0.000 F 
ATOM     13  F   UNL     1       2.505   5.120  20.800  0.00  0.00    +0.000 F 
ENDBRANCH   5  10
BRANCH   9  14
ATOM     14  S   UNL     1      -0.474  12.091  19.266  0.00  0.00    +0.000 S 
ATOM     15  O   UNL     1      -1.007  13.173  20.069  0.00  0.00    +0.000 OA
ATOM     16  O   UNL     1       0.613  12.329  18.334  0.00  0.00    +0.000 OA
BRANCH  14  17
ATOM     17  C   UNL     1      -1.818  11.434  18.317  0.00  0.00    +0.000 A 
ATOM     18  C   UNL     1      -1.648  10.494  17.301  0.00  0.00    +0.000 A 
ATOM     19  C   UNL     1      -2.766  10.095  16.565  0.00  0.00    +0.000 A 
ATOM     20  C   UNL     1      -4.030  10.606  16.867  0.00  0.00    +0.000 A 
ATOM     21  C   UNL     1      -4.206  11.506  17.921  0.00  0.00    +0.000 A 
ATOM     22  C   UNL     1      -3.091  11.946  18.626  0.00  0.00    +0.000 A 
BRANCH  21  23
ATOM     23  O   UNL     1      -5.489  11.921  18.108  0.00  0.00    +0.000 OA
BRANCH  23  24
ATOM     24  C   UNL     1      -6.293  11.303  19.107  0.00  0.00    +0.000 C 
ATOM     25  F   UNL     1      -7.588  11.677  19.076  0.00  0.00    +0.000 F 
ATOM     26  F   UNL     1      -6.219   9.962  18.978  0.00  0.00    +0.000 F 
ATOM     27  F   UNL     1      -5.796  11.637  20.320  0.00  0.00    +0.000 F 
ENDBRANCH  23  24
ENDBRANCH  21  23
ENDBRANCH  14  17
ENDBRANCH   9  14
BRANCH   1  28
ATOM     28  C   UNL     1      -0.786  11.953  22.545  0.00  0.00    +0.000 C 
BRANCH  28  29
ATOM     29  C   UNL     1      -2.060  11.452  23.245  0.00  0.00    +0.000 C 
BRANCH  29  30
ATOM     30  C   UNL     1      -3.314  12.303  23.038  0.00  0.00    +0.000 C 
BRANCH  30  32
ATOM     31  O   UNL     1      -3.736  13.709  24.966  0.00  0.00    +0.000 OA
ATOM     32  C   UNL     1      -3.982  12.694  24.333  0.00  0.00    +0.000 C 
BRANCH  32  33
ATOM     33  O   UNL     1      -4.920  11.805  24.730  0.00  0.00    +0.000 OA
ATOM     34  H   UNL     1      -5.748  12.214  25.047  0.00  0.00    +0.000 HD
ENDBRANCH  32  33
ENDBRANCH  30  32
ENDBRANCH  29  30
ENDBRANCH  28  29
ENDBRANCH   1  28
TORSDOF 10
ENDMDL
MODEL 8
REMARK VINA RESULT:      -7.5      2.829      7.934
REMARK  Name = 
REMARK  10 active torsions:
REMARK  status: ('A' for Active; 'I' for Inactive)
REMARK    1  A    between atoms: C_2  and  O_3
REMARK    2  A    between atoms: C_2  and  C_4
REMARK    3  A    between atoms: C_4  and  C_5
REMARK    4  A    between atoms: C_5  and  C_6
REMARK    5  A    between atoms: C_6  and  C_7
REMARK    6  A    between atoms: C_11  and  C_12
REMARK    7  A    between atoms: N_19  and  S_20
REMARK    8  A    between atoms: S_20  and  C_23
REMARK    9  A    between atoms: C_27  and  O_28
REMARK   10  A    between atoms: O_28  and  C_29
REMARK                            x       y       z     vdW  Elec       q    Type
REMARK                         _______ _______ _______ _____ _____    ______ ____
ROOT
ATOM      1  C   UNL     1       7.364   6.363  17.347  0.00  0.00    +0.000 A 
ATOM      2  C   UNL     1       7.654   6.419  15.995  0.00  0.00    +0.000 A 
ATOM      3  C   UNL     1       6.936   5.397  15.332  0.00  0.00    +0.000 A 
ATOM      4  C   UNL     1       6.906   4.972  13.987  0.00  0.00    +0.000 A 
ATOM      5  C   UNL     1       6.072   3.913  13.597  0.00  0.00    +0.000 A 
ATOM      6  C   UNL     1       5.251   3.312  14.554  0.00  0.00    +0.000 A 
ATOM      7  C   UNL     1       5.260   3.722  15.895  0.00  0.00    +0.000 A 
ATOM      8  C   UNL     1       6.134   4.755  16.284  0.00  0.00    +0.000 A 
ATOM      9  N   UNL     1       6.450   5.328  17.514  0.00  0.00    +0.000 N 
ENDROOT
BRANCH   5  10
ATOM     10  C   UNL     1       6.064   3.420  12.169  0.00  0.00    +0.000 C 
ATOM     11  F   UNL     1       4.847   3.522  11.566  0.00  0.00    +0.000 F 
ATOM     12  F   UNL     1       6.929   4.109  11.375  0.00  0.00    +0.000 F 
ATOM     13  F   UNL     1       6.422   2.111  12.068  0.00  0.00    +0.000 F 
ENDBRANCH   5  10
BRANCH   9  14
ATOM     14  S   UNL     1       5.771   4.828  19.014  0.00  0.00    +0.000 S 
ATOM     15  O   UNL     1       5.570   3.395  18.931  0.00  0.00    +0.000 OA
ATOM     16  O   UNL     1       6.615   5.397  20.047  0.00  0.00    +0.000 OA
BRANCH  14  17
ATOM     17  C   UNL     1       4.172   5.569  19.203  0.00  0.00    +0.000 A 
ATOM     18  C   UNL     1       3.243   5.149  20.154  0.00  0.00    +0.000 A 
ATOM     19  C   UNL     1       1.984   5.753  20.171  0.00  0.00    +0.000 A 
ATOM     20  C   UNL     1       1.680   6.779  19.274  0.00  0.00    +0.000 A 
ATOM     21  C   UNL     1       2.632   7.237  18.358  0.00  0.00    +0.000 A 
ATOM     22  C   UNL     1       3.870   6.606  18.301  0.00  0.00    +0.000 A 
BRANCH  21  23
ATOM     23  O   UNL     1       2.205   8.243  17.547  0.00  0.00    +0.000 OA
BRANCH  23  24
ATOM     24  C   UNL     1       1.585   9.392  18.112  0.00  0.00    +0.000 C 
ATOM     25  F   UNL     1       0.278   9.515  17.805  0.00  0.00    +0.000 F 
ATOM     26  F   UNL     1       1.720   9.362  19.455  0.00  0.00    +0.000 F 
ATOM     27  F   UNL     1       2.223  10.491  17.649  0.00  0.00    +0.000 F 
ENDBRANCH  23  24
ENDBRANCH  21  23
ENDBRANCH  14  17
ENDBRANCH   9  14
BRANCH   1  28
ATOM     28  C   UNL     1       7.928   7.249  18.418  0.00  0.00    +0.000 C 
BRANCH  28  29
ATOM     29  C   UNL     1       8.133   8.705  17.970  0.00  0.00    +0.000 C 
BRANCH  29  30
ATOM     30  C   UNL     1       8.989   9.574  18.894  0.00  0.00    +0.000 C 
BRANCH  30  32
ATOM     31  O   UNL     1       8.501  11.623  17.697  0.00  0.00    +0.000 OA
ATOM     32  C   UNL     1       9.297  10.930  18.310  0.00  0.00    +0.000 C 
BRANCH  32  33
ATOM     33  O   UNL     1      10.566  11.330  18.552  0.00  0.00    +0.000 OA
ATOM     34  H   UNL     1      11.176  11.199  17.801  0.00  0.00    +0.000 HD
ENDBRANCH  32  33
ENDBRANCH  30  32
ENDBRANCH  29  30
ENDBRANCH  28  29
ENDBRANCH   1  28
TORSDOF 10
ENDMDL
MODEL 9
REMARK VINA RESULT:      -7.4      5.298      7.606
REMARK  Name = 
REMARK  10 active torsions:
REMARK  status: ('A' for Active; 'I' for Inactive)
REMARK    1  A    between atoms: C_2  and  O_3
REMARK    2  A    between atoms: C_2  and  C_4
REMARK    3  A    between atoms: C_4  and  C_5
REMARK    4  A    between atoms: C_5  and  C_6
REMARK    5  A    between atoms: C_6  and  C_7
REMARK    6  A    between atoms: C_11  and  C_12
REMARK    7  A    between atoms: N_19  and  S_20
REMARK    8  A    between atoms: S_20  and  C_23
REMARK    9  A    between atoms: C_27  and  O_28
REMARK   10  A    between atoms: O_28  and  C_29
REMARK                            x       y       z     vdW  Elec       q    Type
REMARK                         _______ _______ _______ _____ _____    ______ ____
ROOT
ATOM      1  C   UNL     1      -0.903  11.174  18.659  0.00  0.00    +0.000 A 
ATOM      2  C   UNL     1      -1.022  12.441  18.115  0.00  0.00    +0.000 A 
ATOM      3  C   UNL     1      -0.205  13.331  18.850  0.00  0.00    +0.000 A 
ATOM      4  C   UNL     1       0.002  14.724  18.765  0.00  0.00    +0.000 A 
ATOM      5  C   UNL     1       0.901  15.360  19.635  0.00  0.00    +0.000 A 
ATOM      6  C   UNL     1       1.607  14.588  20.560  0.00  0.00    +0.000 A 
ATOM      7  C   UNL     1       1.421  13.202  20.658  0.00  0.00    +0.000 A 
ATOM      8  C   UNL     1       0.484  12.580  19.811  0.00  0.00    +0.000 A 
ATOM      9  N   UNL     1       0.005  11.276  19.709  0.00  0.00    +0.000 N 
ENDROOT
BRANCH   5  10
ATOM     10  C   UNL     1       1.099  16.857  19.583  0.00  0.00    +0.000 C 
ATOM     11  F   UNL     1       2.362  17.227  19.231  0.00  0.00    +0.000 F 
ATOM     12  F   UNL     1       0.273  17.461  18.685  0.00  0.00    +0.000 F 
ATOM     13  F   UNL     1       0.854  17.457  20.781  0.00  0.00    +0.000 F 
ENDBRANCH   5  10
BRANCH   9  14
ATOM     14  S   UNL     1       0.500   9.984  20.731  0.00  0.00    +0.000 S 
ATOM     15  O   UNL     1       1.406  10.544  21.713  0.00  0.00    +0.000 OA
ATOM     16  O   UNL     1      -0.716   9.312  21.147  0.00  0.00    +0.000 OA
BRANCH  14  17
ATOM     17  C   UNL     1       1.424   8.811  19.777  0.00  0.00    +0.000 A 
ATOM     18  C   UNL     1       1.786   9.024  18.447  0.00  0.00    +0.000 A 
ATOM     19  C   UNL     1       2.452   8.004  17.764  0.00  0.00    +0.000 A 
ATOM     20  C   UNL     1       2.774   6.811  18.414  0.00  0.00    +0.000 A 
ATOM     21  C   UNL     1       2.458   6.621  19.762  0.00  0.00    +0.000 A 
ATOM     22  C   UNL     1       1.751   7.612  20.435  0.00  0.00    +0.000 A 
BRANCH  21  23
ATOM     23  O   UNL     1       2.832   5.415  20.271  0.00  0.00    +0.000 OA
BRANCH  23  24
ATOM     24  C   UNL     1       1.879   4.362  20.365  0.00  0.00    +0.000 C 
ATOM     25  F   UNL     1       2.095   3.520  21.396  0.00  0.00    +0.000 F 
ATOM     26  F   UNL     1       0.640   4.884  20.475  0.00  0.00    +0.000 F 
ATOM     27  F   UNL     1       1.932   3.637  19.224  0.00  0.00    +0.000 F 
ENDBRANCH  23  24
ENDBRANCH  21  23
ENDBRANCH  14  17
ENDBRANCH   9  14
BRANCH   1  28
ATOM     28  C   UNL     1      -1.615   9.936  18.202  0.00  0.00    +0.000 C 
BRANCH  28  29
ATOM     29  C   UNL     1      -3.027  10.203  17.654  0.00  0.00    +0.000 C 
BRANCH  29  30
ATOM     30  C   UNL     1      -3.358   9.546  16.313  0.00  0.00    +0.000 C 
BRANCH  30  32
ATOM     31  O   UNL     1      -2.579  10.017  14.066  0.00  0.00    +0.000 OA
ATOM     32  C   UNL     1      -3.021  10.421  15.130  0.00  0.00    +0.000 C 
BRANCH  32  33
ATOM     33  O   UNL     1      -3.281  11.729  15.354  0.00  0.00    +0.000 OA
ATOM     34  H   UNL     1      -3.405  12.256  14.541  0.00  0.00    +0.000 HD
ENDBRANCH  32  33
ENDBRANCH  30  32
ENDBRANCH  29  30
ENDBRANCH  28  29
ENDBRANCH   1  28
TORSDOF 10
ENDMDL
