MODEL 1
REMARK VINA RESULT:      -6.5      0.000      0.000
REMARK  Name = 
REMARK  2 active torsions:
REMARK  status: ('A' for Active; 'I' for Inactive)
REMARK    1  A    between atoms: C_1  and  C_2
REMARK    2  A    between atoms: C_5  and  C_6
REMARK                            x       y       z     vdW  Elec       q    Type
REMARK                         _______ _______ _______ _____ _____    ______ ____
ROOT
ATOM      1  C   UNL     1       3.667   4.658  18.967  0.00  0.00    +0.000 C 
ATOM      2  C   UNL     1       3.958   3.162  19.253  0.00  0.00    +0.000 C 
ATOM      3  N   UNL     1       2.715   2.374  19.463  0.00  0.00    +0.000 NA
ATOM      4  C   UNL     1       1.963   2.955  20.599  0.00  0.00    +0.000 C 
ATOM      5  C   UNL     1       1.618   4.435  20.364  0.00  0.00    +0.000 C 
ATOM      6  C   UNL     1       2.131   4.866  18.976  0.00  0.00    +0.000 C 
ATOM      7  C   UNL     1       1.461   3.924  17.958  0.00  0.00    +0.000 C 
ATOM      8  C   UNL     1       1.888   2.475  18.241  0.00  0.00    +0.000 C 
ENDROOT
BRANCH   1  13
ATOM      9  C   UNL     1       6.044   4.030  14.791  0.00  0.00    +0.000 C 
ATOM     10  C   UNL     1       5.380   4.861  15.815  0.00  0.00    +0.000 A 
ATOM     11  C   UNL     1       5.200   6.219  15.948  0.00  0.00    +0.000 A 
ATOM     12  C   UNL     1       4.470   6.408  17.143  0.00  0.00    +0.000 A 
ATOM     13  C   UNL     1       4.277   5.157  17.693  0.00  0.00    +0.000 A 
ATOM     14  O   UNL     1       4.822   4.207  16.874  0.00  0.00    +0.000 OA
ENDBRANCH   1  13
TORSDOF 1
ENDMDL
MODEL 2
REMARK VINA RESULT:      -6.5      1.208      1.823
REMARK  Name = 
REMARK  2 active torsions:
REMARK  status: ('A' for Active; 'I' for Inactive)
REMARK    1  A    between atoms: C_1  and  C_2
REMARK    2  A    between atoms: C_5  and  C_6
REMARK                            x       y       z     vdW  Elec       q    Type
REMARK                         _______ _______ _______ _____ _____    ______ ____
ROOT
ATOM      1  C   UNL     1       3.682   4.709  17.768  0.00  0.00    +0.000 C 
ATOM      2  C   UNL     1       3.856   4.727  19.310  0.00  0.00    +0.000 C 
ATOM      3  N   UNL     1       3.068   3.659  19.980  0.00  0.00    +0.000 NA
ATOM      4  C   UNL     1       1.636   3.835  19.645  0.00  0.00    +0.000 C 
ATOM      5  C   UNL     1       1.392   3.799  18.127  0.00  0.00    +0.000 C 
ATOM      6  C   UNL     1       2.726   3.545  17.399  0.00  0.00    +0.000 C 
ATOM      7  C   UNL     1       3.271   2.214  17.952  0.00  0.00    +0.000 C 
ATOM      8  C   UNL     1       3.522   2.350  19.462  0.00  0.00    +0.000 C 
ENDROOT
BRANCH   1  13
ATOM      9  C   UNL     1       6.289   3.940  13.756  0.00  0.00    +0.000 C 
ATOM     10  C   UNL     1       6.145   4.235  15.196  0.00  0.00    +0.000 A 
ATOM     11  C   UNL     1       7.056   4.416  16.211  0.00  0.00    +0.000 A 
ATOM     12  C   UNL     1       6.304   4.683  17.377  0.00  0.00    +0.000 A 
ATOM     13  C   UNL     1       4.974   4.612  17.017  0.00  0.00    +0.000 A 
ATOM     14  O   UNL     1       4.875   4.352  15.679  0.00  0.00    +0.000 OA
ENDBRANCH   1  13
TORSDOF 1
ENDMDL
MODEL 3
REMARK VINA RESULT:      -6.5      1.236      1.236
REMARK  Name = 
REMARK  2 active torsions:
REMARK  status: ('A' for Active; 'I' for Inactive)
REMARK    1  A    between atoms: C_1  and  C_2
REMARK    2  A    between atoms: C_5  and  C_6
REMARK                            x       y       z     vdW  Elec       q    Type
REMARK                         _______ _______ _______ _____ _____    ______ ____
ROOT
ATOM      1  C   UNL     1       3.364   4.543  19.684  0.00  0.00    +0.000 C 
ATOM      2  C   UNL     1       3.569   3.027  19.941  0.00  0.00    +0.000 C 
ATOM      3  N   UNL     1       2.322   2.245  19.733  0.00  0.00    +0.000 NA
ATOM      4  C   UNL     1       1.274   2.760  20.642  0.00  0.00    +0.000 C 
ATOM      5  C   UNL     1       1.002   4.257  20.418  0.00  0.00    +0.000 C 
ATOM      6  C   UNL     1       1.889   4.771  19.268  0.00  0.00    +0.000 C 
ATOM      7  C   UNL     1       1.544   3.908  18.039  0.00  0.00    +0.000 C 
ATOM      8  C   UNL     1       1.880   2.437  18.335  0.00  0.00    +0.000 C 
ENDROOT
BRANCH   1  13
ATOM      9  C   UNL     1       7.543   4.582  17.230  0.00  0.00    +0.000 C 
ATOM     10  C   UNL     1       6.222   5.136  17.589  0.00  0.00    +0.000 A 
ATOM     11  C   UNL     1       5.549   6.275  17.210  0.00  0.00    +0.000 A 
ATOM     12  C   UNL     1       4.311   6.250  17.890  0.00  0.00    +0.000 A 
ATOM     13  C   UNL     1       4.311   5.116  18.675  0.00  0.00    +0.000 A 
ATOM     14  O   UNL     1       5.476   4.425  18.482  0.00  0.00    +0.000 OA
ENDBRANCH   1  13
TORSDOF 1
ENDMDL
MODEL 4
REMARK VINA RESULT:      -6.3      1.823      2.261
REMARK  Name = 
REMARK  2 active torsions:
REMARK  status: ('A' for Active; 'I' for Inactive)
REMARK    1  A    between atoms: C_1  and  C_2
REMARK    2  A    between atoms: C_5  and  C_6
REMARK                            x       y       z     vdW  Elec       q    Type
REMARK                         _______ _______ _______ _____ _____    ______ ____
ROOT
ATOM      1  C   UNL     1       3.859   3.485  19.418  0.00  0.00    +0.000 C 
ATOM      2  C   UNL     1       3.035   2.432  18.632  0.00  0.00    +0.000 C 
ATOM      3  N   UNL     1       1.591   2.780  18.564  0.00  0.00    +0.000 NA
ATOM      4  C   UNL     1       1.058   2.894  19.940  0.00  0.00    +0.000 C 
ATOM      5  C   UNL     1       1.817   3.946  20.766  0.00  0.00    +0.000 C 
ATOM      6  C   UNL     1       2.896   4.606  19.887  0.00  0.00    +0.000 C 
ATOM      7  C   UNL     1       2.156   5.210  18.678  0.00  0.00    +0.000 C 
ATOM      8  C   UNL     1       1.459   4.090  17.890  0.00  0.00    +0.000 C 
ENDROOT
BRANCH   1  13
ATOM      9  C   UNL     1       7.986   5.999  19.051  0.00  0.00    +0.000 C 
ATOM     10  C   UNL     1       6.870   5.210  18.490  0.00  0.00    +0.000 A 
ATOM     11  C   UNL     1       6.532   4.847  17.206  0.00  0.00    +0.000 A 
ATOM     12  C   UNL     1       5.352   4.078  17.309  0.00  0.00    +0.000 A 
ATOM     13  C   UNL     1       5.013   4.045  18.646  0.00  0.00    +0.000 A 
ATOM     14  O   UNL     1       5.950   4.727  19.372  0.00  0.00    +0.000 OA
ENDBRANCH   1  13
TORSDOF 1
ENDMDL
MODEL 5
REMARK VINA RESULT:      -6.3      1.517      2.626
REMARK  Name = 
REMARK  2 active torsions:
REMARK  status: ('A' for Active; 'I' for Inactive)
REMARK    1  A    between atoms: C_1  and  C_2
REMARK    2  A    between atoms: C_5  and  C_6
REMARK                            x       y       z     vdW  Elec       q    Type
REMARK                         _______ _______ _______ _____ _____    ______ ____
ROOT
ATOM      1  C   UNL     1       3.590   3.951  17.041  0.00  0.00    +0.000 C 
ATOM      2  C   UNL     1       2.784   5.013  17.834  0.00  0.00    +0.000 C 
ATOM      3  N   UNL     1       2.233   4.472  19.104  0.00  0.00    +0.000 NA
ATOM      4  C   UNL     1       1.357   3.319  18.797  0.00  0.00    +0.000 C 
ATOM      5  C   UNL     1       2.107   2.214  18.033  0.00  0.00    +0.000 C 
ATOM      6  C   UNL     1       3.580   2.628  17.850  0.00  0.00    +0.000 C 
ATOM      7  C   UNL     1       4.139   2.866  19.265  0.00  0.00    +0.000 C 
ATOM      8  C   UNL     1       3.361   4.007  19.940  0.00  0.00    +0.000 C 
ENDROOT
BRANCH   1  13
ATOM      9  C   UNL     1       7.387   6.938  17.424  0.00  0.00    +0.000 C 
ATOM     10  C   UNL     1       6.692   5.756  16.875  0.00  0.00    +0.000 A 
ATOM     11  C   UNL     1       7.040   4.819  15.929  0.00  0.00    +0.000 A 
ATOM     12  C   UNL     1       5.955   3.920  15.842  0.00  0.00    +0.000 A 
ATOM     13  C   UNL     1       4.987   4.378  16.712  0.00  0.00    +0.000 A 
ATOM     14  O   UNL     1       5.443   5.496  17.356  0.00  0.00    +0.000 OA
ENDBRANCH   1  13
TORSDOF 1
ENDMDL
MODEL 6
REMARK VINA RESULT:      -6.3      1.429      1.789
REMARK  Name = 
REMARK  2 active torsions:
REMARK  status: ('A' for Active; 'I' for Inactive)
REMARK    1  A    between atoms: C_1  and  C_2
REMARK    2  A    between atoms: C_5  and  C_6
REMARK                            x       y       z     vdW  Elec       q    Type
REMARK                         _______ _______ _______ _____ _____    ______ ____
ROOT
ATOM      1  C   UNL     1       3.861   3.348  19.043  0.00  0.00    +0.000 C 
ATOM      2  C   UNL     1       3.107   2.577  17.928  0.00  0.00    +0.000 C 
ATOM      3  N   UNL     1       1.658   2.909  17.893  0.00  0.00    +0.000 NA
ATOM      4  C   UNL     1       1.058   2.585  19.207  0.00  0.00    +0.000 C 
ATOM      5  C   UNL     1       1.746   3.342  20.355  0.00  0.00    +0.000 C 
ATOM      6  C   UNL     1       2.845   4.256  19.781  0.00  0.00    +0.000 C 
ATOM      7  C   UNL     1       2.144   5.193  18.779  0.00  0.00    +0.000 C 
ATOM      8  C   UNL     1       1.519   4.361  17.648  0.00  0.00    +0.000 C 
ENDROOT
BRANCH   1  13
ATOM      9  C   UNL     1       6.996   4.695  15.601  0.00  0.00    +0.000 C 
ATOM     10  C   UNL     1       6.464   4.716  16.979  0.00  0.00    +0.000 A 
ATOM     11  C   UNL     1       6.881   5.336  18.135  0.00  0.00    +0.000 A 
ATOM     12  C   UNL     1       5.947   4.982  19.134  0.00  0.00    +0.000 A 
ATOM     13  C   UNL     1       5.034   4.134  18.543  0.00  0.00    +0.000 A 
ATOM     14  O   UNL     1       5.341   3.981  17.219  0.00  0.00    +0.000 OA
ENDBRANCH   1  13
TORSDOF 1
ENDMDL
MODEL 7
REMARK VINA RESULT:      -6.2      1.241      1.659
REMARK  Name = 
REMARK  2 active torsions:
REMARK  status: ('A' for Active; 'I' for Inactive)
REMARK    1  A    between atoms: C_1  and  C_2
REMARK    2  A    between atoms: C_5  and  C_6
REMARK                            x       y       z     vdW  Elec       q    Type
REMARK                         _______ _______ _______ _____ _____    ______ ____
ROOT
ATOM      1  C   UNL     1       3.601   4.216  19.565  0.00  0.00    +0.000 C 
ATOM      2  C   UNL     1       3.434   2.701  19.852  0.00  0.00    +0.000 C 
ATOM      3  N   UNL     1       2.013   2.268  19.795  0.00  0.00    +0.000 NA
ATOM      4  C   UNL     1       1.233   3.045  20.784  0.00  0.00    +0.000 C 
ATOM      5  C   UNL     1       1.335   4.559  20.537  0.00  0.00    +0.000 C 
ATOM      6  C   UNL     1       2.199   4.816  19.288  0.00  0.00    +0.000 C 
ATOM      7  C   UNL     1       1.517   4.063  18.130  0.00  0.00    +0.000 C 
ATOM      8  C   UNL     1       1.492   2.558  18.441  0.00  0.00    +0.000 C 
ENDROOT
BRANCH   1  13
ATOM      9  C   UNL     1       7.079   6.851  17.456  0.00  0.00    +0.000 C 
ATOM     10  C   UNL     1       6.112   5.735  17.492  0.00  0.00    +0.000 A 
ATOM     11  C   UNL     1       5.761   4.769  16.577  0.00  0.00    +0.000 A 
ATOM     12  C   UNL     1       4.777   3.970  17.201  0.00  0.00    +0.000 A 
ATOM     13  C   UNL     1       4.553   4.515  18.448  0.00  0.00    +0.000 A 
ATOM     14  O   UNL     1       5.380   5.589  18.633  0.00  0.00    +0.000 OA
ENDBRANCH   1  13
TORSDOF 1
ENDMDL
MODEL 8
REMARK VINA RESULT:      -6.2      1.516      2.239
REMARK  Name = 
REMARK  2 active torsions:
REMARK  status: ('A' for Active; 'I' for Inactive)
REMARK    1  A    between atoms: C_1  and  C_2
REMARK    2  A    between atoms: C_5  and  C_6
REMARK                            x       y       z     vdW  Elec       q    Type
REMARK                         _______ _______ _______ _____ _____    ______ ____
ROOT
ATOM      1  C   UNL     1       2.948   4.208  17.972  0.00  0.00    +0.000 C 
ATOM      2  C   UNL     1       2.875   4.823  19.395  0.00  0.00    +0.000 C 
ATOM      3  N   UNL     1       2.328   3.868  20.395  0.00  0.00    +0.000 NA
ATOM      4  C   UNL     1       0.973   3.450  19.970  0.00  0.00    +0.000 C 
ATOM      5  C   UNL     1       0.981   2.805  18.574  0.00  0.00    +0.000 C 
ATOM      6  C   UNL     1       2.427   2.750  18.044  0.00  0.00    +0.000 C 
ATOM      7  C   UNL     1       3.235   1.947  19.081  0.00  0.00    +0.000 C 
ATOM      8  C   UNL     1       3.206   2.679  20.433  0.00  0.00    +0.000 C 
ENDROOT
BRANCH   1  13
ATOM      9  C   UNL     1       7.714   5.074  18.142  0.00  0.00    +0.000 C 
ATOM     10  C   UNL     1       6.469   4.692  17.444  0.00  0.00    +0.000 A 
ATOM     11  C   UNL     1       6.186   4.383  16.133  0.00  0.00    +0.000 A 
ATOM     12  C   UNL     1       4.805   4.088  16.084  0.00  0.00    +0.000 A 
ATOM     13  C   UNL     1       4.314   4.270  17.360  0.00  0.00    +0.000 A 
ATOM     14  O   UNL     1       5.334   4.627  18.197  0.00  0.00    +0.000 OA
ENDBRANCH   1  13
TORSDOF 1
ENDMDL
MODEL 9
REMARK VINA RESULT:      -6.2      1.625      2.168
REMARK  Name = 
REMARK  2 active torsions:
REMARK  status: ('A' for Active; 'I' for Inactive)
REMARK    1  A    between atoms: C_1  and  C_2
REMARK    2  A    between atoms: C_5  and  C_6
REMARK                            x       y       z     vdW  Elec       q    Type
REMARK                         _______ _______ _______ _____ _____    ______ ____
ROOT
ATOM      1  C   UNL     1       3.101   5.020  18.475  0.00  0.00    +0.000 C 
ATOM      2  C   UNL     1       3.173   4.577  19.960  0.00  0.00    +0.000 C 
ATOM      3  N   UNL     1       2.757   3.162  20.149  0.00  0.00    +0.000 NA
ATOM      4  C   UNL     1       1.372   2.998  19.653  0.00  0.00    +0.000 C 
ATOM      5  C   UNL     1       1.238   3.396  18.174  0.00  0.00    +0.000 C 
ATOM      6  C   UNL     1       2.618   3.814  17.630  0.00  0.00    +0.000 C 
ATOM      7  C   UNL     1       3.550   2.606  17.845  0.00  0.00    +0.000 C 
ATOM      8  C   UNL     1       3.656   2.302  19.348  0.00  0.00    +0.000 C 
ENDROOT
BRANCH   1  13
ATOM      9  C   UNL     1       7.817   6.069  18.856  0.00  0.00    +0.000 C 
ATOM     10  C   UNL     1       6.521   6.068  18.146  0.00  0.00    +0.000 A 
ATOM     11  C   UNL     1       6.113   6.590  16.940  0.00  0.00    +0.000 A 
ATOM     12  C   UNL     1       4.748   6.252  16.802  0.00  0.00    +0.000 A 
ATOM     13  C   UNL     1       4.389   5.574  17.949  0.00  0.00    +0.000 A 
ATOM     14  O   UNL     1       5.477   5.449  18.767  0.00  0.00    +0.000 OA
ENDBRANCH   1  13
TORSDOF 1
ENDMDL
