MODEL 1
REMARK VINA RESULT:      -9.2      0.000      0.000
REMARK  Name = 
REMARK  1 active torsions:
REMARK  status: ('A' for Active; 'I' for Inactive)
REMARK    1  A    between atoms: C_12  and  C_13
REMARK                            x       y       z     vdW  Elec       q    Type
REMARK                         _______ _______ _______ _____ _____    ______ ____
ROOT
ATOM      1  O   UNL     1       7.507   6.681  17.618  0.00  0.00    +0.000 OA
ATOM      2  C   UNL     1       7.031   5.986  16.729  0.00  0.00    +0.000 A 
ATOM      3  O   UNL     1       7.612   5.819  15.467  0.00  0.00    +0.000 OA
ATOM      4  C   UNL     1       7.042   5.033  14.440  0.00  0.00    +0.000 A 
ATOM      5  C   UNL     1       7.722   5.000  13.227  0.00  0.00    +0.000 A 
ATOM      6  C   UNL     1       7.189   4.251  12.183  0.00  0.00    +0.000 A 
ATOM      7  C   UNL     1       5.993   3.548  12.369  0.00  0.00    +0.000 A 
ATOM      8  C   UNL     1       5.321   3.588  13.601  0.00  0.00    +0.000 A 
ATOM      9  C   UNL     1       5.846   4.337  14.652  0.00  0.00    +0.000 A 
ATOM     10  C   UNL     1       5.239   4.469  15.961  0.00  0.00    +0.000 A 
ATOM     11  N   UNL     1       4.147   3.942  16.482  0.00  0.00    +0.000 NA
ATOM     12  C   UNL     1       4.101   4.479  17.761  0.00  0.00    +0.000 A 
ATOM     13  N   UNL     1       5.122   5.304  18.036  0.00  0.00    +0.000 NA
ATOM     14  N   UNL     1       5.843   5.274  16.892  0.00  0.00    +0.000 N 
ENDROOT
BRANCH  12  15
ATOM     15  C   UNL     1       3.027   4.218  18.722  0.00  0.00    +0.000 A 
ATOM     16  C   UNL     1       3.030   4.802  19.993  0.00  0.00    +0.000 A 
ATOM     17  C   UNL     1       2.029   4.491  20.923  0.00  0.00    +0.000 A 
ATOM     18  C   UNL     1       1.006   3.603  20.586  0.00  0.00    +0.000 A 
ATOM     19  C   UNL     1       0.970   3.037  19.315  0.00  0.00    +0.000 A 
ATOM     20  C   UNL     1       1.975   3.343  18.391  0.00  0.00    +0.000 A 
ENDBRANCH  12  15
TORSDOF 1
ENDMDL
MODEL 2
REMARK VINA RESULT:      -9.2      0.072      1.080
REMARK  Name = 
REMARK  1 active torsions:
REMARK  status: ('A' for Active; 'I' for Inactive)
REMARK    1  A    between atoms: C_12  and  C_13
REMARK                            x       y       z     vdW  Elec       q    Type
REMARK                         _______ _______ _______ _____ _____    ______ ____
ROOT
ATOM      1  O   UNL     1       7.523   6.663  17.576  0.00  0.00    +0.000 OA
ATOM      2  C   UNL     1       7.049   5.965  16.687  0.00  0.00    +0.000 A 
ATOM      3  O   UNL     1       7.627   5.806  15.423  0.00  0.00    +0.000 OA
ATOM      4  C   UNL     1       7.060   5.018  14.396  0.00  0.00    +0.000 A 
ATOM      5  C   UNL     1       7.737   4.993  13.181  0.00  0.00    +0.000 A 
ATOM      6  C   UNL     1       7.207   4.243  12.137  0.00  0.00    +0.000 A 
ATOM      7  C   UNL     1       6.017   3.529  12.325  0.00  0.00    +0.000 A 
ATOM      8  C   UNL     1       5.348   3.562  13.559  0.00  0.00    +0.000 A 
ATOM      9  C   UNL     1       5.871   4.313  14.611  0.00  0.00    +0.000 A 
ATOM     10  C   UNL     1       5.267   4.437  15.922  0.00  0.00    +0.000 A 
ATOM     11  N   UNL     1       4.181   3.900  16.445  0.00  0.00    +0.000 NA
ATOM     12  C   UNL     1       4.134   4.434  17.725  0.00  0.00    +0.000 A 
ATOM     13  N   UNL     1       5.149   5.266  17.998  0.00  0.00    +0.000 NA
ATOM     14  N   UNL     1       5.867   5.244  16.853  0.00  0.00    +0.000 N 
ENDROOT
BRANCH  12  15
ATOM     15  C   UNL     1       3.065   4.162  18.689  0.00  0.00    +0.000 A 
ATOM     16  C   UNL     1       2.016   3.290  18.385  0.00  0.00    +0.000 A 
ATOM     17  C   UNL     1       0.967   3.091  19.294  0.00  0.00    +0.000 A 
ATOM     18  C   UNL     1       0.967   3.751  20.523  0.00  0.00    +0.000 A 
ATOM     19  C   UNL     1       2.020   4.599  20.855  0.00  0.00    +0.000 A 
ATOM     20  C   UNL     1       3.060   4.803  19.943  0.00  0.00    +0.000 A 
ENDBRANCH  12  15
TORSDOF 1
ENDMDL
MODEL 3
REMARK VINA RESULT:      -8.8      1.294      6.419
REMARK  Name = 
REMARK  1 active torsions:
REMARK  status: ('A' for Active; 'I' for Inactive)
REMARK    1  A    between atoms: C_12  and  C_13
REMARK                            x       y       z     vdW  Elec       q    Type
REMARK                         _______ _______ _______ _____ _____    ______ ____
ROOT
ATOM      1  O   UNL     1       6.643   5.449  19.641  0.00  0.00    +0.000 OA
ATOM      2  C   UNL     1       5.564   4.995  19.282  0.00  0.00    +0.000 A 
ATOM      3  O   UNL     1       4.483   4.769  20.142  0.00  0.00    +0.000 OA
ATOM      4  C   UNL     1       3.249   4.222  19.721  0.00  0.00    +0.000 A 
ATOM      5  C   UNL     1       2.286   4.021  20.705  0.00  0.00    +0.000 A 
ATOM      6  C   UNL     1       1.062   3.472  20.339  0.00  0.00    +0.000 A 
ATOM      7  C   UNL     1       0.820   3.137  19.002  0.00  0.00    +0.000 A 
ATOM      8  C   UNL     1       1.801   3.349  18.020  0.00  0.00    +0.000 A 
ATOM      9  C   UNL     1       3.032   3.898  18.377  0.00  0.00    +0.000 A 
ATOM     10  C   UNL     1       4.125   4.150  17.461  0.00  0.00    +0.000 A 
ATOM     11  N   UNL     1       4.238   3.979  16.157  0.00  0.00    +0.000 NA
ATOM     12  C   UNL     1       5.538   4.382  15.885  0.00  0.00    +0.000 A 
ATOM     13  N   UNL     1       6.213   4.793  16.968  0.00  0.00    +0.000 NA
ATOM     14  N   UNL     1       5.299   4.657  17.955  0.00  0.00    +0.000 N 
ENDROOT
BRANCH  12  15
ATOM     15  C   UNL     1       6.151   4.331  14.555  0.00  0.00    +0.000 A 
ATOM     16  C   UNL     1       7.280   5.096  14.245  0.00  0.00    +0.000 A 
ATOM     17  C   UNL     1       7.814   5.086  12.949  0.00  0.00    +0.000 A 
ATOM     18  C   UNL     1       7.234   4.296  11.956  0.00  0.00    +0.000 A 
ATOM     19  C   UNL     1       6.130   3.504  12.255  0.00  0.00    +0.000 A 
ATOM     20  C   UNL     1       5.593   3.523  13.546  0.00  0.00    +0.000 A 
ENDBRANCH  12  15
TORSDOF 1
ENDMDL
MODEL 4
REMARK VINA RESULT:      -8.7      1.293      6.507
REMARK  Name = 
REMARK  1 active torsions:
REMARK  status: ('A' for Active; 'I' for Inactive)
REMARK    1  A    between atoms: C_12  and  C_13
REMARK                            x       y       z     vdW  Elec       q    Type
REMARK                         _______ _______ _______ _____ _____    ______ ____
ROOT
ATOM      1  O   UNL     1       6.707   5.323  19.613  0.00  0.00    +0.000 OA
ATOM      2  C   UNL     1       5.604   4.902  19.285  0.00  0.00    +0.000 A 
ATOM      3  O   UNL     1       4.550   4.683  20.179  0.00  0.00    +0.000 OA
ATOM      4  C   UNL     1       3.289   4.175  19.793  0.00  0.00    +0.000 A 
ATOM      5  C   UNL     1       2.358   3.975  20.808  0.00  0.00    +0.000 A 
ATOM      6  C   UNL     1       1.109   3.462  20.476  0.00  0.00    +0.000 A 
ATOM      7  C   UNL     1       0.810   3.161  19.142  0.00  0.00    +0.000 A 
ATOM      8  C   UNL     1       1.760   3.372  18.129  0.00  0.00    +0.000 A 
ATOM      9  C   UNL     1       3.015   3.884  18.452  0.00  0.00    +0.000 A 
ATOM     10  C   UNL     1       4.080   4.130  17.501  0.00  0.00    +0.000 A 
ATOM     11  N   UNL     1       4.142   3.984  16.191  0.00  0.00    +0.000 NA
ATOM     12  C   UNL     1       5.440   4.362  15.879  0.00  0.00    +0.000 A 
ATOM     13  N   UNL     1       6.164   4.734  16.944  0.00  0.00    +0.000 NA
ATOM     14  N   UNL     1       5.283   4.598  17.962  0.00  0.00    +0.000 N 
ENDROOT
BRANCH  12  15
ATOM     15  C   UNL     1       6.003   4.325  14.527  0.00  0.00    +0.000 A 
ATOM     16  C   UNL     1       5.434   3.534  13.523  0.00  0.00    +0.000 A 
ATOM     17  C   UNL     1       6.023   3.461  12.254  0.00  0.00    +0.000 A 
ATOM     18  C   UNL     1       7.178   4.191  11.970  0.00  0.00    +0.000 A 
ATOM     19  C   UNL     1       7.739   5.008  12.948  0.00  0.00    +0.000 A 
ATOM     20  C   UNL     1       7.155   5.073  14.216  0.00  0.00    +0.000 A 
ENDBRANCH  12  15
TORSDOF 1
ENDMDL
MODEL 5
REMARK VINA RESULT:      -8.0      2.328      6.776
REMARK  Name = 
REMARK  1 active torsions:
REMARK  status: ('A' for Active; 'I' for Inactive)
REMARK    1  A    between atoms: C_12  and  C_13
REMARK                            x       y       z     vdW  Elec       q    Type
REMARK                         _______ _______ _______ _____ _____    ______ ____
ROOT
ATOM      1  O   UNL     1       3.670   1.462  18.322  0.00  0.00    +0.000 OA
ATOM      2  C   UNL     1       3.524   2.677  18.388  0.00  0.00    +0.000 A 
ATOM      3  O   UNL     1       2.807   3.327  19.398  0.00  0.00    +0.000 OA
ATOM      4  C   UNL     1       2.625   4.728  19.451  0.00  0.00    +0.000 A 
ATOM      5  C   UNL     1       1.851   5.219  20.499  0.00  0.00    +0.000 A 
ATOM      6  C   UNL     1       1.633   6.589  20.582  0.00  0.00    +0.000 A 
ATOM      7  C   UNL     1       2.192   7.444  19.625  0.00  0.00    +0.000 A 
ATOM      8  C   UNL     1       2.974   6.933  18.576  0.00  0.00    +0.000 A 
ATOM      9  C   UNL     1       3.196   5.560  18.483  0.00  0.00    +0.000 A 
ATOM     10  C   UNL     1       3.970   4.914  17.442  0.00  0.00    +0.000 A 
ATOM     11  N   UNL     1       4.640   5.399  16.414  0.00  0.00    +0.000 NA
ATOM     12  C   UNL     1       5.136   4.267  15.782  0.00  0.00    +0.000 A 
ATOM     13  N   UNL     1       4.798   3.120  16.389  0.00  0.00    +0.000 NA
ATOM     14  N   UNL     1       4.074   3.547  17.447  0.00  0.00    +0.000 N 
ENDROOT
BRANCH  12  15
ATOM     15  C   UNL     1       5.922   4.296  14.546  0.00  0.00    +0.000 A 
ATOM     16  C   UNL     1       7.082   5.069  14.439  0.00  0.00    +0.000 A 
ATOM     17  C   UNL     1       7.786   5.135  13.229  0.00  0.00    +0.000 A 
ATOM     18  C   UNL     1       7.345   4.416  12.118  0.00  0.00    +0.000 A 
ATOM     19  C   UNL     1       6.210   3.615  12.216  0.00  0.00    +0.000 A 
ATOM     20  C   UNL     1       5.504   3.558  13.422  0.00  0.00    +0.000 A 
ENDBRANCH  12  15
TORSDOF 1
ENDMDL
MODEL 6
REMARK VINA RESULT:      -8.0      1.863      6.554
REMARK  Name = 
REMARK  1 active torsions:
REMARK  status: ('A' for Active; 'I' for Inactive)
REMARK    1  A    between atoms: C_12  and  C_13
REMARK                            x       y       z     vdW  Elec       q    Type
REMARK                         _______ _______ _______ _____ _____    ______ ____
ROOT
ATOM      1  O   UNL     1       3.379   7.977  17.771  0.00  0.00    +0.000 OA
ATOM      2  C   UNL     1       3.390   6.811  18.144  0.00  0.00    +0.000 A 
ATOM      3  O   UNL     1       2.797   6.361  19.329  0.00  0.00    +0.000 OA
ATOM      4  C   UNL     1       2.835   5.016  19.762  0.00  0.00    +0.000 A 
ATOM      5  C   UNL     1       2.232   4.736  20.985  0.00  0.00    +0.000 A 
ATOM      6  C   UNL     1       2.259   3.429  21.458  0.00  0.00    +0.000 A 
ATOM      7  C   UNL     1       2.881   2.427  20.704  0.00  0.00    +0.000 A 
ATOM      8  C   UNL     1       3.482   2.726  19.471  0.00  0.00    +0.000 A 
ATOM      9  C   UNL     1       3.462   4.034  18.989  0.00  0.00    +0.000 A 
ATOM     10  C   UNL     1       4.058   4.468  17.742  0.00  0.00    +0.000 A 
ATOM     11  N   UNL     1       4.693   3.806  16.793  0.00  0.00    +0.000 NA
ATOM     12  C   UNL     1       5.039   4.793  15.881  0.00  0.00    +0.000 A 
ATOM     13  N   UNL     1       4.635   6.021  16.236  0.00  0.00    +0.000 NA
ATOM     14  N   UNL     1       4.001   5.796  17.408  0.00  0.00    +0.000 N 
ENDROOT
BRANCH  12  15
ATOM     15  C   UNL     1       5.810   4.547  14.659  0.00  0.00    +0.000 A 
ATOM     16  C   UNL     1       7.056   5.146  14.451  0.00  0.00    +0.000 A 
ATOM     17  C   UNL     1       7.750   4.951  13.249  0.00  0.00    +0.000 A 
ATOM     18  C   UNL     1       7.210   4.142  12.249  0.00  0.00    +0.000 A 
ATOM     19  C   UNL     1       5.986   3.512  12.452  0.00  0.00    +0.000 A 
ATOM     20  C   UNL     1       5.291   3.715  13.648  0.00  0.00    +0.000 A 
ENDBRANCH  12  15
TORSDOF 1
ENDMDL
MODEL 7
REMARK VINA RESULT:      -8.0      2.307      6.860
REMARK  Name = 
REMARK  1 active torsions:
REMARK  status: ('A' for Active; 'I' for Inactive)
REMARK    1  A    between atoms: C_12  and  C_13
REMARK                            x       y       z     vdW  Elec       q    Type
REMARK                         _______ _______ _______ _____ _____    ______ ____
ROOT
ATOM      1  O   UNL     1       3.760   1.422  18.302  0.00  0.00    +0.000 OA
ATOM      2  C   UNL     1       3.595   2.634  18.382  0.00  0.00    +0.000 A 
ATOM      3  O   UNL     1       2.889   3.263  19.414  0.00  0.00    +0.000 OA
ATOM      4  C   UNL     1       2.684   4.659  19.484  0.00  0.00    +0.000 A 
ATOM      5  C   UNL     1       1.926   5.128  20.553  0.00  0.00    +0.000 A 
ATOM      6  C   UNL     1       1.686   6.493  20.654  0.00  0.00    +0.000 A 
ATOM      7  C   UNL     1       2.209   7.366  19.692  0.00  0.00    +0.000 A 
ATOM      8  C   UNL     1       2.975   6.878  18.621  0.00  0.00    +0.000 A 
ATOM      9  C   UNL     1       3.219   5.510  18.511  0.00  0.00    +0.000 A 
ATOM     10  C   UNL     1       3.980   4.887  17.447  0.00  0.00    +0.000 A 
ATOM     11  N   UNL     1       4.619   5.392  16.409  0.00  0.00    +0.000 NA
ATOM     12  C   UNL     1       5.120   4.275  15.756  0.00  0.00    +0.000 A 
ATOM     13  N   UNL     1       4.816   3.117  16.359  0.00  0.00    +0.000 NA
ATOM     14  N   UNL     1       4.108   3.522  17.438  0.00  0.00    +0.000 N 
ENDROOT
BRANCH  12  15
ATOM     15  C   UNL     1       5.878   4.327  14.503  0.00  0.00    +0.000 A 
ATOM     16  C   UNL     1       5.512   3.551  13.399  0.00  0.00    +0.000 A 
ATOM     17  C   UNL     1       6.286   3.565  12.230  0.00  0.00    +0.000 A 
ATOM     18  C   UNL     1       7.423   4.369  12.149  0.00  0.00    +0.000 A 
ATOM     19  C   UNL     1       7.783   5.172  13.227  0.00  0.00    +0.000 A 
ATOM     20  C   UNL     1       7.016   5.150  14.395  0.00  0.00    +0.000 A 
ENDBRANCH  12  15
TORSDOF 1
ENDMDL
MODEL 8
REMARK VINA RESULT:      -7.9      2.318      6.594
REMARK  Name = 
REMARK  1 active torsions:
REMARK  status: ('A' for Active; 'I' for Inactive)
REMARK    1  A    between atoms: C_12  and  C_13
REMARK                            x       y       z     vdW  Elec       q    Type
REMARK                         _______ _______ _______ _____ _____    ______ ____
ROOT
ATOM      1  O   UNL     1       5.198   3.138  19.371  0.00  0.00    +0.000 OA
ATOM      2  C   UNL     1       4.672   4.181  19.004  0.00  0.00    +0.000 A 
ATOM      3  O   UNL     1       3.838   4.965  19.809  0.00  0.00    +0.000 OA
ATOM      4  C   UNL     1       3.217   6.155  19.368  0.00  0.00    +0.000 A 
ATOM      5  C   UNL     1       2.384   6.800  20.277  0.00  0.00    +0.000 A 
ATOM      6  C   UNL     1       1.739   7.967  19.881  0.00  0.00    +0.000 A 
ATOM      7  C   UNL     1       1.938   8.469  18.590  0.00  0.00    +0.000 A 
ATOM      8  C   UNL     1       2.785   7.808  17.685  0.00  0.00    +0.000 A 
ATOM      9  C   UNL     1       3.434   6.637  18.073  0.00  0.00    +0.000 A 
ATOM     10  C   UNL     1       4.317   5.860  17.227  0.00  0.00    +0.000 A 
ATOM     11  N   UNL     1       4.737   6.042  15.990  0.00  0.00    +0.000 NA
ATOM     12  C   UNL     1       5.537   4.935  15.748  0.00  0.00    +0.000 A 
ATOM     13  N   UNL     1       5.623   4.094  16.789  0.00  0.00    +0.000 NA
ATOM     14  N   UNL     1       4.858   4.702  17.724  0.00  0.00    +0.000 N 
ENDROOT
BRANCH  12  15
ATOM     15  C   UNL     1       6.203   4.666  14.470  0.00  0.00    +0.000 A 
ATOM     16  C   UNL     1       7.346   5.373  14.083  0.00  0.00    +0.000 A 
ATOM     17  C   UNL     1       7.932   5.149  12.830  0.00  0.00    +0.000 A 
ATOM     18  C   UNL     1       7.390   4.205  11.958  0.00  0.00    +0.000 A 
ATOM     19  C   UNL     1       6.271   3.470  12.341  0.00  0.00    +0.000 A 
ATOM     20  C   UNL     1       5.683   3.701  13.588  0.00  0.00    +0.000 A 
ENDBRANCH  12  15
TORSDOF 1
ENDMDL
MODEL 9
REMARK VINA RESULT:      -7.8      1.873      6.630
REMARK  Name = 
REMARK  1 active torsions:
REMARK  status: ('A' for Active; 'I' for Inactive)
REMARK    1  A    between atoms: C_12  and  C_13
REMARK                            x       y       z     vdW  Elec       q    Type
REMARK                         _______ _______ _______ _____ _____    ______ ____
ROOT
ATOM      1  O   UNL     1       3.368   8.014  17.797  0.00  0.00    +0.000 OA
ATOM      2  C   UNL     1       3.377   6.843  18.156  0.00  0.00    +0.000 A 
ATOM      3  O   UNL     1       2.794   6.383  19.342  0.00  0.00    +0.000 OA
ATOM      4  C   UNL     1       2.830   5.033  19.760  0.00  0.00    +0.000 A 
ATOM      5  C   UNL     1       2.239   4.741  20.985  0.00  0.00    +0.000 A 
ATOM      6  C   UNL     1       2.264   3.429  21.443  0.00  0.00    +0.000 A 
ATOM      7  C   UNL     1       2.872   2.432  20.671  0.00  0.00    +0.000 A 
ATOM      8  C   UNL     1       3.461   2.742  19.434  0.00  0.00    +0.000 A 
ATOM      9  C   UNL     1       3.442   4.056  18.968  0.00  0.00    +0.000 A 
ATOM     10  C   UNL     1       4.027   4.501  17.719  0.00  0.00    +0.000 A 
ATOM     11  N   UNL     1       4.649   3.847  16.756  0.00  0.00    +0.000 NA
ATOM     12  C   UNL     1       4.990   4.843  15.851  0.00  0.00    +0.000 A 
ATOM     13  N   UNL     1       4.597   6.069  16.225  0.00  0.00    +0.000 NA
ATOM     14  N   UNL     1       3.974   5.833  17.402  0.00  0.00    +0.000 N 
ENDROOT
BRANCH  12  15
ATOM     15  C   UNL     1       5.745   4.607  14.618  0.00  0.00    +0.000 A 
ATOM     16  C   UNL     1       5.261   3.755  13.620  0.00  0.00    +0.000 A 
ATOM     17  C   UNL     1       6.027   3.489  12.476  0.00  0.00    +0.000 A 
ATOM     18  C   UNL     1       7.276   4.087  12.312  0.00  0.00    +0.000 A 
ATOM     19  C   UNL     1       7.759   4.963  13.280  0.00  0.00    +0.000 A 
ATOM     20  C   UNL     1       6.998   5.219  14.425  0.00  0.00    +0.000 A 
ENDBRANCH  12  15
TORSDOF 1
ENDMDL
