MODEL 1
REMARK VINA RESULT:      -7.4      0.000      0.000
REMARK  Name = 
REMARK  8 active torsions:
REMARK  status: ('A' for Active; 'I' for Inactive)
REMARK    1  A    between atoms: C_1  and  C_2
REMARK    2  A    between atoms: C_2  and  N_3
REMARK    3  A    between atoms: N_3  and  C_4
REMARK    4  A    between atoms: N_3  and  S_6
REMARK    5  A    between atoms: C_4  and  C_5
REMARK    6  A    between atoms: S_6  and  C_9
REMARK    7  A    between atoms: C_14  and  C_15
REMARK    8  A    between atoms: N_17  and  C_18
REMARK                            x       y       z     vdW  Elec       q    Type
REMARK                         _______ _______ _______ _____ _____    ______ ____
ROOT
ATOM      1  C   UNL     1       5.184   4.911  19.305  0.00  0.00    +0.000 A 
ATOM      2  C   UNL     1       4.664   3.619  19.393  0.00  0.00    +0.000 A 
ATOM      3  C   UNL     1       3.304   3.444  19.665  0.00  0.00    +0.000 A 
ATOM      4  C   UNL     1       2.457   4.550  19.841  0.00  0.00    +0.000 A 
ATOM      5 CL   UNL     1       0.787   4.205  20.116  0.00  0.00    +0.000 Cl
ATOM      6  C   UNL     1       2.975   5.848  19.744  0.00  0.00    +0.000 A 
ATOM      7  C   UNL     1       4.351   6.018  19.472  0.00  0.00    +0.000 A 
ENDROOT
BRANCH   6   8
ATOM      8  C   UNL     1       2.165   7.099  19.801  0.00  0.00    +0.000 C 
ATOM      9  O   UNL     1       2.015   7.689  18.733  0.00  0.00    +0.000 OA
ATOM     10  N   UNL     1       1.709   7.535  21.035  0.00  0.00    +0.000 N 
ATOM     11  H   UNL     1       1.987   7.013  21.856  0.00  0.00    +0.000 HD
BRANCH  10  12
ATOM     12  C   UNL     1       0.942   8.704  21.260  0.00  0.00    +0.000 A 
ATOM     13  C   UNL     1       0.880   9.769  20.355  0.00  0.00    +0.000 A 
ATOM     14  C   UNL     1       0.132  10.914  20.638  0.00  0.00    +0.000 A 
ATOM     15  C   UNL     1      -0.566  11.012  21.837  0.00  0.00    +0.000 A 
ATOM     16  C   UNL     1      -0.531   9.951  22.742  0.00  0.00    +0.000 A 
ATOM     17  C   UNL     1       0.207   8.797  22.448  0.00  0.00    +0.000 A 
ENDBRANCH  10  12
ENDBRANCH   6   8
BRANCH   1  18
ATOM     18  S   UNL     1       6.898   5.147  18.867  0.00  0.00    +0.000 S 
ATOM     19  O   UNL     1       7.283   4.016  18.052  0.00  0.00    +0.000 OA
ATOM     20  O   UNL     1       7.618   5.475  20.083  0.00  0.00    +0.000 OA
BRANCH  18  21
ATOM     21  N   UNL     1       6.880   6.557  17.878  0.00  0.00    +0.000 NA
BRANCH  21  23
ATOM     22  C   UNL     1       7.738   8.920  17.684  0.00  0.00    +0.000 C 
ATOM     23  C   UNL     1       8.021   7.491  18.121  0.00  0.00    +0.000 C 
ENDBRANCH  21  23
BRANCH  21  24
ATOM     24  C   UNL     1       6.601   6.263  16.434  0.00  0.00    +0.000 C 
ATOM     25  C   UNL     1       5.168   6.557  16.017  0.00  0.00    +0.000 C 
ENDBRANCH  21  24
ENDBRANCH  18  21
ENDBRANCH   1  18
TORSDOF 6
ENDMDL
MODEL 2
REMARK VINA RESULT:      -7.3      1.319      2.187
REMARK  Name = 
REMARK  8 active torsions:
REMARK  status: ('A' for Active; 'I' for Inactive)
REMARK    1  A    between atoms: C_1  and  C_2
REMARK    2  A    between atoms: C_2  and  N_3
REMARK    3  A    between atoms: N_3  and  C_4
REMARK    4  A    between atoms: N_3  and  S_6
REMARK    5  A    between atoms: C_4  and  C_5
REMARK    6  A    between atoms: S_6  and  C_9
REMARK    7  A    between atoms: C_14  and  C_15
REMARK    8  A    between atoms: N_17  and  C_18
REMARK                            x       y       z     vdW  Elec       q    Type
REMARK                         _______ _______ _______ _____ _____    ______ ____
ROOT
ATOM      1  C   UNL     1       5.692   4.675  18.294  0.00  0.00    +0.000 A 
ATOM      2  C   UNL     1       5.253   3.582  17.547  0.00  0.00    +0.000 A 
ATOM      3  C   UNL     1       3.902   3.223  17.584  0.00  0.00    +0.000 A 
ATOM      4  C   UNL     1       2.985   3.954  18.357  0.00  0.00    +0.000 A 
ATOM      5 CL   UNL     1       1.335   3.447  18.277  0.00  0.00    +0.000 Cl
ATOM      6  C   UNL     1       3.422   5.058  19.101  0.00  0.00    +0.000 A 
ATOM      7  C   UNL     1       4.789   5.413  19.061  0.00  0.00    +0.000 A 
ENDROOT
BRANCH   6   8
ATOM      8  C   UNL     1       2.535   5.977  19.870  0.00  0.00    +0.000 C 
ATOM      9  O   UNL     1       1.970   5.485  20.844  0.00  0.00    +0.000 OA
ATOM     10  N   UNL     1       2.359   7.269  19.403  0.00  0.00    +0.000 N 
ATOM     11  H   UNL     1       2.801   7.524  18.528  0.00  0.00    +0.000 HD
BRANCH  10  12
ATOM     12  C   UNL     1       1.544   8.257  20.008  0.00  0.00    +0.000 A 
ATOM     13  C   UNL     1       1.092   8.177  21.330  0.00  0.00    +0.000 A 
ATOM     14  C   UNL     1       0.263   9.163  21.870  0.00  0.00    +0.000 A 
ATOM     15  C   UNL     1      -0.128  10.248  21.092  0.00  0.00    +0.000 A 
ATOM     16  C   UNL     1       0.330  10.353  19.780  0.00  0.00    +0.000 A 
ATOM     17  C   UNL     1       1.174   9.371  19.245  0.00  0.00    +0.000 A 
ENDBRANCH  10  12
ENDBRANCH   6   8
BRANCH   1  18
ATOM     18  S   UNL     1       7.395   5.198  18.180  0.00  0.00    +0.000 S 
ATOM     19  O   UNL     1       8.154   4.060  17.712  0.00  0.00    +0.000 OA
ATOM     20  O   UNL     1       7.732   5.863  19.426  0.00  0.00    +0.000 OA
BRANCH  18  21
ATOM     21  N   UNL     1       7.376   6.395  16.942  0.00  0.00    +0.000 NA
BRANCH  21  23
ATOM     22  C   UNL     1       5.327   6.560  15.482  0.00  0.00    +0.000 C 
ATOM     23  C   UNL     1       6.709   5.958  15.677  0.00  0.00    +0.000 C 
ENDBRANCH  21  23
BRANCH  21  24
ATOM     24  C   UNL     1       6.968   7.751  17.436  0.00  0.00    +0.000 C 
ATOM     25  C   UNL     1       8.143   8.666  17.745  0.00  0.00    +0.000 C 
ENDBRANCH  21  24
ENDBRANCH  18  21
ENDBRANCH   1  18
TORSDOF 6
ENDMDL
MODEL 3
REMARK VINA RESULT:      -7.3      1.768      2.460
REMARK  Name = 
REMARK  8 active torsions:
REMARK  status: ('A' for Active; 'I' for Inactive)
REMARK    1  A    between atoms: C_1  and  C_2
REMARK    2  A    between atoms: C_2  and  N_3
REMARK    3  A    between atoms: N_3  and  C_4
REMARK    4  A    between atoms: N_3  and  S_6
REMARK    5  A    between atoms: C_4  and  C_5
REMARK    6  A    between atoms: S_6  and  C_9
REMARK    7  A    between atoms: C_14  and  C_15
REMARK    8  A    between atoms: N_17  and  C_18
REMARK                            x       y       z     vdW  Elec       q    Type
REMARK                         _______ _______ _______ _____ _____    ______ ____
ROOT
ATOM      1  C   UNL     1       5.018   4.972  17.254  0.00  0.00    +0.000 A 
ATOM      2  C   UNL     1       4.519   3.760  16.776  0.00  0.00    +0.000 A 
ATOM      3  C   UNL     1       3.311   3.268  17.278  0.00  0.00    +0.000 A 
ATOM      4  C   UNL     1       2.591   3.984  18.249  0.00  0.00    +0.000 A 
ATOM      5 CL   UNL     1       1.085   3.302  18.749  0.00  0.00    +0.000 Cl
ATOM      6  C   UNL     1       3.085   5.206  18.723  0.00  0.00    +0.000 A 
ATOM      7  C   UNL     1       4.309   5.696  18.213  0.00  0.00    +0.000 A 
ENDROOT
BRANCH   6   8
ATOM      8  C   UNL     1       2.367   6.111  19.666  0.00  0.00    +0.000 C 
ATOM      9  O   UNL     1       1.954   5.588  20.700  0.00  0.00    +0.000 OA
ATOM     10  N   UNL     1       2.159   7.428  19.289  0.00  0.00    +0.000 N 
ATOM     11  H   UNL     1       2.460   7.711  18.366  0.00  0.00    +0.000 HD
BRANCH  10  12
ATOM     12  C   UNL     1       1.487   8.407  20.063  0.00  0.00    +0.000 A 
ATOM     13  C   UNL     1       1.220   8.258  21.428  0.00  0.00    +0.000 A 
ATOM     14  C   UNL     1       0.526   9.240  22.138  0.00  0.00    +0.000 A 
ATOM     15  C   UNL     1       0.087  10.390  21.490  0.00  0.00    +0.000 A 
ATOM     16  C   UNL     1       0.362  10.563  20.135  0.00  0.00    +0.000 A 
ATOM     17  C   UNL     1       1.072   9.583  19.428  0.00  0.00    +0.000 A 
ENDBRANCH  10  12
ENDBRANCH   6   8
BRANCH   1  18
ATOM     18  S   UNL     1       6.511   5.653  16.553  0.00  0.00    +0.000 S 
ATOM     19  O   UNL     1       6.120   6.410  15.383  0.00  0.00    +0.000 OA
ATOM     20  O   UNL     1       7.480   4.577  16.460  0.00  0.00    +0.000 OA
BRANCH  18  21
ATOM     21  N   UNL     1       7.068   6.752  17.757  0.00  0.00    +0.000 NA
BRANCH  21  23
ATOM     22  C   UNL     1       7.591   5.462  19.860  0.00  0.00    +0.000 C 
ATOM     23  C   UNL     1       8.135   6.198  18.645  0.00  0.00    +0.000 C 
ENDBRANCH  21  23
BRANCH  21  24
ATOM     24  C   UNL     1       7.342   8.126  17.222  0.00  0.00    +0.000 C 
ATOM     25  C   UNL     1       8.275   8.947  18.099  0.00  0.00    +0.000 C 
ENDBRANCH  21  24
ENDBRANCH  18  21
ENDBRANCH   1  18
TORSDOF 6
ENDMDL
MODEL 4
REMARK VINA RESULT:      -7.3      1.992      2.520
REMARK  Name = 
REMARK  8 active torsions:
REMARK  status: ('A' for Active; 'I' for Inactive)
REMARK    1  A    between atoms: C_1  and  C_2
REMARK    2  A    between atoms: C_2  and  N_3
REMARK    3  A    between atoms: N_3  and  C_4
REMARK    4  A    between atoms: N_3  and  S_6
REMARK    5  A    between atoms: C_4  and  C_5
REMARK    6  A    between atoms: S_6  and  C_9
REMARK    7  A    between atoms: C_14  and  C_15
REMARK    8  A    between atoms: N_17  and  C_18
REMARK                            x       y       z     vdW  Elec       q    Type
REMARK                         _______ _______ _______ _____ _____    ______ ____
ROOT
ATOM      1  C   UNL     1       4.500   4.964  16.953  0.00  0.00    +0.000 A 
ATOM      2  C   UNL     1       4.069   3.665  16.678  0.00  0.00    +0.000 A 
ATOM      3  C   UNL     1       3.016   3.120  17.418  0.00  0.00    +0.000 A 
ATOM      4  C   UNL     1       2.383   3.867  18.426  0.00  0.00    +0.000 A 
ATOM      5 CL   UNL     1       1.059   3.105  19.231  0.00  0.00    +0.000 Cl
ATOM      6  C   UNL     1       2.808   5.174  18.697  0.00  0.00    +0.000 A 
ATOM      7  C   UNL     1       3.875   5.717  17.947  0.00  0.00    +0.000 A 
ENDROOT
BRANCH   6   8
ATOM      8  C   UNL     1       2.152   6.104  19.660  0.00  0.00    +0.000 C 
ATOM      9  O   UNL     1       1.664   5.582  20.661  0.00  0.00    +0.000 OA
ATOM     10  N   UNL     1       2.079   7.449  19.334  0.00  0.00    +0.000 N 
ATOM     11  H   UNL     1       2.430   7.739  18.430  0.00  0.00    +0.000 HD
BRANCH  10  12
ATOM     12  C   UNL     1       1.480   8.455  20.132  0.00  0.00    +0.000 A 
ATOM     13  C   UNL     1       1.398   8.384  21.527  0.00  0.00    +0.000 A 
ATOM     14  C   UNL     1       0.769   9.389  22.264  0.00  0.00    +0.000 A 
ATOM     15  C   UNL     1       0.211  10.485  21.615  0.00  0.00    +0.000 A 
ATOM     16  C   UNL     1       0.302  10.582  20.227  0.00  0.00    +0.000 A 
ATOM     17  C   UNL     1       0.947   9.580  19.491  0.00  0.00    +0.000 A 
ENDBRANCH  10  12
ENDBRANCH   6   8
BRANCH   1  18
ATOM     18  S   UNL     1       5.780   5.702  15.951  0.00  0.00    +0.000 S 
ATOM     19  O   UNL     1       5.225   6.909  15.381  0.00  0.00    +0.000 OA
ATOM     20  O   UNL     1       6.331   4.657  15.108  0.00  0.00    +0.000 OA
BRANCH  18  21
ATOM     21  N   UNL     1       6.994   6.140  17.093  0.00  0.00    +0.000 NA
BRANCH  21  23
ATOM     22  C   UNL     1       8.044   8.385  17.560  0.00  0.00    +0.000 C 
ATOM     23  C   UNL     1       6.814   7.500  17.686  0.00  0.00    +0.000 C 
ENDBRANCH  21  23
BRANCH  21  24
ATOM     24  C   UNL     1       7.295   5.054  18.082  0.00  0.00    +0.000 C 
ATOM     25  C   UNL     1       7.707   5.573  19.451  0.00  0.00    +0.000 C 
ENDBRANCH  21  24
ENDBRANCH  18  21
ENDBRANCH   1  18
TORSDOF 6
ENDMDL
MODEL 5
REMARK VINA RESULT:      -7.2      2.404      2.783
REMARK  Name = 
REMARK  8 active torsions:
REMARK  status: ('A' for Active; 'I' for Inactive)
REMARK    1  A    between atoms: C_1  and  C_2
REMARK    2  A    between atoms: C_2  and  N_3
REMARK    3  A    between atoms: N_3  and  C_4
REMARK    4  A    between atoms: N_3  and  S_6
REMARK    5  A    between atoms: C_4  and  C_5
REMARK    6  A    between atoms: S_6  and  C_9
REMARK    7  A    between atoms: C_14  and  C_15
REMARK    8  A    between atoms: N_17  and  C_18
REMARK                            x       y       z     vdW  Elec       q    Type
REMARK                         _______ _______ _______ _____ _____    ______ ____
ROOT
ATOM      1  C   UNL     1       4.385   5.456  17.354  0.00  0.00    +0.000 A 
ATOM      2  C   UNL     1       3.962   4.189  17.757  0.00  0.00    +0.000 A 
ATOM      3  C   UNL     1       2.919   4.075  18.680  0.00  0.00    +0.000 A 
ATOM      4  C   UNL     1       2.289   5.218  19.199  0.00  0.00    +0.000 A 
ATOM      5 CL   UNL     1       0.977   4.946  20.289  0.00  0.00    +0.000 Cl
ATOM      6  C   UNL     1       2.706   6.491  18.789  0.00  0.00    +0.000 A 
ATOM      7  C   UNL     1       3.763   6.599  17.857  0.00  0.00    +0.000 A 
ENDROOT
BRANCH   6   8
ATOM      8  C   UNL     1       2.050   7.772  19.178  0.00  0.00    +0.000 C 
ATOM      9  O   UNL     1       1.865   7.934  20.383  0.00  0.00    +0.000 OA
ATOM     10  N   UNL     1       1.644   8.637  18.176  0.00  0.00    +0.000 N 
ATOM     11  H   UNL     1       1.762   8.342  17.215  0.00  0.00    +0.000 HD
BRANCH  10  12
ATOM     12  C   UNL     1       0.998   9.883  18.378  0.00  0.00    +0.000 A 
ATOM     13  C   UNL     1      -0.392  10.030  18.421  0.00  0.00    +0.000 A 
ATOM     14  C   UNL     1      -0.979  11.286  18.592  0.00  0.00    +0.000 A 
ATOM     15  C   UNL     1      -0.180  12.417  18.721  0.00  0.00    +0.000 A 
ATOM     16  C   UNL     1       1.208  12.285  18.701  0.00  0.00    +0.000 A 
ATOM     17  C   UNL     1       1.794  11.022  18.545  0.00  0.00    +0.000 A 
ENDBRANCH  10  12
ENDBRANCH   6   8
BRANCH   1  18
ATOM     18  S   UNL     1       5.652   5.611  16.106  0.00  0.00    +0.000 S 
ATOM     19  O   UNL     1       5.209   6.631  15.182  0.00  0.00    +0.000 OA
ATOM     20  O   UNL     1       5.979   4.274  15.648  0.00  0.00    +0.000 OA
BRANCH  18  21
ATOM     21  N   UNL     1       7.014   6.210  16.974  0.00  0.00    +0.000 NA
BRANCH  21  23
ATOM     22  C   UNL     1       8.148   8.358  17.653  0.00  0.00    +0.000 C 
ATOM     23  C   UNL     1       6.841   7.595  17.508  0.00  0.00    +0.000 C 
ENDBRANCH  21  23
BRANCH  21  24
ATOM     24  C   UNL     1       7.572   5.220  17.954  0.00  0.00    +0.000 C 
ATOM     25  C   UNL     1       7.231   5.537  19.402  0.00  0.00    +0.000 C 
ENDBRANCH  21  24
ENDBRANCH  18  21
ENDBRANCH   1  18
TORSDOF 6
ENDMDL
MODEL 6
REMARK VINA RESULT:      -7.1      1.852      2.354
REMARK  Name = 
REMARK  8 active torsions:
REMARK  status: ('A' for Active; 'I' for Inactive)
REMARK    1  A    between atoms: C_1  and  C_2
REMARK    2  A    between atoms: C_2  and  N_3
REMARK    3  A    between atoms: N_3  and  C_4
REMARK    4  A    between atoms: N_3  and  S_6
REMARK    5  A    between atoms: C_4  and  C_5
REMARK    6  A    between atoms: S_6  and  C_9
REMARK    7  A    between atoms: C_14  and  C_15
REMARK    8  A    between atoms: N_17  and  C_18
REMARK                            x       y       z     vdW  Elec       q    Type
REMARK                         _______ _______ _______ _____ _____    ______ ____
ROOT
ATOM      1  C   UNL     1       4.258   5.675  17.270  0.00  0.00    +0.000 A 
ATOM      2  C   UNL     1       4.037   4.376  17.729  0.00  0.00    +0.000 A 
ATOM      3  C   UNL     1       3.136   4.162  18.776  0.00  0.00    +0.000 A 
ATOM      4  C   UNL     1       2.446   5.236  19.362  0.00  0.00    +0.000 A 
ATOM      5 CL   UNL     1       1.318   4.837  20.608  0.00  0.00    +0.000 Cl
ATOM      6  C   UNL     1       2.659   6.540  18.896  0.00  0.00    +0.000 A 
ATOM      7  C   UNL     1       3.573   6.750  17.839  0.00  0.00    +0.000 A 
ENDROOT
BRANCH   6   8
ATOM      8  C   UNL     1       1.912   7.745  19.357  0.00  0.00    +0.000 C 
ATOM      9  O   UNL     1       1.664   8.584  18.493  0.00  0.00    +0.000 OA
ATOM     10  N   UNL     1       1.618   7.865  20.705  0.00  0.00    +0.000 N 
ATOM     11  H   UNL     1       1.966   7.152  21.333  0.00  0.00    +0.000 HD
BRANCH  10  12
ATOM     12  C   UNL     1       0.928   8.950  21.302  0.00  0.00    +0.000 A 
ATOM     13  C   UNL     1       0.163   8.827  22.467  0.00  0.00    +0.000 A 
ATOM     14  C   UNL     1      -0.523   9.922  22.997  0.00  0.00    +0.000 A 
ATOM     15  C   UNL     1      -0.453  11.160  22.368  0.00  0.00    +0.000 A 
ATOM     16  C   UNL     1       0.322  11.304  21.218  0.00  0.00    +0.000 A 
ATOM     17  C   UNL     1       1.021  10.208  20.696  0.00  0.00    +0.000 A 
ENDBRANCH  10  12
ENDBRANCH   6   8
BRANCH   1  18
ATOM     18  S   UNL     1       5.335   5.949  15.873  0.00  0.00    +0.000 S 
ATOM     19  O   UNL     1       4.949   7.213  15.286  0.00  0.00    +0.000 OA
ATOM     20  O   UNL     1       5.349   4.730  15.086  0.00  0.00    +0.000 OA
BRANCH  18  21
ATOM     21  N   UNL     1       6.894   6.126  16.584  0.00  0.00    +0.000 NA
BRANCH  21  23
ATOM     22  C   UNL     1       8.074   8.152  17.511  0.00  0.00    +0.000 C 
ATOM     23  C   UNL     1       6.956   7.136  17.683  0.00  0.00    +0.000 C 
ENDBRANCH  21  23
BRANCH  21  24
ATOM     24  C   UNL     1       7.555   4.815  16.891  0.00  0.00    +0.000 C 
ATOM     25  C   UNL     1       7.867   4.621  18.367  0.00  0.00    +0.000 C 
ENDBRANCH  21  24
ENDBRANCH  18  21
ENDBRANCH   1  18
TORSDOF 6
ENDMDL
MODEL 7
REMARK VINA RESULT:      -7.1      1.280      1.936
REMARK  Name = 
REMARK  8 active torsions:
REMARK  status: ('A' for Active; 'I' for Inactive)
REMARK    1  A    between atoms: C_1  and  C_2
REMARK    2  A    between atoms: C_2  and  N_3
REMARK    3  A    between atoms: N_3  and  C_4
REMARK    4  A    between atoms: N_3  and  S_6
REMARK    5  A    between atoms: C_4  and  C_5
REMARK    6  A    between atoms: S_6  and  C_9
REMARK    7  A    between atoms: C_14  and  C_15
REMARK    8  A    between atoms: N_17  and  C_18
REMARK                            x       y       z     vdW  Elec       q    Type
REMARK                         _______ _______ _______ _____ _____    ______ ____
ROOT
ATOM      1  C   UNL     1       5.413   4.640  18.480  0.00  0.00    +0.000 A 
ATOM      2  C   UNL     1       4.990   3.495  17.804  0.00  0.00    +0.000 A 
ATOM      3  C   UNL     1       3.645   3.120  17.863  0.00  0.00    +0.000 A 
ATOM      4  C   UNL     1       2.716   3.886  18.586  0.00  0.00    +0.000 A 
ATOM      5 CL   UNL     1       1.074   3.352  18.537  0.00  0.00    +0.000 Cl
ATOM      6  C   UNL     1       3.136   5.042  19.257  0.00  0.00    +0.000 A 
ATOM      7  C   UNL     1       4.498   5.413  19.196  0.00  0.00    +0.000 A 
ENDROOT
BRANCH   6   8
ATOM      8  C   UNL     1       2.235   5.996  19.964  0.00  0.00    +0.000 C 
ATOM      9  O   UNL     1       1.434   5.494  20.751  0.00  0.00    +0.000 OA
ATOM     10  N   UNL     1       2.313   7.341  19.641  0.00  0.00    +0.000 N 
ATOM     11  H   UNL     1       2.945   7.617  18.900  0.00  0.00    +0.000 HD
BRANCH  10  12
ATOM     12  C   UNL     1       1.522   8.370  20.211  0.00  0.00    +0.000 A 
ATOM     13  C   UNL     1       0.901   9.370  19.455  0.00  0.00    +0.000 A 
ATOM     14  C   UNL     1       0.156  10.380  20.068  0.00  0.00    +0.000 A 
ATOM     15  C   UNL     1       0.022  10.404  21.452  0.00  0.00    +0.000 A 
ATOM     16  C   UNL     1       0.617   9.404  22.219  0.00  0.00    +0.000 A 
ATOM     17  C   UNL     1       1.351   8.383  21.600  0.00  0.00    +0.000 A 
ENDBRANCH  10  12
ENDBRANCH   6   8
BRANCH   1  18
ATOM     18  S   UNL     1       7.109   5.178  18.334  0.00  0.00    +0.000 S 
ATOM     19  O   UNL     1       7.880   4.029  17.916  0.00  0.00    +0.000 OA
ATOM     20  O   UNL     1       7.441   5.905  19.545  0.00  0.00    +0.000 OA
BRANCH  18  21
ATOM     21  N   UNL     1       7.070   6.315  17.041  0.00  0.00    +0.000 NA
BRANCH  21  23
ATOM     22  C   UNL     1       6.980   4.961  14.915  0.00  0.00    +0.000 C 
ATOM     23  C   UNL     1       6.244   5.886  15.872  0.00  0.00    +0.000 C 
ENDBRANCH  21  23
BRANCH  21  24
ATOM     24  C   UNL     1       6.834   7.723  17.499  0.00  0.00    +0.000 C 
ATOM     25  C   UNL     1       8.112   8.525  17.692  0.00  0.00    +0.000 C 
ENDBRANCH  21  24
ENDBRANCH  18  21
ENDBRANCH   1  18
TORSDOF 6
ENDMDL
MODEL 8
REMARK VINA RESULT:      -7.0      1.755      2.290
REMARK  Name = 
REMARK  8 active torsions:
REMARK  status: ('A' for Active; 'I' for Inactive)
REMARK    1  A    between atoms: C_1  and  C_2
REMARK    2  A    between atoms: C_2  and  N_3
REMARK    3  A    between atoms: N_3  and  C_4
REMARK    4  A    between atoms: N_3  and  S_6
REMARK    5  A    between atoms: C_4  and  C_5
REMARK    6  A    between atoms: S_6  and  C_9
REMARK    7  A    between atoms: C_14  and  C_15
REMARK    8  A    between atoms: N_17  and  C_18
REMARK                            x       y       z     vdW  Elec       q    Type
REMARK                         _______ _______ _______ _____ _____    ______ ____
ROOT
ATOM      1  C   UNL     1       4.708   4.529  18.066  0.00  0.00    +0.000 A 
ATOM      2  C   UNL     1       4.866   3.234  18.560  0.00  0.00    +0.000 A 
ATOM      3  C   UNL     1       4.117   2.825  19.667  0.00  0.00    +0.000 A 
ATOM      4  C   UNL     1       3.204   3.698  20.280  0.00  0.00    +0.000 A 
ATOM      5 CL   UNL     1       2.297   3.058  21.604  0.00  0.00    +0.000 Cl
ATOM      6  C   UNL     1       3.036   4.996  19.780  0.00  0.00    +0.000 A 
ATOM      7  C   UNL     1       3.799   5.404  18.662  0.00  0.00    +0.000 A 
ENDROOT
BRANCH   6   8
ATOM      8  C   UNL     1       2.026   5.977  20.269  0.00  0.00    +0.000 C 
ATOM      9  O   UNL     1       0.964   5.501  20.666  0.00  0.00    +0.000 OA
ATOM     10  N   UNL     1       2.320   7.328  20.179  0.00  0.00    +0.000 N 
ATOM     11  H   UNL     1       3.189   7.598  19.737  0.00  0.00    +0.000 HD
BRANCH  10  12
ATOM     12  C   UNL     1       1.466   8.383  20.587  0.00  0.00    +0.000 A 
ATOM     13  C   UNL     1       1.141   8.637  21.924  0.00  0.00    +0.000 A 
ATOM     14  C   UNL     1       0.269   9.671  22.271  0.00  0.00    +0.000 A 
ATOM     15  C   UNL     1      -0.294  10.469  21.281  0.00  0.00    +0.000 A 
ATOM     16  C   UNL     1       0.034  10.243  19.945  0.00  0.00    +0.000 A 
ATOM     17  C   UNL     1       0.922   9.215  19.601  0.00  0.00    +0.000 A 
ENDBRANCH  10  12
ENDBRANCH   6   8
BRANCH   1  18
ATOM     18  S   UNL     1       5.590   5.031  16.597  0.00  0.00    +0.000 S 
ATOM     19  O   UNL     1       4.747   5.980  15.904  0.00  0.00    +0.000 OA
ATOM     20  O   UNL     1       6.062   3.827  15.939  0.00  0.00    +0.000 OA
BRANCH  18  21
ATOM     21  N   UNL     1       6.968   5.863  17.209  0.00  0.00    +0.000 NA
BRANCH  21  23
ATOM     22  C   UNL     1       7.929   8.170  17.548  0.00  0.00    +0.000 C 
ATOM     23  C   UNL     1       6.701   7.275  17.617  0.00  0.00    +0.000 C 
ENDBRANCH  21  23
BRANCH  21  24
ATOM     24  C   UNL     1       7.754   5.056  18.200  0.00  0.00    +0.000 C 
ATOM     25  C   UNL     1       7.673   5.590  19.621  0.00  0.00    +0.000 C 
ENDBRANCH  21  24
ENDBRANCH  18  21
ENDBRANCH   1  18
TORSDOF 6
ENDMDL
MODEL 9
REMARK VINA RESULT:      -7.0      1.225      1.304
REMARK  Name = 
REMARK  8 active torsions:
REMARK  status: ('A' for Active; 'I' for Inactive)
REMARK    1  A    between atoms: C_1  and  C_2
REMARK    2  A    between atoms: C_2  and  N_3
REMARK    3  A    between atoms: N_3  and  C_4
REMARK    4  A    between atoms: N_3  and  S_6
REMARK    5  A    between atoms: C_4  and  C_5
REMARK    6  A    between atoms: S_6  and  C_9
REMARK    7  A    between atoms: C_14  and  C_15
REMARK    8  A    between atoms: N_17  and  C_18
REMARK                            x       y       z     vdW  Elec       q    Type
REMARK                         _______ _______ _______ _____ _____    ______ ____
ROOT
ATOM      1  C   UNL     1       5.486   4.657  18.394  0.00  0.00    +0.000 A 
ATOM      2  C   UNL     1       5.061   3.557  17.649  0.00  0.00    +0.000 A 
ATOM      3  C   UNL     1       3.710   3.200  17.660  0.00  0.00    +0.000 A 
ATOM      4  C   UNL     1       2.777   3.940  18.404  0.00  0.00    +0.000 A 
ATOM      5 CL   UNL     1       1.129   3.434  18.293  0.00  0.00    +0.000 Cl
ATOM      6  C   UNL     1       3.199   5.051  19.145  0.00  0.00    +0.000 A 
ATOM      7  C   UNL     1       4.567   5.405  19.132  0.00  0.00    +0.000 A 
ENDROOT
BRANCH   6   8
ATOM      8  C   UNL     1       2.296   5.979  19.885  0.00  0.00    +0.000 C 
ATOM      9  O   UNL     1       1.536   5.454  20.696  0.00  0.00    +0.000 OA
ATOM     10  N   UNL     1       2.328   7.327  19.563  0.00  0.00    +0.000 N 
ATOM     11  H   UNL     1       2.927   7.621  18.803  0.00  0.00    +0.000 HD
BRANCH  10  12
ATOM     12  C   UNL     1       1.528   8.332  20.161  0.00  0.00    +0.000 A 
ATOM     13  C   UNL     1       1.008   9.422  19.455  0.00  0.00    +0.000 A 
ATOM     14  C   UNL     1       0.251  10.404  20.099  0.00  0.00    +0.000 A 
ATOM     15  C   UNL     1       0.003  10.309  21.464  0.00  0.00    +0.000 A 
ATOM     16  C   UNL     1       0.498   9.218  22.179  0.00  0.00    +0.000 A 
ATOM     17  C   UNL     1       1.244   8.227  21.528  0.00  0.00    +0.000 A 
ENDBRANCH  10  12
ENDBRANCH   6   8
BRANCH   1  18
ATOM     18  S   UNL     1       7.191   5.177  18.312  0.00  0.00    +0.000 S 
ATOM     19  O   UNL     1       7.813   4.414  17.252  0.00  0.00    +0.000 OA
ATOM     20  O   UNL     1       7.720   5.153  19.663  0.00  0.00    +0.000 OA
BRANCH  18  21
ATOM     21  N   UNL     1       7.097   6.825  17.820  0.00  0.00    +0.000 NA
BRANCH  21  23
ATOM     22  C   UNL     1       8.161   9.111  17.826  0.00  0.00    +0.000 C 
ATOM     23  C   UNL     1       8.176   7.695  18.380  0.00  0.00    +0.000 C 
ENDBRANCH  21  23
BRANCH  21  24
ATOM     24  C   UNL     1       6.850   6.990  16.350  0.00  0.00    +0.000 C 
ATOM     25  C   UNL     1       5.391   6.822  15.954  0.00  0.00    +0.000 C 
ENDBRANCH  21  24
ENDBRANCH  18  21
ENDBRANCH   1  18
TORSDOF 6
ENDMDL
