MODEL 1
REMARK VINA RESULT:      -8.2      0.000      0.000
REMARK  Name = 
REMARK  8 active torsions:
REMARK  status: ('A' for Active; 'I' for Inactive)
REMARK    1  A    between atoms: C_1  and  C_2
REMARK    2  A    between atoms: C_2  and  C_3
REMARK    3  A    between atoms: C_2  and  C_4
REMARK    4  A    between atoms: C_5  and  C_6
REMARK    5  A    between atoms: CA_17  and  C_18
REMARK    6  A    between atoms: C_18  and  OXT_20
REMARK    7  A    between atoms: C_21  and  C_22
REMARK    8  A    between atoms: C_28  and  C_29
REMARK                            x       y       z     vdW  Elec       q    Type
REMARK                         _______ _______ _______ _____ _____    ______ ____
ROOT
ATOM      1  C   UNL     1       1.031   9.050  19.731  0.00  0.00    +0.000 A 
ATOM      2  C   UNL     1       1.401   7.846  20.360  0.00  0.00    +0.000 A 
ATOM      3  N   UNL     1       1.115   8.149  21.678  0.00  0.00    +0.000 N 
ATOM      4  CA  UNL     1       0.467   9.388  21.924  0.00  0.00    +0.000 A 
ATOM      5  C   UNL     1       0.403  10.064  20.714  0.00  0.00    +0.000 A 
ATOM      6  H   UNL     1       1.327   7.519  22.455  0.00  0.00    +0.000 HD
ENDROOT
BRANCH   2   7
ATOM      7  C   UNL     1       2.097   6.498  19.992  0.00  0.00    +0.000 A 
ATOM      8  C   UNL     1       1.544   5.343  20.607  0.00  0.00    +0.000 A 
ATOM      9  C   UNL     1       2.185   4.110  20.709  0.00  0.00    +0.000 A 
ATOM     10  F   UNL     1       2.650   3.841  21.947  0.00  0.00    +0.000 F 
ATOM     11  C   UNL     1       3.067   3.747  19.729  0.00  0.00    +0.000 A 
ATOM     12  C   UNL     1       3.727   4.830  19.139  0.00  0.00    +0.000 A 
ATOM     13  N   UNL     1       4.841   4.756  18.338  0.00  0.00    +0.000 N 
ATOM     14  C   UNL     1       4.737   5.723  17.405  0.00  0.00    +0.000 A 
ATOM     15  C   UNL     1       3.810   6.619  17.899  0.00  0.00    +0.000 A 
ATOM     16  C   UNL     1       3.216   6.152  19.108  0.00  0.00    +0.000 A 
ATOM     17  H   UNL     1       5.464   3.933  18.303  0.00  0.00    +0.000 HD
ENDBRANCH   2   7
BRANCH   5  18
ATOM     18  C   UNL     1       0.113  11.583  20.460  0.00  0.00    +0.000 A 
ATOM     19  C   UNL     1      -1.202  11.949  20.791  0.00  0.00    +0.000 A 
ATOM     20  C   UNL     1      -1.434  13.149  21.440  0.00  0.00    +0.000 A 
ATOM     21  N   UNL     1      -0.715  14.235  21.256  0.00  0.00    +0.000 NA
ATOM     22  C   UNL     1       0.393  13.992  20.560  0.00  0.00    +0.000 A 
ATOM     23  N   UNL     1       1.172  15.046  20.271  0.00  0.00    +0.000 N 
ATOM     24  C   UNL     1       2.392  14.632  19.847  0.00  0.00    +0.000 A 
ATOM     25  C   UNL     1       2.260  13.239  19.640  0.00  0.00    +0.000 A 
ATOM     26  C   UNL     1       0.959  12.761  20.178  0.00  0.00    +0.000 A 
ATOM     27  H   UNL     1       0.911  15.984  20.532  0.00  0.00    +0.000 HD
BRANCH  24  28
ATOM     28  C   UNL     1       3.474  15.691  19.771  0.00  0.00    +0.000 A 
ATOM     29  C   UNL     1       3.491  16.860  20.640  0.00  0.00    +0.000 A 
ATOM     30  C   UNL     1       4.642  17.622  20.525  0.00  0.00    +0.000 A 
ATOM     31  S   UNL     1       5.651  17.016  19.301  0.00  0.00    +0.000 S 
ATOM     32  C   UNL     1       4.579  15.708  18.954  0.00  0.00    +0.000 A 
ENDBRANCH  24  28
ENDBRANCH   5  18
BRANCH   1  34
ATOM     33  C   UNL     1      -0.235   9.657  17.733  0.00  0.00    +0.000 C 
ATOM     34  C   UNL     1       1.128   9.230  18.253  0.00  0.00    +0.000 C 
ATOM     35  C   UNL     1       2.358   9.992  17.788  0.00  0.00    +0.000 C 
ENDBRANCH   1  34
BRANCH   4  36
ATOM     36  C   UNL     1       0.061   9.594  23.292  0.00  0.00    +0.000 C 
ATOM     37  O   UNL     1       0.828   9.496  24.249  0.00  0.00    +0.000 OA
BRANCH  36  38
ATOM     38  OXT UNL     1      -1.210  10.028  23.457  0.00  0.00    +0.000 OA
ATOM     39  HXT UNL     1      -1.271  10.993  23.482  0.00  0.00    +0.000 HD
ENDBRANCH  36  38
ENDBRANCH   4  36
TORSDOF 6
ENDMDL
MODEL 2
REMARK VINA RESULT:      -8.1      2.778      4.355
REMARK  Name = 
REMARK  8 active torsions:
REMARK  status: ('A' for Active; 'I' for Inactive)
REMARK    1  A    between atoms: C_1  and  C_2
REMARK    2  A    between atoms: C_2  and  C_3
REMARK    3  A    between atoms: C_2  and  C_4
REMARK    4  A    between atoms: C_5  and  C_6
REMARK    5  A    between atoms: CA_17  and  C_18
REMARK    6  A    between atoms: C_18  and  OXT_20
REMARK    7  A    between atoms: C_21  and  C_22
REMARK    8  A    between atoms: C_28  and  C_29
REMARK                            x       y       z     vdW  Elec       q    Type
REMARK                         _______ _______ _______ _____ _____    ______ ____
ROOT
ATOM      1  C   UNL     1       1.034   9.097  19.758  0.00  0.00    +0.000 A 
ATOM      2  C   UNL     1       1.434   7.887  20.357  0.00  0.00    +0.000 A 
ATOM      3  N   UNL     1       1.173   8.165  21.686  0.00  0.00    +0.000 N 
ATOM      4  CA  UNL     1       0.514   9.390  21.967  0.00  0.00    +0.000 A 
ATOM      5  C   UNL     1       0.414  10.085  20.771  0.00  0.00    +0.000 A 
ATOM      6  H   UNL     1       1.410   7.524  22.448  0.00  0.00    +0.000 HD
ENDROOT
BRANCH   2   7
ATOM      7  C   UNL     1       2.139   6.555  19.952  0.00  0.00    +0.000 A 
ATOM      8  C   UNL     1       1.589   5.378  20.528  0.00  0.00    +0.000 A 
ATOM      9  C   UNL     1       2.236   4.146  20.594  0.00  0.00    +0.000 A 
ATOM     10  F   UNL     1       2.696   3.842  21.826  0.00  0.00    +0.000 F 
ATOM     11  C   UNL     1       3.126   3.819  19.609  0.00  0.00    +0.000 A 
ATOM     12  C   UNL     1       3.783   4.923  19.056  0.00  0.00    +0.000 A 
ATOM     13  N   UNL     1       4.901   4.880  18.259  0.00  0.00    +0.000 N 
ATOM     14  C   UNL     1       4.797   5.876  17.356  0.00  0.00    +0.000 A 
ATOM     15  C   UNL     1       3.862   6.751  17.872  0.00  0.00    +0.000 A 
ATOM     16  C   UNL     1       3.264   6.243  19.063  0.00  0.00    +0.000 A 
ATOM     17  H   UNL     1       5.529   4.062  18.202  0.00  0.00    +0.000 HD
ENDBRANCH   2   7
BRANCH   5  18
ATOM     18  C   UNL     1       0.099  11.604  20.549  0.00  0.00    +0.000 A 
ATOM     19  C   UNL     1       1.152  12.293  19.923  0.00  0.00    +0.000 A 
ATOM     20  C   UNL     1       0.868  13.227  18.942  0.00  0.00    +0.000 A 
ATOM     21  N   UNL     1      -0.208  13.982  18.934  0.00  0.00    +0.000 NA
ATOM     22  C   UNL     1      -1.102  13.590  19.839  0.00  0.00    +0.000 A 
ATOM     23  N   UNL     1      -2.217  14.330  19.950  0.00  0.00    +0.000 N 
ATOM     24  C   UNL     1      -3.159  13.662  20.662  0.00  0.00    +0.000 A 
ATOM     25  C   UNL     1      -2.486  12.550  21.218  0.00  0.00    +0.000 A 
ATOM     26  C   UNL     1      -1.126  12.426  20.629  0.00  0.00    +0.000 A 
ATOM     27  H   UNL     1      -2.354  15.165  19.404  0.00  0.00    +0.000 HD
BRANCH  24  28
ATOM     28  C   UNL     1      -4.564  14.230  20.618  0.00  0.00    +0.000 A 
ATOM     29  C   UNL     1      -5.727  13.424  20.272  0.00  0.00    +0.000 A 
ATOM     30  C   UNL     1      -6.932  14.085  20.444  0.00  0.00    +0.000 A 
ATOM     31  S   UNL     1      -6.680  15.699  20.904  0.00  0.00    +0.000 S 
ATOM     32  C   UNL     1      -4.964  15.510  20.922  0.00  0.00    +0.000 A 
ENDBRANCH  24  28
ENDBRANCH   5  18
BRANCH   1  34
ATOM     33  C   UNL     1      -0.272   9.761  17.804  0.00  0.00    +0.000 C 
ATOM     34  C   UNL     1       1.096   9.303  18.281  0.00  0.00    +0.000 C 
ATOM     35  C   UNL     1       2.326  10.054  17.798  0.00  0.00    +0.000 C 
ENDBRANCH   1  34
BRANCH   4  36
ATOM     36  C   UNL     1       0.136   9.568  23.348  0.00  0.00    +0.000 C 
ATOM     37  O   UNL     1       0.910   9.404  24.289  0.00  0.00    +0.000 OA
BRANCH  36  38
ATOM     38  OXT UNL     1      -1.113  10.052  23.545  0.00  0.00    +0.000 OA
ATOM     39  HXT UNL     1      -1.555   9.639  24.299  0.00  0.00    +0.000 HD
ENDBRANCH  36  38
ENDBRANCH   4  36
TORSDOF 6
ENDMDL
MODEL 3
REMARK VINA RESULT:      -8.1      1.234      1.877
REMARK  Name = 
REMARK  8 active torsions:
REMARK  status: ('A' for Active; 'I' for Inactive)
REMARK    1  A    between atoms: C_1  and  C_2
REMARK    2  A    between atoms: C_2  and  C_3
REMARK    3  A    between atoms: C_2  and  C_4
REMARK    4  A    between atoms: C_5  and  C_6
REMARK    5  A    between atoms: CA_17  and  C_18
REMARK    6  A    between atoms: C_18  and  OXT_20
REMARK    7  A    between atoms: C_21  and  C_22
REMARK    8  A    between atoms: C_28  and  C_29
REMARK                            x       y       z     vdW  Elec       q    Type
REMARK                         _______ _______ _______ _____ _____    ______ ____
ROOT
ATOM      1  C   UNL     1       1.204   9.039  19.597  0.00  0.00    +0.000 A 
ATOM      2  C   UNL     1       1.601   7.800  20.136  0.00  0.00    +0.000 A 
ATOM      3  N   UNL     1       1.372   8.025  21.481  0.00  0.00    +0.000 N 
ATOM      4  CA  UNL     1       0.736   9.244  21.828  0.00  0.00    +0.000 A 
ATOM      5  C   UNL     1       0.619   9.991  20.663  0.00  0.00    +0.000 A 
ATOM      6  H   UNL     1       1.617   7.349  22.209  0.00  0.00    +0.000 HD
ENDROOT
BRANCH   2   7
ATOM      7  C   UNL     1       2.280   6.478  19.660  0.00  0.00    +0.000 A 
ATOM      8  C   UNL     1       3.513   6.642  18.974  0.00  0.00    +0.000 A 
ATOM      9  C   UNL     1       4.115   5.673  18.174  0.00  0.00    +0.000 A 
ATOM     10  F   UNL     1       4.009   5.920  16.852  0.00  0.00    +0.000 F 
ATOM     11  C   UNL     1       3.915   4.355  18.477  0.00  0.00    +0.000 A 
ATOM     12  C   UNL     1       2.674   4.098  19.070  0.00  0.00    +0.000 A 
ATOM     13  N   UNL     1       2.098   2.861  19.230  0.00  0.00    +0.000 N 
ATOM     14  C   UNL     1       1.419   2.875  20.394  0.00  0.00    +0.000 A 
ATOM     15  C   UNL     1       1.236   4.208  20.703  0.00  0.00    +0.000 A 
ATOM     16  C   UNL     1       1.921   5.061  19.789  0.00  0.00    +0.000 A 
ATOM     17  H   UNL     1       2.387   2.025  18.697  0.00  0.00    +0.000 HD
ENDBRANCH   2   7
BRANCH   5  18
ATOM     18  C   UNL     1       0.319  11.522  20.513  0.00  0.00    +0.000 A 
ATOM     19  C   UNL     1      -0.951  11.878  20.995  0.00  0.00    +0.000 A 
ATOM     20  C   UNL     1      -1.103  13.047  21.721  0.00  0.00    +0.000 A 
ATOM     21  N   UNL     1      -0.397  14.137  21.515  0.00  0.00    +0.000 NA
ATOM     22  C   UNL     1       0.631  13.922  20.697  0.00  0.00    +0.000 A 
ATOM     23  N   UNL     1       1.386  14.985  20.378  0.00  0.00    +0.000 N 
ATOM     24  C   UNL     1       2.551  14.586  19.810  0.00  0.00    +0.000 A 
ATOM     25  C   UNL     1       2.386  13.205  19.554  0.00  0.00    +0.000 A 
ATOM     26  C   UNL     1       1.142  12.708  20.201  0.00  0.00    +0.000 A 
ATOM     27  H   UNL     1       1.162  15.911  20.709  0.00  0.00    +0.000 HD
BRANCH  24  28
ATOM     28  C   UNL     1       3.629  15.643  19.673  0.00  0.00    +0.000 A 
ATOM     29  C   UNL     1       3.734  16.781  20.577  0.00  0.00    +0.000 A 
ATOM     30  C   UNL     1       4.876  17.541  20.383  0.00  0.00    +0.000 A 
ATOM     31  S   UNL     1       5.765  16.975  19.052  0.00  0.00    +0.000 S 
ATOM     32  C   UNL     1       4.656  15.685  18.759  0.00  0.00    +0.000 A 
ENDBRANCH  24  28
ENDBRANCH   5  18
BRANCH   1  34
ATOM     33  C   UNL     1      -0.162   9.695  17.681  0.00  0.00    +0.000 C 
ATOM     34  C   UNL     1       1.238   9.307  18.129  0.00  0.00    +0.000 C 
ATOM     35  C   UNL     1       2.413  10.153  17.667  0.00  0.00    +0.000 C 
ENDBRANCH   1  34
BRANCH   4  36
ATOM     36  C   UNL     1       0.389   9.369  23.222  0.00  0.00    +0.000 C 
ATOM     37  O   UNL     1       1.220   9.519  24.116  0.00  0.00    +0.000 OA
BRANCH  36  38
ATOM     38  OXT UNL     1      -0.938   9.430  23.482  0.00  0.00    +0.000 OA
ATOM     39  HXT UNL     1      -1.466   8.960  22.823  0.00  0.00    +0.000 HD
ENDBRANCH  36  38
ENDBRANCH   4  36
TORSDOF 6
ENDMDL
MODEL 4
REMARK VINA RESULT:      -8.1      3.024      4.773
REMARK  Name = 
REMARK  8 active torsions:
REMARK  status: ('A' for Active; 'I' for Inactive)
REMARK    1  A    between atoms: C_1  and  C_2
REMARK    2  A    between atoms: C_2  and  C_3
REMARK    3  A    between atoms: C_2  and  C_4
REMARK    4  A    between atoms: C_5  and  C_6
REMARK    5  A    between atoms: CA_17  and  C_18
REMARK    6  A    between atoms: C_18  and  OXT_20
REMARK    7  A    between atoms: C_21  and  C_22
REMARK    8  A    between atoms: C_28  and  C_29
REMARK                            x       y       z     vdW  Elec       q    Type
REMARK                         _______ _______ _______ _____ _____    ______ ____
ROOT
ATOM      1  C   UNL     1       1.078   9.139  19.625  0.00  0.00    +0.000 A 
ATOM      2  C   UNL     1       1.539   7.921  20.160  0.00  0.00    +0.000 A 
ATOM      3  N   UNL     1       1.325   8.140  21.508  0.00  0.00    +0.000 N 
ATOM      4  CA  UNL     1       0.641   9.331  21.863  0.00  0.00    +0.000 A 
ATOM      5  C   UNL     1       0.471  10.068  20.699  0.00  0.00    +0.000 A 
ATOM      6  H   UNL     1       1.612   7.478  22.234  0.00  0.00    +0.000 HD
ENDROOT
BRANCH   2   7
ATOM      7  C   UNL     1       2.267   6.628  19.675  0.00  0.00    +0.000 A 
ATOM      8  C   UNL     1       3.497   6.842  18.998  0.00  0.00    +0.000 A 
ATOM      9  C   UNL     1       4.137   5.903  18.192  0.00  0.00    +0.000 A 
ATOM     10  F   UNL     1       4.028   6.158  16.871  0.00  0.00    +0.000 F 
ATOM     11  C   UNL     1       3.983   4.576  18.482  0.00  0.00    +0.000 A 
ATOM     12  C   UNL     1       2.749   4.269  19.066  0.00  0.00    +0.000 A 
ATOM     13  N   UNL     1       2.217   3.011  19.212  0.00  0.00    +0.000 N 
ATOM     14  C   UNL     1       1.532   2.990  20.373  0.00  0.00    +0.000 A 
ATOM     15  C   UNL     1       1.300   4.312  20.693  0.00  0.00    +0.000 A 
ATOM     16  C   UNL     1       1.959   5.198  19.790  0.00  0.00    +0.000 A 
ATOM     17  H   UNL     1       2.538   2.190  18.673  0.00  0.00    +0.000 HD
ENDBRANCH   2   7
BRANCH   5  18
ATOM     18  C   UNL     1       0.101  11.583  20.550  0.00  0.00    +0.000 A 
ATOM     19  C   UNL     1       1.132  12.341  19.968  0.00  0.00    +0.000 A 
ATOM     20  C   UNL     1       0.820  13.311  19.031  0.00  0.00    +0.000 A 
ATOM     21  N   UNL     1      -0.284  14.025  19.051  0.00  0.00    +0.000 NA
ATOM     22  C   UNL     1      -1.169  13.556  19.928  0.00  0.00    +0.000 A 
ATOM     23  N   UNL     1      -2.311  14.247  20.066  0.00  0.00    +0.000 N 
ATOM     24  C   UNL     1      -3.233  13.511  20.736  0.00  0.00    +0.000 A 
ATOM     25  C   UNL     1      -2.522  12.398  21.242  0.00  0.00    +0.000 A 
ATOM     26  C   UNL     1      -1.154  12.354  20.660  0.00  0.00    +0.000 A 
ATOM     27  H   UNL     1      -2.475  15.104  19.560  0.00  0.00    +0.000 HD
BRANCH  24  28
ATOM     28  C   UNL     1      -4.657  14.028  20.707  0.00  0.00    +0.000 A 
ATOM     29  C   UNL     1      -5.809  13.175  20.969  0.00  0.00    +0.000 A 
ATOM     30  C   UNL     1      -7.006  13.867  21.054  0.00  0.00    +0.000 A 
ATOM     31  S   UNL     1      -6.782  15.513  20.706  0.00  0.00    +0.000 S 
ATOM     32  C   UNL     1      -5.080  15.318  20.488  0.00  0.00    +0.000 A 
ENDBRANCH  24  28
ENDBRANCH   5  18
BRANCH   1  34
ATOM     33  C   UNL     1      -0.321   9.857  17.756  0.00  0.00    +0.000 C 
ATOM     34  C   UNL     1       1.074   9.403  18.155  0.00  0.00    +0.000 C 
ATOM     35  C   UNL     1       2.271  10.190  17.650  0.00  0.00    +0.000 C 
ENDBRANCH   1  34
BRANCH   4  36
ATOM     36  C   UNL     1       0.314   9.445  23.263  0.00  0.00    +0.000 C 
ATOM     37  O   UNL     1       1.158   9.432  24.159  0.00  0.00    +0.000 OA
BRANCH  36  38
ATOM     38  OXT UNL     1      -0.989   9.691  23.532  0.00  0.00    +0.000 OA
ATOM     39  HXT UNL     1      -1.108  10.201  24.345  0.00  0.00    +0.000 HD
ENDBRANCH  36  38
ENDBRANCH   4  36
TORSDOF 6
ENDMDL
MODEL 5
REMARK VINA RESULT:      -7.7      4.711      9.225
REMARK  Name = 
REMARK  8 active torsions:
REMARK  status: ('A' for Active; 'I' for Inactive)
REMARK    1  A    between atoms: C_1  and  C_2
REMARK    2  A    between atoms: C_2  and  C_3
REMARK    3  A    between atoms: C_2  and  C_4
REMARK    4  A    between atoms: C_5  and  C_6
REMARK    5  A    between atoms: CA_17  and  C_18
REMARK    6  A    between atoms: C_18  and  OXT_20
REMARK    7  A    between atoms: C_21  and  C_22
REMARK    8  A    between atoms: C_28  and  C_29
REMARK                            x       y       z     vdW  Elec       q    Type
REMARK                         _______ _______ _______ _____ _____    ______ ____
ROOT
ATOM      1  C   UNL     1      -2.314  12.576  20.716  0.00  0.00    +0.000 A 
ATOM      2  C   UNL     1      -3.685  12.832  20.913  0.00  0.00    +0.000 A 
ATOM      3  N   UNL     1      -4.184  12.511  19.664  0.00  0.00    +0.000 N 
ATOM      4  CA  UNL     1      -3.273  11.943  18.736  0.00  0.00    +0.000 A 
ATOM      5  C   UNL     1      -2.016  11.980  19.322  0.00  0.00    +0.000 A 
ATOM      6  H   UNL     1      -5.165  12.643  19.404  0.00  0.00    +0.000 HD
ENDROOT
BRANCH   2   7
ATOM      7  C   UNL     1      -4.618  13.444  22.004  0.00  0.00    +0.000 A 
ATOM      8  C   UNL     1      -5.922  12.883  22.072  0.00  0.00    +0.000 A 
ATOM      9  C   UNL     1      -7.013  13.476  22.703  0.00  0.00    +0.000 A 
ATOM     10  F   UNL     1      -7.911  14.008  21.848  0.00  0.00    +0.000 F 
ATOM     11  C   UNL     1      -6.787  14.277  23.788  0.00  0.00    +0.000 A 
ATOM     12  C   UNL     1      -5.557  14.944  23.747  0.00  0.00    +0.000 A 
ATOM     13  N   UNL     1      -5.185  15.999  24.544  0.00  0.00    +0.000 N 
ATOM     14  C   UNL     1      -3.866  15.876  24.794  0.00  0.00    +0.000 A 
ATOM     15  C   UNL     1      -3.381  15.022  23.824  0.00  0.00    +0.000 A 
ATOM     16  C   UNL     1      -4.429  14.488  23.018  0.00  0.00    +0.000 A 
ATOM     17  H   UNL     1      -5.857  16.583  25.067  0.00  0.00    +0.000 HD
ENDBRANCH   2   7
BRANCH   5  18
ATOM     18  C   UNL     1      -0.616  11.812  18.638  0.00  0.00    +0.000 A 
ATOM     19  C   UNL     1      -0.006  13.041  18.335  0.00  0.00    +0.000 A 
ATOM     20  C   UNL     1       1.351  13.201  18.552  0.00  0.00    +0.000 A 
ATOM     21  N   UNL     1       2.235  12.235  18.423  0.00  0.00    +0.000 NA
ATOM     22  C   UNL     1       1.660  11.042  18.291  0.00  0.00    +0.000 A 
ATOM     23  N   UNL     1       2.475   9.993  18.098  0.00  0.00    +0.000 N 
ATOM     24  C   UNL     1       1.804   8.830  18.291  0.00  0.00    +0.000 A 
ATOM     25  C   UNL     1       0.441   9.197  18.371  0.00  0.00    +0.000 A 
ATOM     26  C   UNL     1       0.310  10.677  18.450  0.00  0.00    +0.000 A 
ATOM     27  H   UNL     1       3.473  10.108  18.016  0.00  0.00    +0.000 HD
BRANCH  24  28
ATOM     28  C   UNL     1       2.649   7.577  18.406  0.00  0.00    +0.000 A 
ATOM     29  C   UNL     1       3.719   7.262  17.469  0.00  0.00    +0.000 A 
ATOM     30  C   UNL     1       4.474   6.161  17.837  0.00  0.00    +0.000 A 
ATOM     31  S   UNL     1       3.841   5.429  19.232  0.00  0.00    +0.000 S 
ATOM     32  C   UNL     1       2.587   6.606  19.378  0.00  0.00    +0.000 A 
ENDBRANCH  24  28
ENDBRANCH   5  18
BRANCH   1  34
ATOM     33  C   UNL     1      -0.628  11.416  22.047  0.00  0.00    +0.000 C 
ATOM     34  C   UNL     1      -1.315  12.750  21.810  0.00  0.00    +0.000 C 
ATOM     35  C   UNL     1      -0.459  14.001  21.693  0.00  0.00    +0.000 C 
ENDBRANCH   1  34
BRANCH   4  36
ATOM     36  C   UNL     1      -3.870  11.494  17.503  0.00  0.00    +0.000 C 
ATOM     37  O   UNL     1      -3.693  10.370  17.034  0.00  0.00    +0.000 OA
BRANCH  36  38
ATOM     38  OXT UNL     1      -4.750  12.356  16.941  0.00  0.00    +0.000 OA
ATOM     39  HXT UNL     1      -5.470  12.593  17.541  0.00  0.00    +0.000 HD
ENDBRANCH  36  38
ENDBRANCH   4  36
TORSDOF 6
ENDMDL
MODEL 6
REMARK VINA RESULT:      -7.5      4.789      9.318
REMARK  Name = 
REMARK  8 active torsions:
REMARK  status: ('A' for Active; 'I' for Inactive)
REMARK    1  A    between atoms: C_1  and  C_2
REMARK    2  A    between atoms: C_2  and  C_3
REMARK    3  A    between atoms: C_2  and  C_4
REMARK    4  A    between atoms: C_5  and  C_6
REMARK    5  A    between atoms: CA_17  and  C_18
REMARK    6  A    between atoms: C_18  and  OXT_20
REMARK    7  A    between atoms: C_21  and  C_22
REMARK    8  A    between atoms: C_28  and  C_29
REMARK                            x       y       z     vdW  Elec       q    Type
REMARK                         _______ _______ _______ _____ _____    ______ ____
ROOT
ATOM      1  C   UNL     1      -2.350  12.861  20.731  0.00  0.00    +0.000 A 
ATOM      2  C   UNL     1      -3.722  13.111  20.925  0.00  0.00    +0.000 A 
ATOM      3  N   UNL     1      -4.229  12.701  19.706  0.00  0.00    +0.000 N 
ATOM      4  CA  UNL     1      -3.319  12.085  18.808  0.00  0.00    +0.000 A 
ATOM      5  C   UNL     1      -2.056  12.177  19.377  0.00  0.00    +0.000 A 
ATOM      6  H   UNL     1      -5.214  12.803  19.447  0.00  0.00    +0.000 HD
ENDROOT
BRANCH   2   7
ATOM      7  C   UNL     1      -4.653  13.783  21.982  0.00  0.00    +0.000 A 
ATOM      8  C   UNL     1      -4.321  15.122  22.320  0.00  0.00    +0.000 A 
ATOM      9  C   UNL     1      -4.773  15.793  23.454  0.00  0.00    +0.000 A 
ATOM     10  F   UNL     1      -3.834  15.927  24.414  0.00  0.00    +0.000 F 
ATOM     11  C   UNL     1      -5.999  15.468  23.964  0.00  0.00    +0.000 A 
ATOM     12  C   UNL     1      -6.357  14.132  23.755  0.00  0.00    +0.000 A 
ATOM     13  N   UNL     1      -7.385  13.466  24.378  0.00  0.00    +0.000 N 
ATOM     14  C   UNL     1      -7.910  12.601  23.487  0.00  0.00    +0.000 A 
ATOM     15  C   UNL     1      -6.949  12.447  22.507  0.00  0.00    +0.000 A 
ATOM     16  C   UNL     1      -5.844  13.325  22.707  0.00  0.00    +0.000 A 
ATOM     17  H   UNL     1      -7.828  13.792  25.252  0.00  0.00    +0.000 HD
ENDBRANCH   2   7
BRANCH   5  18
ATOM     18  C   UNL     1      -0.661  11.982  18.691  0.00  0.00    +0.000 A 
ATOM     19  C   UNL     1      -0.040  13.199  18.364  0.00  0.00    +0.000 A 
ATOM     20  C   UNL     1       1.320  13.348  18.573  0.00  0.00    +0.000 A 
ATOM     21  N   UNL     1       2.194  12.371  18.459  0.00  0.00    +0.000 NA
ATOM     22  C   UNL     1       1.605  11.182  18.350  0.00  0.00    +0.000 A 
ATOM     23  N   UNL     1       2.408  10.121  18.173  0.00  0.00    +0.000 N 
ATOM     24  C   UNL     1       1.726   8.969  18.388  0.00  0.00    +0.000 A 
ATOM     25  C   UNL     1       0.367   9.352  18.467  0.00  0.00    +0.000 A 
ATOM     26  C   UNL     1       0.252  10.834  18.520  0.00  0.00    +0.000 A 
ATOM     27  H   UNL     1       3.407  10.224  18.085  0.00  0.00    +0.000 HD
BRANCH  24  28
ATOM     28  C   UNL     1       2.558   7.710  18.523  0.00  0.00    +0.000 A 
ATOM     29  C   UNL     1       2.393   6.773  19.627  0.00  0.00    +0.000 A 
ATOM     30  C   UNL     1       3.131   5.610  19.484  0.00  0.00    +0.000 A 
ATOM     31  S   UNL     1       4.112   5.678  18.099  0.00  0.00    +0.000 S 
ATOM     32  C   UNL     1       3.519   7.239  17.660  0.00  0.00    +0.000 A 
ENDBRANCH  24  28
ENDBRANCH   5  18
BRANCH   1  34
ATOM     33  C   UNL     1      -0.609  11.822  22.093  0.00  0.00    +0.000 C 
ATOM     34  C   UNL     1      -1.342  13.121  21.801  0.00  0.00    +0.000 C 
ATOM     35  C   UNL     1      -0.530  14.391  21.610  0.00  0.00    +0.000 C 
ENDBRANCH   1  34
BRANCH   4  36
ATOM     36  C   UNL     1      -3.922  11.546  17.613  0.00  0.00    +0.000 C 
ATOM     37  O   UNL     1      -5.071  11.110  17.572  0.00  0.00    +0.000 OA
BRANCH  36  38
ATOM     38  OXT UNL     1      -3.176  11.661  16.490  0.00  0.00    +0.000 OA
ATOM     39  HXT UNL     1      -2.370  11.128  16.526  0.00  0.00    +0.000 HD
ENDBRANCH  36  38
ENDBRANCH   4  36
TORSDOF 6
ENDMDL
MODEL 7
REMARK VINA RESULT:      -7.4      4.785      9.323
REMARK  Name = 
REMARK  8 active torsions:
REMARK  status: ('A' for Active; 'I' for Inactive)
REMARK    1  A    between atoms: C_1  and  C_2
REMARK    2  A    between atoms: C_2  and  C_3
REMARK    3  A    between atoms: C_2  and  C_4
REMARK    4  A    between atoms: C_5  and  C_6
REMARK    5  A    between atoms: CA_17  and  C_18
REMARK    6  A    between atoms: C_18  and  OXT_20
REMARK    7  A    between atoms: C_21  and  C_22
REMARK    8  A    between atoms: C_28  and  C_29
REMARK                            x       y       z     vdW  Elec       q    Type
REMARK                         _______ _______ _______ _____ _____    ______ ____
ROOT
ATOM      1  C   UNL     1      -2.318  12.769  20.636  0.00  0.00    +0.000 A 
ATOM      2  C   UNL     1      -3.688  13.028  20.832  0.00  0.00    +0.000 A 
ATOM      3  N   UNL     1      -4.199  12.620  19.614  0.00  0.00    +0.000 N 
ATOM      4  CA  UNL     1      -3.294  11.996  18.716  0.00  0.00    +0.000 A 
ATOM      5  C   UNL     1      -2.030  12.081  19.283  0.00  0.00    +0.000 A 
ATOM      6  H   UNL     1      -5.183  12.727  19.356  0.00  0.00    +0.000 HD
ENDROOT
BRANCH   2   7
ATOM      7  C   UNL     1      -4.613  13.708  21.889  0.00  0.00    +0.000 A 
ATOM      8  C   UNL     1      -4.297  15.059  22.193  0.00  0.00    +0.000 A 
ATOM      9  C   UNL     1      -4.741  15.748  23.319  0.00  0.00    +0.000 A 
ATOM     10  F   UNL     1      -3.790  15.916  24.262  0.00  0.00    +0.000 F 
ATOM     11  C   UNL     1      -5.954  15.415  23.855  0.00  0.00    +0.000 A 
ATOM     12  C   UNL     1      -6.295  14.069  23.680  0.00  0.00    +0.000 A 
ATOM     13  N   UNL     1      -7.302  13.401  24.333  0.00  0.00    +0.000 N 
ATOM     14  C   UNL     1      -7.827  12.509  23.469  0.00  0.00    +0.000 A 
ATOM     15  C   UNL     1      -6.879  12.349  22.478  0.00  0.00    +0.000 A 
ATOM     16  C   UNL     1      -5.785  13.248  22.642  0.00  0.00    +0.000 A 
ATOM     17  H   UNL     1      -7.736  13.738  25.207  0.00  0.00    +0.000 HD
ENDBRANCH   2   7
BRANCH   5  18
ATOM     18  C   UNL     1      -0.637  11.875  18.596  0.00  0.00    +0.000 A 
ATOM     19  C   UNL     1      -0.011  13.086  18.260  0.00  0.00    +0.000 A 
ATOM     20  C   UNL     1       1.350  13.232  18.465  0.00  0.00    +0.000 A 
ATOM     21  N   UNL     1       2.219  12.251  18.355  0.00  0.00    +0.000 NA
ATOM     22  C   UNL     1       1.625  11.063  18.255  0.00  0.00    +0.000 A 
ATOM     23  N   UNL     1       2.423   9.998  18.084  0.00  0.00    +0.000 N 
ATOM     24  C   UNL     1       1.737   8.850  18.309  0.00  0.00    +0.000 A 
ATOM     25  C   UNL     1       0.379   9.239  18.388  0.00  0.00    +0.000 A 
ATOM     26  C   UNL     1       0.271  10.721  18.431  0.00  0.00    +0.000 A 
ATOM     27  H   UNL     1       3.423  10.095  17.994  0.00  0.00    +0.000 HD
BRANCH  24  28
ATOM     28  C   UNL     1       2.564   7.588  18.451  0.00  0.00    +0.000 A 
ATOM     29  C   UNL     1       3.645   7.249  17.534  0.00  0.00    +0.000 A 
ATOM     30  C   UNL     1       4.380   6.143  17.926  0.00  0.00    +0.000 A 
ATOM     31  S   UNL     1       3.716   5.434  19.319  0.00  0.00    +0.000 S 
ATOM     32  C   UNL     1       2.475   6.628  19.432  0.00  0.00    +0.000 A 
ENDBRANCH  24  28
ENDBRANCH   5  18
BRANCH   1  34
ATOM     33  C   UNL     1      -0.908  14.489  21.645  0.00  0.00    +0.000 C 
ATOM     34  C   UNL     1      -1.307  13.024  21.705  0.00  0.00    +0.000 C 
ATOM     35  C   UNL     1      -1.645  12.413  23.054  0.00  0.00    +0.000 C 
ENDBRANCH   1  34
BRANCH   4  36
ATOM     36  C   UNL     1      -3.902  11.459  17.523  0.00  0.00    +0.000 C 
ATOM     37  O   UNL     1      -3.273  10.852  16.657  0.00  0.00    +0.000 OA
BRANCH  36  38
ATOM     38  OXT UNL     1      -5.251  11.559  17.469  0.00  0.00    +0.000 OA
ATOM     39  HXT UNL     1      -5.569  11.778  16.582  0.00  0.00    +0.000 HD
ENDBRANCH  36  38
ENDBRANCH   4  36
TORSDOF 6
ENDMDL
MODEL 8
REMARK VINA RESULT:      -7.4      4.378      9.184
REMARK  Name = 
REMARK  8 active torsions:
REMARK  status: ('A' for Active; 'I' for Inactive)
REMARK    1  A    between atoms: C_1  and  C_2
REMARK    2  A    between atoms: C_2  and  C_3
REMARK    3  A    between atoms: C_2  and  C_4
REMARK    4  A    between atoms: C_5  and  C_6
REMARK    5  A    between atoms: CA_17  and  C_18
REMARK    6  A    between atoms: C_18  and  OXT_20
REMARK    7  A    between atoms: C_21  and  C_22
REMARK    8  A    between atoms: C_28  and  C_29
REMARK                            x       y       z     vdW  Elec       q    Type
REMARK                         _______ _______ _______ _____ _____    ______ ____
ROOT
ATOM      1  C   UNL     1       0.149  13.333  20.184  0.00  0.00    +0.000 A 
ATOM      2  C   UNL     1      -0.391  14.228  19.241  0.00  0.00    +0.000 A 
ATOM      3  N   UNL     1      -0.974  13.341  18.356  0.00  0.00    +0.000 N 
ATOM      4  CA  UNL     1      -0.972  11.971  18.725  0.00  0.00    +0.000 A 
ATOM      5  C   UNL     1      -0.225  11.863  19.891  0.00  0.00    +0.000 A 
ATOM      6  H   UNL     1      -1.416  13.634  17.480  0.00  0.00    +0.000 HD
ENDROOT
BRANCH   2   7
ATOM      7  C   UNL     1      -0.364  15.756  18.926  0.00  0.00    +0.000 A 
ATOM      8  C   UNL     1      -1.375  16.525  19.562  0.00  0.00    +0.000 A 
ATOM      9  C   UNL     1      -1.761  17.807  19.178  0.00  0.00    +0.000 A 
ATOM     10  F   UNL     1      -2.945  17.846  18.531  0.00  0.00    +0.000 F 
ATOM     11  C   UNL     1      -0.829  18.631  18.611  0.00  0.00    +0.000 A 
ATOM     12  C   UNL     1       0.152  17.950  17.882  0.00  0.00    +0.000 A 
ATOM     13  N   UNL     1       1.038  18.516  16.998  0.00  0.00    +0.000 N 
ATOM     14  C   UNL     1       2.200  17.839  17.094  0.00  0.00    +0.000 A 
ATOM     15  C   UNL     1       1.882  16.638  17.697  0.00  0.00    +0.000 A 
ATOM     16  C   UNL     1       0.518  16.598  18.109  0.00  0.00    +0.000 A 
ATOM     17  H   UNL     1       0.904  19.449  16.576  0.00  0.00    +0.000 HD
ENDBRANCH   2   7
BRANCH   5  18
ATOM     18  C   UNL     1       0.388  10.575  20.540  0.00  0.00    +0.000 A 
ATOM     19  C   UNL     1      -0.086  10.344  21.842  0.00  0.00    +0.000 A 
ATOM     20  C   UNL     1      -0.397   9.054  22.236  0.00  0.00    +0.000 A 
ATOM     21  N   UNL     1       0.232   7.982  21.807  0.00  0.00    +0.000 NA
ATOM     22  C   UNL     1       1.041   8.250  20.784  0.00  0.00    +0.000 A 
ATOM     23  N   UNL     1       1.772   7.232  20.306  0.00  0.00    +0.000 N 
ATOM     24  C   UNL     1       2.300   7.553  19.098  0.00  0.00    +0.000 A 
ATOM     25  C   UNL     1       2.067   8.940  18.949  0.00  0.00    +0.000 A 
ATOM     26  C   UNL     1       1.161   9.428  20.023  0.00  0.00    +0.000 A 
ATOM     27  H   UNL     1       1.743   6.316  20.726  0.00  0.00    +0.000 HD
BRANCH  24  28
ATOM     28  C   UNL     1       2.895   6.412  18.298  0.00  0.00    +0.000 A 
ATOM     29  C   UNL     1       4.025   6.590  17.396  0.00  0.00    +0.000 A 
ATOM     30  C   UNL     1       4.519   5.402  16.883  0.00  0.00    +0.000 A 
ATOM     31  S   UNL     1       3.570   4.084  17.379  0.00  0.00    +0.000 S 
ATOM     32  C   UNL     1       2.525   5.088  18.318  0.00  0.00    +0.000 A 
ENDBRANCH  24  28
ENDBRANCH   5  18
BRANCH   1  34
ATOM     33  C   UNL     1       2.227  14.363  20.950  0.00  0.00    +0.000 C 
ATOM     34  C   UNL     1       0.883  13.810  21.394  0.00  0.00    +0.000 C 
ATOM     35  C   UNL     1       0.042  14.623  22.364  0.00  0.00    +0.000 C 
ENDBRANCH   1  34
BRANCH   4  36
ATOM     36  C   UNL     1      -1.715  11.106  17.843  0.00  0.00    +0.000 C 
ATOM     37  O   UNL     1      -1.433   9.923  17.657  0.00  0.00    +0.000 OA
BRANCH  36  38
ATOM     38  OXT UNL     1      -2.835  11.650  17.312  0.00  0.00    +0.000 OA
ATOM     39  HXT UNL     1      -2.994  11.357  16.404  0.00  0.00    +0.000 HD
ENDBRANCH  36  38
ENDBRANCH   4  36
TORSDOF 6
ENDMDL
MODEL 9
REMARK VINA RESULT:      -7.3      4.961      9.531
REMARK  Name = 
REMARK  8 active torsions:
REMARK  status: ('A' for Active; 'I' for Inactive)
REMARK    1  A    between atoms: C_1  and  C_2
REMARK    2  A    between atoms: C_2  and  C_3
REMARK    3  A    between atoms: C_2  and  C_4
REMARK    4  A    between atoms: C_5  and  C_6
REMARK    5  A    between atoms: CA_17  and  C_18
REMARK    6  A    between atoms: C_18  and  OXT_20
REMARK    7  A    between atoms: C_21  and  C_22
REMARK    8  A    between atoms: C_28  and  C_29
REMARK                            x       y       z     vdW  Elec       q    Type
REMARK                         _______ _______ _______ _____ _____    ______ ____
ROOT
ATOM      1  C   UNL     1      -3.093  12.861  20.810  0.00  0.00    +0.000 A 
ATOM      2  C   UNL     1      -4.490  12.972  20.948  0.00  0.00    +0.000 A 
ATOM      3  N   UNL     1      -4.902  12.555  19.696  0.00  0.00    +0.000 N 
ATOM      4  CA  UNL     1      -3.898  12.058  18.824  0.00  0.00    +0.000 A 
ATOM      5  C   UNL     1      -2.676  12.253  19.452  0.00  0.00    +0.000 A 
ATOM      6  H   UNL     1      -5.880  12.569  19.395  0.00  0.00    +0.000 HD
ENDROOT
BRANCH   2   7
ATOM      7  C   UNL     1      -5.527  13.516  21.980  0.00  0.00    +0.000 A 
ATOM      8  C   UNL     1      -5.837  12.635  23.050  0.00  0.00    +0.000 A 
ATOM      9  C   UNL     1      -6.953  12.747  23.876  0.00  0.00    +0.000 A 
ATOM     10  F   UNL     1      -7.916  11.839  23.612  0.00  0.00    +0.000 F 
ATOM     11  C   UNL     1      -7.463  13.991  24.126  0.00  0.00    +0.000 A 
ATOM     12  C   UNL     1      -7.282  14.893  23.072  0.00  0.00    +0.000 A 
ATOM     13  N   UNL     1      -7.913  16.105  22.931  0.00  0.00    +0.000 N 
ATOM     14  C   UNL     1      -7.039  16.956  22.358  0.00  0.00    +0.000 A 
ATOM     15  C   UNL     1      -6.068  16.162  21.781  0.00  0.00    +0.000 A 
ATOM     16  C   UNL     1      -6.255  14.784  22.099  0.00  0.00    +0.000 A 
ATOM     17  H   UNL     1      -8.778  16.359  23.435  0.00  0.00    +0.000 HD
ENDBRANCH   2   7
BRANCH   5  18
ATOM     18  C   UNL     1      -1.241  12.215  18.826  0.00  0.00    +0.000 A 
ATOM     19  C   UNL     1      -0.686  13.495  18.657  0.00  0.00    +0.000 A 
ATOM     20  C   UNL     1       0.650  13.705  18.952  0.00  0.00    +0.000 A 
ATOM     21  N   UNL     1       1.590  12.800  18.787  0.00  0.00    +0.000 NA
ATOM     22  C   UNL     1       1.087  11.595  18.527  0.00  0.00    +0.000 A 
ATOM     23  N   UNL     1       1.966  10.609  18.288  0.00  0.00    +0.000 N 
ATOM     24  C   UNL     1       1.352   9.401  18.350  0.00  0.00    +0.000 A 
ATOM     25  C   UNL     1      -0.032   9.690  18.394  0.00  0.00    +0.000 A 
ATOM     26  C   UNL     1      -0.246  11.149  18.590  0.00  0.00    +0.000 A 
ATOM     27  H   UNL     1       2.959  10.781  18.265  0.00  0.00    +0.000 HD
BRANCH  24  28
ATOM     28  C   UNL     1       2.259   8.188  18.402  0.00  0.00    +0.000 A 
ATOM     29  C   UNL     1       2.220   7.224  19.494  0.00  0.00    +0.000 A 
ATOM     30  C   UNL     1       3.009   6.107  19.278  0.00  0.00    +0.000 A 
ATOM     31  S   UNL     1       3.887   6.253  17.832  0.00  0.00    +0.000 S 
ATOM     32  C   UNL     1       3.182   7.786  17.466  0.00  0.00    +0.000 A 
ENDBRANCH  24  28
ENDBRANCH   5  18
BRANCH   1  34
ATOM     33  C   UNL     1      -2.356  14.641  22.311  0.00  0.00    +0.000 C 
ATOM     34  C   UNL     1      -2.162  13.183  21.932  0.00  0.00    +0.000 C 
ATOM     35  C   UNL     1      -2.120  12.140  23.037  0.00  0.00    +0.000 C 
ENDBRANCH   1  34
BRANCH   4  36
ATOM     36  C   UNL     1      -4.394  11.503  17.588  0.00  0.00    +0.000 C 
ATOM     37  O   UNL     1      -5.346  11.973  16.968  0.00  0.00    +0.000 OA
BRANCH  36  38
ATOM     38  OXT UNL     1      -3.660  10.485  17.079  0.00  0.00    +0.000 OA
ATOM     39  HXT UNL     1      -4.127  10.008  16.379  0.00  0.00    +0.000 HD
ENDBRANCH  36  38
ENDBRANCH   4  36
TORSDOF 6
ENDMDL
