MODEL 1
REMARK VINA RESULT:      -8.0      0.000      0.000
REMARK  Name = 
REMARK  6 active torsions:
REMARK  status: ('A' for Active; 'I' for Inactive)
REMARK    1  A    between atoms: C_2  and  C_3
REMARK    2  A    between atoms: C_8  and  C_9
REMARK    3  A    between atoms: C_9  and  S_10
REMARK    4  A    between atoms: S_10  and  C_11
REMARK    5  A    between atoms: N_21  and  C_22
REMARK    6  A    between atoms: C_22  and  C_23
REMARK                            x       y       z     vdW  Elec       q    Type
REMARK                         _______ _______ _______ _____ _____    ______ ____
ROOT
ATOM      1  C   UNL     1       1.347   9.022  19.248  0.00  0.00    +0.000 A 
ATOM      2  N   UNL     1       1.812   9.523  18.074  0.00  0.00    +0.000 NA
ATOM      3  N   UNL     1       2.715   8.840  17.326  0.00  0.00    +0.000 NA
ATOM      4  C   UNL     1       3.138   7.646  17.833  0.00  0.00    +0.000 A 
ATOM      5  C   UNL     1       4.060   6.658  17.361  0.00  0.00    +0.000 A 
ATOM      6  C   UNL     1       4.893   6.529  16.224  0.00  0.00    +0.000 A 
ATOM      7  C   UNL     1       5.673   5.375  16.056  0.00  0.00    +0.000 A 
ATOM      8  C   UNL     1       5.635   4.349  16.995  0.00  0.00    +0.000 A 
ATOM      9  C   UNL     1       4.827   4.449  18.129  0.00  0.00    +0.000 A 
ATOM     10  C   UNL     1       4.054   5.612  18.299  0.00  0.00    +0.000 A 
ATOM     11  N   UNL     1       3.171   5.969  19.305  0.00  0.00    +0.000 N 
ATOM     12  C   UNL     1       2.615   7.193  19.029  0.00  0.00    +0.000 A 
ATOM     13  N   UNL     1       1.707   7.837  19.782  0.00  0.00    +0.000 NA
ENDROOT
BRANCH   1  14
ATOM     14  S   UNL     1       0.346  10.008  20.348  0.00  0.00    +0.000 S 
BRANCH  14  15
ATOM     15  C   UNL     1      -0.180  11.440  19.344  0.00  0.00    +0.000 C 
BRANCH  15  21
ATOM     16  C   UNL     1      -2.724  11.904  19.183  0.00  0.00    +0.000 A 
ATOM     17  C   UNL     1      -3.968  11.667  18.569  0.00  0.00    +0.000 A 
ATOM     18  C   UNL     1      -4.094  10.710  17.565  0.00  0.00    +0.000 A 
ATOM     19  C   UNL     1      -2.977   9.980  17.173  0.00  0.00    +0.000 A 
ATOM     20  C   UNL     1      -1.736  10.210  17.777  0.00  0.00    +0.000 A 
ATOM     21  C   UNL     1      -1.581  11.175  18.791  0.00  0.00    +0.000 A 
BRANCH  16  23
ATOM     22  N   UNL     1      -2.636  13.747  21.004  0.00  0.00    +0.000 NA
ATOM     23  C   UNL     1      -2.673  12.906  20.209  0.00  0.00    +0.000 C 
ENDBRANCH  16  23
ENDBRANCH  15  21
ENDBRANCH  14  15
ENDBRANCH   1  14
BRANCH  11  24
ATOM     24  C   UNL     1       2.712   5.099  20.385  0.00  0.00    +0.000 C 
BRANCH  24  25
ATOM     25  C   UNL     1       1.697   4.044  20.053  0.00  0.00    +0.000 C 
ATOM     26  C   UNL     1       2.046   2.587  19.844  0.00  0.00    +0.000 C 
ATOM     27  C   UNL     1       1.198   2.996  21.018  0.00  0.00    +0.000 C 
ENDBRANCH  24  25
ENDBRANCH  11  24
TORSDOF 6
ENDMDL
MODEL 2
REMARK VINA RESULT:      -8.0      2.034      8.435
REMARK  Name = 
REMARK  6 active torsions:
REMARK  status: ('A' for Active; 'I' for Inactive)
REMARK    1  A    between atoms: C_2  and  C_3
REMARK    2  A    between atoms: C_8  and  C_9
REMARK    3  A    between atoms: C_9  and  S_10
REMARK    4  A    between atoms: S_10  and  C_11
REMARK    5  A    between atoms: N_21  and  C_22
REMARK    6  A    between atoms: C_22  and  C_23
REMARK                            x       y       z     vdW  Elec       q    Type
REMARK                         _______ _______ _______ _____ _____    ______ ____
ROOT
ATOM      1  C   UNL     1       1.523   8.374  19.416  0.00  0.00    +0.000 A 
ATOM      2  N   UNL     1       1.518   8.091  20.744  0.00  0.00    +0.000 NA
ATOM      3  N   UNL     1       0.797   8.836  21.619  0.00  0.00    +0.000 NA
ATOM      4  C   UNL     1       0.108   9.888  21.091  0.00  0.00    +0.000 A 
ATOM      5  C   UNL     1      -0.741  10.886  21.667  0.00  0.00    +0.000 A 
ATOM      6  C   UNL     1      -1.184  11.188  22.977  0.00  0.00    +0.000 A 
ATOM      7  C   UNL     1      -2.068  12.257  23.187  0.00  0.00    +0.000 A 
ATOM      8  C   UNL     1      -2.520  13.025  22.119  0.00  0.00    +0.000 A 
ATOM      9  C   UNL     1      -2.098  12.754  20.816  0.00  0.00    +0.000 A 
ATOM     10  C   UNL     1      -1.205  11.688  20.610  0.00  0.00    +0.000 A 
ATOM     11  N   UNL     1      -0.639  11.197  19.445  0.00  0.00    +0.000 N 
ATOM     12  C   UNL     1       0.151  10.112  19.727  0.00  0.00    +0.000 A 
ATOM     13  N   UNL     1       0.840   9.381  18.834  0.00  0.00    +0.000 NA
ENDROOT
BRANCH   1  14
ATOM     14  S   UNL     1       2.643   7.552  18.295  0.00  0.00    +0.000 S 
BRANCH  14  15
ATOM     15  C   UNL     1       3.382   6.203  19.278  0.00  0.00    +0.000 C 
BRANCH  15  21
ATOM     16  C   UNL     1       2.849   3.980  18.058  0.00  0.00    +0.000 A 
ATOM     17  C   UNL     1       2.114   2.782  17.975  0.00  0.00    +0.000 A 
ATOM     18  C   UNL     1       1.096   2.511  18.885  0.00  0.00    +0.000 A 
ATOM     19  C   UNL     1       0.803   3.437  19.881  0.00  0.00    +0.000 A 
ATOM     20  C   UNL     1       1.531   4.629  19.972  0.00  0.00    +0.000 A 
ATOM     21  C   UNL     1       2.568   4.926  19.067  0.00  0.00    +0.000 A 
BRANCH  16  23
ATOM     22  N   UNL     1       4.749   4.355  16.334  0.00  0.00    +0.000 NA
ATOM     23  C   UNL     1       3.884   4.190  17.085  0.00  0.00    +0.000 C 
ENDBRANCH  16  23
ENDBRANCH  15  21
ENDBRANCH  14  15
ENDBRANCH   1  14
BRANCH  11  24
ATOM     24  C   UNL     1      -0.991  11.608  18.088  0.00  0.00    +0.000 C 
BRANCH  24  25
ATOM     25  C   UNL     1      -2.297  11.126  17.525  0.00  0.00    +0.000 C 
ATOM     26  C   UNL     1      -2.400  10.151  16.374  0.00  0.00    +0.000 C 
ATOM     27  C   UNL     1      -2.871   9.748  17.746  0.00  0.00    +0.000 C 
ENDBRANCH  24  25
ENDBRANCH  11  24
TORSDOF 6
ENDMDL
MODEL 3
REMARK VINA RESULT:      -7.9      2.118      8.590
REMARK  Name = 
REMARK  6 active torsions:
REMARK  status: ('A' for Active; 'I' for Inactive)
REMARK    1  A    between atoms: C_2  and  C_3
REMARK    2  A    between atoms: C_8  and  C_9
REMARK    3  A    between atoms: C_9  and  S_10
REMARK    4  A    between atoms: S_10  and  C_11
REMARK    5  A    between atoms: N_21  and  C_22
REMARK    6  A    between atoms: C_22  and  C_23
REMARK                            x       y       z     vdW  Elec       q    Type
REMARK                         _______ _______ _______ _____ _____    ______ ____
ROOT
ATOM      1  C   UNL     1       1.634   8.563  19.124  0.00  0.00    +0.000 A 
ATOM      2  N   UNL     1       1.683   8.178  20.425  0.00  0.00    +0.000 NA
ATOM      3  N   UNL     1       0.953   8.816  21.375  0.00  0.00    +0.000 NA
ATOM      4  C   UNL     1       0.197   9.869  20.949  0.00  0.00    +0.000 A 
ATOM      5  C   UNL     1      -0.682  10.774  21.624  0.00  0.00    +0.000 A 
ATOM      6  C   UNL     1      -1.101  10.951  22.964  0.00  0.00    +0.000 A 
ATOM      7  C   UNL     1      -2.029  11.954  23.281  0.00  0.00    +0.000 A 
ATOM      8  C   UNL     1      -2.551  12.777  22.288  0.00  0.00    +0.000 A 
ATOM      9  C   UNL     1      -2.155  12.630  20.958  0.00  0.00    +0.000 A 
ATOM     10  C   UNL     1      -1.217  11.630  20.646  0.00  0.00    +0.000 A 
ATOM     11  N   UNL     1      -0.662  11.261  19.431  0.00  0.00    +0.000 N 
ATOM     12  C   UNL     1       0.189  10.199  19.607  0.00  0.00    +0.000 A 
ATOM     13  N   UNL     1       0.886   9.575  18.641  0.00  0.00    +0.000 NA
ENDROOT
BRANCH   1  14
ATOM     14  S   UNL     1       2.759   7.889  17.913  0.00  0.00    +0.000 S 
BRANCH  14  15
ATOM     15  C   UNL     1       3.735   6.643  18.824  0.00  0.00    +0.000 C 
BRANCH  15  21
ATOM     16  C   UNL     1       4.322   4.228  18.092  0.00  0.00    +0.000 A 
ATOM     17  C   UNL     1       3.910   2.940  17.700  0.00  0.00    +0.000 A 
ATOM     18  C   UNL     1       2.560   2.653  17.515  0.00  0.00    +0.000 A 
ATOM     19  C   UNL     1       1.614   3.652  17.717  0.00  0.00    +0.000 A 
ATOM     20  C   UNL     1       2.015   4.934  18.110  0.00  0.00    +0.000 A 
ATOM     21  C   UNL     1       3.374   5.250  18.307  0.00  0.00    +0.000 A 
BRANCH  16  23
ATOM     22  N   UNL     1       6.858   4.640  18.445  0.00  0.00    +0.000 NA
ATOM     23  C   UNL     1       5.731   4.448  18.264  0.00  0.00    +0.000 C 
ENDBRANCH  16  23
ENDBRANCH  15  21
ENDBRANCH  14  15
ENDBRANCH   1  14
BRANCH  11  24
ATOM     24  C   UNL     1      -1.075  11.756  18.120  0.00  0.00    +0.000 C 
BRANCH  24  25
ATOM     25  C   UNL     1      -2.359  11.234  17.545  0.00  0.00    +0.000 C 
ATOM     26  C   UNL     1      -2.425  10.327  16.338  0.00  0.00    +0.000 C 
ATOM     27  C   UNL     1      -2.851   9.815  17.687  0.00  0.00    +0.000 C 
ENDBRANCH  24  25
ENDBRANCH  11  24
TORSDOF 6
ENDMDL
MODEL 4
REMARK VINA RESULT:      -7.8      1.315      1.632
REMARK  Name = 
REMARK  6 active torsions:
REMARK  status: ('A' for Active; 'I' for Inactive)
REMARK    1  A    between atoms: C_2  and  C_3
REMARK    2  A    between atoms: C_8  and  C_9
REMARK    3  A    between atoms: C_9  and  S_10
REMARK    4  A    between atoms: S_10  and  C_11
REMARK    5  A    between atoms: N_21  and  C_22
REMARK    6  A    between atoms: C_22  and  C_23
REMARK                            x       y       z     vdW  Elec       q    Type
REMARK                         _______ _______ _______ _____ _____    ______ ____
ROOT
ATOM      1  C   UNL     1       1.792   8.015  19.665  0.00  0.00    +0.000 A 
ATOM      2  N   UNL     1       2.111   8.775  18.586  0.00  0.00    +0.000 NA
ATOM      3  N   UNL     1       2.952   8.313  17.625  0.00  0.00    +0.000 NA
ATOM      4  C   UNL     1       3.467   7.065  17.823  0.00  0.00    +0.000 A 
ATOM      5  C   UNL     1       4.366   6.251  17.065  0.00  0.00    +0.000 A 
ATOM      6  C   UNL     1       5.077   6.407  15.851  0.00  0.00    +0.000 A 
ATOM      7  C   UNL     1       5.874   5.358  15.366  0.00  0.00    +0.000 A 
ATOM      8  C   UNL     1       5.970   4.159  16.065  0.00  0.00    +0.000 A 
ATOM      9  C   UNL     1       5.285   3.976  17.267  0.00  0.00    +0.000 A 
ATOM     10  C   UNL     1       4.496   5.033  17.755  0.00  0.00    +0.000 A 
ATOM     11  N   UNL     1       3.713   5.124  18.895  0.00  0.00    +0.000 N 
ATOM     12  C   UNL     1       3.090   6.345  18.941  0.00  0.00    +0.000 A 
ATOM     13  N   UNL     1       2.246   6.767  19.898  0.00  0.00    +0.000 NA
ENDROOT
BRANCH   1  14
ATOM     14  S   UNL     1       0.880   8.694  21.042  0.00  0.00    +0.000 S 
BRANCH  14  15
ATOM     15  C   UNL     1       0.934  10.502  20.792  0.00  0.00    +0.000 C 
BRANCH  15  21
ATOM     16  C   UNL     1      -1.202  11.967  20.868  0.00  0.00    +0.000 A 
ATOM     17  C   UNL     1      -2.393  12.416  20.265  0.00  0.00    +0.000 A 
ATOM     18  C   UNL     1      -2.818  11.883  19.051  0.00  0.00    +0.000 A 
ATOM     19  C   UNL     1      -2.057  10.896  18.433  0.00  0.00    +0.000 A 
ATOM     20  C   UNL     1      -0.870  10.447  19.023  0.00  0.00    +0.000 A 
ATOM     21  C   UNL     1      -0.416  10.971  20.249  0.00  0.00    +0.000 A 
BRANCH  16  23
ATOM     22  N   UNL     1      -0.491  13.063  23.107  0.00  0.00    +0.000 NA
ATOM     23  C   UNL     1      -0.828  12.563  22.119  0.00  0.00    +0.000 C 
ENDBRANCH  16  23
ENDBRANCH  15  21
ENDBRANCH  14  15
ENDBRANCH   1  14
BRANCH  11  24
ATOM     24  C   UNL     1       3.402   4.024  19.805  0.00  0.00    +0.000 C 
BRANCH  24  25
ATOM     25  C   UNL     1       2.350   3.041  19.383  0.00  0.00    +0.000 C 
ATOM     26  C   UNL     1       0.917   3.094  19.864  0.00  0.00    +0.000 C 
ATOM     27  C   UNL     1       1.233   3.340  18.413  0.00  0.00    +0.000 C 
ENDBRANCH  24  25
ENDBRANCH  11  24
TORSDOF 6
ENDMDL
MODEL 5
REMARK VINA RESULT:      -7.8      2.008      8.805
REMARK  Name = 
REMARK  6 active torsions:
REMARK  status: ('A' for Active; 'I' for Inactive)
REMARK    1  A    between atoms: C_2  and  C_3
REMARK    2  A    between atoms: C_8  and  C_9
REMARK    3  A    between atoms: C_9  and  S_10
REMARK    4  A    between atoms: S_10  and  C_11
REMARK    5  A    between atoms: N_21  and  C_22
REMARK    6  A    between atoms: C_22  and  C_23
REMARK                            x       y       z     vdW  Elec       q    Type
REMARK                         _______ _______ _______ _____ _____    ______ ____
ROOT
ATOM      1  C   UNL     1       1.469   8.785  19.171  0.00  0.00    +0.000 A 
ATOM      2  N   UNL     1       1.538   8.420  20.478  0.00  0.00    +0.000 NA
ATOM      3  N   UNL     1       0.793   9.047  21.423  0.00  0.00    +0.000 NA
ATOM      4  C   UNL     1       0.002  10.070  20.988  0.00  0.00    +0.000 A 
ATOM      5  C   UNL     1      -0.902  10.955  21.656  0.00  0.00    +0.000 A 
ATOM      6  C   UNL     1      -1.318  11.137  22.996  0.00  0.00    +0.000 A 
ATOM      7  C   UNL     1      -2.276  12.115  23.305  0.00  0.00    +0.000 A 
ATOM      8  C   UNL     1      -2.829  12.908  22.305  0.00  0.00    +0.000 A 
ATOM      9  C   UNL     1      -2.437  12.755  20.974  0.00  0.00    +0.000 A 
ATOM     10  C   UNL     1      -1.469  11.781  20.670  0.00  0.00    +0.000 A 
ATOM     11  N   UNL     1      -0.910  11.413  19.456  0.00  0.00    +0.000 N 
ATOM     12  C   UNL     1      -0.025  10.381  19.641  0.00  0.00    +0.000 A 
ATOM     13  N   UNL     1       0.686   9.767  18.680  0.00  0.00    +0.000 NA
ENDROOT
BRANCH   1  14
ATOM     14  S   UNL     1       2.608   8.130  17.963  0.00  0.00    +0.000 S 
BRANCH  14  15
ATOM     15  C   UNL     1       2.614   6.328  18.254  0.00  0.00    +0.000 C 
BRANCH  15  21
ATOM     16  C   UNL     1       3.854   4.356  17.119  0.00  0.00    +0.000 A 
ATOM     17  C   UNL     1       4.944   3.873  16.370  0.00  0.00    +0.000 A 
ATOM     18  C   UNL     1       5.992   4.717  16.017  0.00  0.00    +0.000 A 
ATOM     19  C   UNL     1       5.960   6.050  16.414  0.00  0.00    +0.000 A 
ATOM     20  C   UNL     1       4.880   6.540  17.155  0.00  0.00    +0.000 A 
ATOM     21  C   UNL     1       3.804   5.708  17.523  0.00  0.00    +0.000 A 
BRANCH  16  23
ATOM     22  N   UNL     1       1.986   2.647  17.678  0.00  0.00    +0.000 NA
ATOM     23  C   UNL     1       2.810   3.426  17.445  0.00  0.00    +0.000 C 
ENDBRANCH  16  23
ENDBRANCH  15  21
ENDBRANCH  14  15
ENDBRANCH   1  14
BRANCH  11  24
ATOM     24  C   UNL     1      -1.346  11.877  18.142  0.00  0.00    +0.000 C 
BRANCH  24  25
ATOM     25  C   UNL     1      -2.551  11.224  17.530  0.00  0.00    +0.000 C 
ATOM     26  C   UNL     1      -2.713  10.996  16.044  0.00  0.00    +0.000 C 
ATOM     27  C   UNL     1      -2.579   9.821  16.975  0.00  0.00    +0.000 C 
ENDBRANCH  24  25
ENDBRANCH  11  24
TORSDOF 6
ENDMDL
MODEL 6
REMARK VINA RESULT:      -7.8      2.300      8.670
REMARK  Name = 
REMARK  6 active torsions:
REMARK  status: ('A' for Active; 'I' for Inactive)
REMARK    1  A    between atoms: C_2  and  C_3
REMARK    2  A    between atoms: C_8  and  C_9
REMARK    3  A    between atoms: C_9  and  S_10
REMARK    4  A    between atoms: S_10  and  C_11
REMARK    5  A    between atoms: N_21  and  C_22
REMARK    6  A    between atoms: C_22  and  C_23
REMARK                            x       y       z     vdW  Elec       q    Type
REMARK                         _______ _______ _______ _____ _____    ______ ____
ROOT
ATOM      1  C   UNL     1       1.205   8.521  20.601  0.00  0.00    +0.000 A 
ATOM      2  N   UNL     1       1.275   8.746  21.939  0.00  0.00    +0.000 NA
ATOM      3  N   UNL     1       0.629   9.793  22.511  0.00  0.00    +0.000 NA
ATOM      4  C   UNL     1      -0.065  10.609  21.666  0.00  0.00    +0.000 A 
ATOM      5  C   UNL     1      -0.851  11.786  21.873  0.00  0.00    +0.000 A 
ATOM      6  C   UNL     1      -1.204  12.568  22.999  0.00  0.00    +0.000 A 
ATOM      7  C   UNL     1      -2.045  13.680  22.842  0.00  0.00    +0.000 A 
ATOM      8  C   UNL     1      -2.544  14.022  21.589  0.00  0.00    +0.000 A 
ATOM      9  C   UNL     1      -2.210  13.273  20.460  0.00  0.00    +0.000 A 
ATOM     10  C   UNL     1      -1.359  12.166  20.619  0.00  0.00    +0.000 A 
ATOM     11  N   UNL     1      -0.879  11.255  19.691  0.00  0.00    +0.000 N 
ATOM     12  C   UNL     1      -0.100  10.314  20.315  0.00  0.00    +0.000 A 
ATOM     13  N   UNL     1       0.513   9.275  19.723  0.00  0.00    +0.000 NA
ENDROOT
BRANCH   1  14
ATOM     14  S   UNL     1       2.232   7.294  19.810  0.00  0.00    +0.000 S 
BRANCH  14  15
ATOM     15  C   UNL     1       1.733   5.709  20.567  0.00  0.00    +0.000 C 
BRANCH  15  21
ATOM     16  C   UNL     1       1.938   3.208  19.920  0.00  0.00    +0.000 A 
ATOM     17  C   UNL     1       2.116   2.215  18.939  0.00  0.00    +0.000 A 
ATOM     18  C   UNL     1       2.368   2.563  17.615  0.00  0.00    +0.000 A 
ATOM     19  C   UNL     1       2.448   3.907  17.264  0.00  0.00    +0.000 A 
ATOM     20  C   UNL     1       2.268   4.900  18.233  0.00  0.00    +0.000 A 
ATOM     21  C   UNL     1       2.009   4.575  19.578  0.00  0.00    +0.000 A 
BRANCH  16  23
ATOM     22  N   UNL     1       1.452   2.460  22.355  0.00  0.00    +0.000 NA
ATOM     23  C   UNL     1       1.681   2.772  21.264  0.00  0.00    +0.000 C 
ENDBRANCH  16  23
ENDBRANCH  15  21
ENDBRANCH  14  15
ENDBRANCH   1  14
BRANCH  11  24
ATOM     24  C   UNL     1      -1.304  11.156  18.297  0.00  0.00    +0.000 C 
BRANCH  24  25
ATOM     25  C   UNL     1      -2.417  10.203  17.969  0.00  0.00    +0.000 C 
ATOM     26  C   UNL     1      -3.770  10.644  17.459  0.00  0.00    +0.000 C 
ATOM     27  C   UNL     1      -2.857   9.843  16.571  0.00  0.00    +0.000 C 
ENDBRANCH  24  25
ENDBRANCH  11  24
TORSDOF 6
ENDMDL
MODEL 7
REMARK VINA RESULT:      -7.7      1.264      1.892
REMARK  Name = 
REMARK  6 active torsions:
REMARK  status: ('A' for Active; 'I' for Inactive)
REMARK    1  A    between atoms: C_2  and  C_3
REMARK    2  A    between atoms: C_8  and  C_9
REMARK    3  A    between atoms: C_9  and  S_10
REMARK    4  A    between atoms: S_10  and  C_11
REMARK    5  A    between atoms: N_21  and  C_22
REMARK    6  A    between atoms: C_22  and  C_23
REMARK                            x       y       z     vdW  Elec       q    Type
REMARK                         _______ _______ _______ _____ _____    ______ ____
ROOT
ATOM      1  C   UNL     1       1.149   9.171  19.331  0.00  0.00    +0.000 A 
ATOM      2  N   UNL     1       1.621   9.646  18.150  0.00  0.00    +0.000 NA
ATOM      3  N   UNL     1       2.527   8.946  17.421  0.00  0.00    +0.000 NA
ATOM      4  C   UNL     1       2.946   7.763  17.957  0.00  0.00    +0.000 A 
ATOM      5  C   UNL     1       3.869   6.764  17.512  0.00  0.00    +0.000 A 
ATOM      6  C   UNL     1       4.707   6.609  16.382  0.00  0.00    +0.000 A 
ATOM      7  C   UNL     1       5.488   5.451  16.244  0.00  0.00    +0.000 A 
ATOM      8  C   UNL     1       5.443   4.446  17.206  0.00  0.00    +0.000 A 
ATOM      9  C   UNL     1       4.629   4.572  18.332  0.00  0.00    +0.000 A 
ATOM     10  C   UNL     1       3.856   5.739  18.472  0.00  0.00    +0.000 A 
ATOM     11  N   UNL     1       2.968   6.119  19.466  0.00  0.00    +0.000 N 
ATOM     12  C   UNL     1       2.415   7.337  19.160  0.00  0.00    +0.000 A 
ATOM     13  N   UNL     1       1.504   7.999  19.894  0.00  0.00    +0.000 NA
ENDROOT
BRANCH   1  14
ATOM     14  S   UNL     1       0.142  10.183  20.404  0.00  0.00    +0.000 S 
BRANCH  14  15
ATOM     15  C   UNL     1      -0.181  11.703  19.445  0.00  0.00    +0.000 C 
BRANCH  15  21
ATOM     16  C   UNL     1      -2.615  11.458  18.591  0.00  0.00    +0.000 A 
ATOM     17  C   UNL     1      -3.991  11.716  18.744  0.00  0.00    +0.000 A 
ATOM     18  C   UNL     1      -4.450  12.523  19.782  0.00  0.00    +0.000 A 
ATOM     19  C   UNL     1      -3.537  13.081  20.670  0.00  0.00    +0.000 A 
ATOM     20  C   UNL     1      -2.169  12.828  20.527  0.00  0.00    +0.000 A 
ATOM     21  C   UNL     1      -1.677  12.012  19.489  0.00  0.00    +0.000 A 
BRANCH  16  23
ATOM     22  N   UNL     1      -1.937   9.918  16.619  0.00  0.00    +0.000 NA
ATOM     23  C   UNL     1      -2.217  10.617  17.499  0.00  0.00    +0.000 C 
ENDBRANCH  16  23
ENDBRANCH  15  21
ENDBRANCH  14  15
ENDBRANCH   1  14
BRANCH  11  24
ATOM     24  C   UNL     1       2.502   5.273  20.562  0.00  0.00    +0.000 C 
BRANCH  24  25
ATOM     25  C   UNL     1       1.300   4.408  20.319  0.00  0.00    +0.000 C 
ATOM     26  C   UNL     1       1.327   3.164  19.460  0.00  0.00    +0.000 C 
ATOM     27  C   UNL     1       1.078   3.051  20.940  0.00  0.00    +0.000 C 
ENDBRANCH  24  25
ENDBRANCH  11  24
TORSDOF 6
ENDMDL
MODEL 8
REMARK VINA RESULT:      -7.7      1.255      3.386
REMARK  Name = 
REMARK  6 active torsions:
REMARK  status: ('A' for Active; 'I' for Inactive)
REMARK    1  A    between atoms: C_2  and  C_3
REMARK    2  A    between atoms: C_8  and  C_9
REMARK    3  A    between atoms: C_9  and  S_10
REMARK    4  A    between atoms: S_10  and  C_11
REMARK    5  A    between atoms: N_21  and  C_22
REMARK    6  A    between atoms: C_22  and  C_23
REMARK                            x       y       z     vdW  Elec       q    Type
REMARK                         _______ _______ _______ _____ _____    ______ ____
ROOT
ATOM      1  C   UNL     1       1.851   8.652  19.111  0.00  0.00    +0.000 A 
ATOM      2  N   UNL     1       1.163   8.326  20.235  0.00  0.00    +0.000 NA
ATOM      3  N   UNL     1       1.282   7.098  20.802  0.00  0.00    +0.000 NA
ATOM      4  C   UNL     1       2.108   6.217  20.165  0.00  0.00    +0.000 A 
ATOM      5  C   UNL     1       2.485   4.864  20.436  0.00  0.00    +0.000 A 
ATOM      6  C   UNL     1       2.155   3.914  21.431  0.00  0.00    +0.000 A 
ATOM      7  C   UNL     1       2.753   2.644  21.412  0.00  0.00    +0.000 A 
ATOM      8  C   UNL     1       3.674   2.308  20.424  0.00  0.00    +0.000 A 
ATOM      9  C   UNL     1       4.016   3.223  19.427  0.00  0.00    +0.000 A 
ATOM     10  C   UNL     1       3.407   4.490  19.444  0.00  0.00    +0.000 A 
ATOM     11  N   UNL     1       3.563   5.578  18.599  0.00  0.00    +0.000 N 
ATOM     12  C   UNL     1       2.784   6.622  19.029  0.00  0.00    +0.000 A 
ATOM     13  N   UNL     1       2.701   7.835  18.456  0.00  0.00    +0.000 NA
ENDROOT
BRANCH   1  14
ATOM     14  S   UNL     1       1.527  10.171  18.231  0.00  0.00    +0.000 S 
BRANCH  14  15
ATOM     15  C   UNL     1       0.251  11.022  19.223  0.00  0.00    +0.000 C 
BRANCH  15  21
ATOM     16  C   UNL     1      -2.242  11.626  18.861  0.00  0.00    +0.000 A 
ATOM     17  C   UNL     1      -3.438  11.477  18.133  0.00  0.00    +0.000 A 
ATOM     18  C   UNL     1      -3.523  10.561  17.087  0.00  0.00    +0.000 A 
ATOM     19  C   UNL     1      -2.414   9.786  16.766  0.00  0.00    +0.000 A 
ATOM     20  C   UNL     1      -1.220   9.930  17.482  0.00  0.00    +0.000 A 
ATOM     21  C   UNL     1      -1.107  10.851  18.542  0.00  0.00    +0.000 A 
BRANCH  16  23
ATOM     22  N   UNL     1      -2.177  13.368  20.780  0.00  0.00    +0.000 NA
ATOM     23  C   UNL     1      -2.231  12.590  19.925  0.00  0.00    +0.000 C 
ENDBRANCH  16  23
ENDBRANCH  15  21
ENDBRANCH  14  15
ENDBRANCH   1  14
BRANCH  11  24
ATOM     24  C   UNL     1       4.565   5.699  17.543  0.00  0.00    +0.000 C 
BRANCH  24  25
ATOM     25  C   UNL     1       5.988   5.950  17.951  0.00  0.00    +0.000 C 
ATOM     26  C   UNL     1       7.096   4.935  17.780  0.00  0.00    +0.000 C 
ATOM     27  C   UNL     1       7.122   6.217  16.992  0.00  0.00    +0.000 C 
ENDBRANCH  24  25
ENDBRANCH  11  24
TORSDOF 6
ENDMDL
MODEL 9
REMARK VINA RESULT:      -7.7      1.942      2.359
REMARK  Name = 
REMARK  6 active torsions:
REMARK  status: ('A' for Active; 'I' for Inactive)
REMARK    1  A    between atoms: C_2  and  C_3
REMARK    2  A    between atoms: C_8  and  C_9
REMARK    3  A    between atoms: C_9  and  S_10
REMARK    4  A    between atoms: S_10  and  C_11
REMARK    5  A    between atoms: N_21  and  C_22
REMARK    6  A    between atoms: C_22  and  C_23
REMARK                            x       y       z     vdW  Elec       q    Type
REMARK                         _______ _______ _______ _____ _____    ______ ____
ROOT
ATOM      1  C   UNL     1       1.706   8.313  19.610  0.00  0.00    +0.000 A 
ATOM      2  N   UNL     1       1.982   8.990  18.465  0.00  0.00    +0.000 NA
ATOM      3  N   UNL     1       2.811   8.472  17.523  0.00  0.00    +0.000 NA
ATOM      4  C   UNL     1       3.360   7.255  17.807  0.00  0.00    +0.000 A 
ATOM      5  C   UNL     1       4.261   6.403  17.093  0.00  0.00    +0.000 A 
ATOM      6  C   UNL     1       4.939   6.477  15.853  0.00  0.00    +0.000 A 
ATOM      7  C   UNL     1       5.749   5.410  15.434  0.00  0.00    +0.000 A 
ATOM      8  C   UNL     1       5.891   4.274  16.224  0.00  0.00    +0.000 A 
ATOM      9  C   UNL     1       5.239   4.173  17.453  0.00  0.00    +0.000 A 
ATOM     10  C   UNL     1       4.436   5.247  17.875  0.00  0.00    +0.000 A 
ATOM     11  N   UNL     1       3.678   5.412  19.024  0.00  0.00    +0.000 N 
ATOM     12  C   UNL     1       3.027   6.619  18.988  0.00  0.00    +0.000 A 
ATOM     13  N   UNL     1       2.196   7.098  19.930  0.00  0.00    +0.000 NA
ENDROOT
BRANCH   1  14
ATOM     14  S   UNL     1       0.811   9.079  20.950  0.00  0.00    +0.000 S 
BRANCH  14  15
ATOM     15  C   UNL     1       0.811  10.861  20.553  0.00  0.00    +0.000 C 
BRANCH  15  21
ATOM     16  C   UNL     1      -1.124  12.579  20.694  0.00  0.00    +0.000 A 
ATOM     17  C   UNL     1      -2.254  13.089  21.362  0.00  0.00    +0.000 A 
ATOM     18  C   UNL     1      -2.644  12.569  22.593  0.00  0.00    +0.000 A 
ATOM     19  C   UNL     1      -1.906  11.540  23.166  0.00  0.00    +0.000 A 
ATOM     20  C   UNL     1      -0.783  11.025  22.508  0.00  0.00    +0.000 A 
ATOM     21  C   UNL     1      -0.369  11.530  21.260  0.00  0.00    +0.000 A 
BRANCH  16  23
ATOM     22  N   UNL     1      -0.490  13.673  18.430  0.00  0.00    +0.000 NA
ATOM     23  C   UNL     1      -0.783  13.165  19.428  0.00  0.00    +0.000 C 
ENDBRANCH  16  23
ENDBRANCH  15  21
ENDBRANCH  14  15
ENDBRANCH   1  14
BRANCH  11  24
ATOM     24  C   UNL     1       3.415   4.382  20.026  0.00  0.00    +0.000 C 
BRANCH  24  25
ATOM     25  C   UNL     1       2.259   3.454  19.791  0.00  0.00    +0.000 C 
ATOM     26  C   UNL     1       1.630   2.613  20.879  0.00  0.00    +0.000 C 
ATOM     27  C   UNL     1       0.841   3.719  20.232  0.00  0.00    +0.000 C 
ENDBRANCH  24  25
ENDBRANCH  11  24
TORSDOF 6
ENDMDL
