MODEL 1
REMARK VINA RESULT:      -8.0      0.000      0.000
REMARK  Name = 
REMARK  6 active torsions:
REMARK  status: ('A' for Active; 'I' for Inactive)
REMARK    1  A    between atoms: C_1  and  O_2
REMARK    2  A    between atoms: O_2  and  C_3
REMARK    3  A    between atoms: C_6  and  C_7
REMARK    4  A    between atoms: C_7  and  N_8
REMARK    5  A    between atoms: C_9  and  N_10
REMARK    6  A    between atoms: C_11  and  C_12
REMARK                            x       y       z     vdW  Elec       q    Type
REMARK                         _______ _______ _______ _____ _____    ______ ____
ROOT
ATOM      1  N   UNL     1       4.005   6.438  18.172  0.00  0.00    +0.000 N 
ATOM      2  C   UNL     1       5.219   6.341  17.502  0.00  0.00    +0.000 A 
ATOM      3  C   UNL     1       5.748   5.092  17.829  0.00  0.00    +0.000 A 
ATOM      4  C   UNL     1       4.722   4.420  18.487  0.00  0.00    +0.000 A 
ATOM      5  N   UNL     1       4.344   3.131  18.628  0.00  0.00    +0.000 NA
ATOM      6  C   UNL     1       3.242   3.029  19.410  0.00  0.00    +0.000 A 
ATOM      7  C   UNL     1       2.133   2.280  19.043  0.00  0.00    +0.000 A 
ATOM      8  C   UNL     1       0.996   2.241  19.856  0.00  0.00    +0.000 A 
ATOM      9  C   UNL     1       1.096   2.726  21.153  0.00  0.00    +0.000 A 
ATOM     10  C   UNL     1       2.182   3.525  21.472  0.00  0.00    +0.000 A 
ATOM     11  C   UNL     1       2.985   3.950  20.423  0.00  0.00    +0.000 A 
ATOM     12  N   UNL     1       3.267   5.254  20.219  0.00  0.00    +0.000 NA
ATOM     13  C   UNL     1       4.004   5.430  19.112  0.00  0.00    +0.000 A 
ENDROOT
BRANCH   2  14
ATOM     14  N   UNL     1       5.637   7.310  16.671  0.00  0.00    +0.000 N 
ATOM     15  H   UNL     1       6.411   7.184  16.023  0.00  0.00    +0.000 HD
ATOM     16  H   UNL     1       4.997   8.025  16.379  0.00  0.00    +0.000 HD
ENDBRANCH   2  14
BRANCH   3  17
ATOM     17  C   UNL     1       7.031   4.601  17.457  0.00  0.00    +0.000 C 
ATOM     18  N   UNL     1       8.135   4.298  17.228  0.00  0.00    +0.000 NA
ENDBRANCH   3  17
BRANCH   1  19
ATOM     19  C   UNL     1       2.795   6.989  17.557  0.00  0.00    +0.000 C 
BRANCH  19  23
ATOM     20  C   UNL     1       1.032  10.173  19.846  0.00  0.00    +0.000 A 
ATOM     21  C   UNL     1       1.461  10.417  18.542  0.00  0.00    +0.000 A 
ATOM     22  C   UNL     1       2.038   9.393  17.785  0.00  0.00    +0.000 A 
ATOM     23  C   UNL     1       2.217   8.120  18.345  0.00  0.00    +0.000 A 
ATOM     24  C   UNL     1       1.794   7.878  19.659  0.00  0.00    +0.000 A 
ATOM     25  C   UNL     1       1.217   8.910  20.406  0.00  0.00    +0.000 A 
BRANCH  20  27
ATOM     26  C   UNL     1       1.229  12.441  20.454  0.00  0.00    +0.000 C 
ATOM     27  O   UNL     1       0.465  11.236  20.492  0.00  0.00    +0.000 OA
ENDBRANCH  20  27
ENDBRANCH  19  23
ENDBRANCH   1  19
TORSDOF 5
ENDMDL
MODEL 2
REMARK VINA RESULT:      -8.0      0.484      1.110
REMARK  Name = 
REMARK  6 active torsions:
REMARK  status: ('A' for Active; 'I' for Inactive)
REMARK    1  A    between atoms: C_1  and  O_2
REMARK    2  A    between atoms: O_2  and  C_3
REMARK    3  A    between atoms: C_6  and  C_7
REMARK    4  A    between atoms: C_7  and  N_8
REMARK    5  A    between atoms: C_9  and  N_10
REMARK    6  A    between atoms: C_11  and  C_12
REMARK                            x       y       z     vdW  Elec       q    Type
REMARK                         _______ _______ _______ _____ _____    ______ ____
ROOT
ATOM      1  N   UNL     1       4.041   6.448  18.209  0.00  0.00    +0.000 N 
ATOM      2  C   UNL     1       5.274   6.369  17.572  0.00  0.00    +0.000 A 
ATOM      3  C   UNL     1       5.812   5.128  17.914  0.00  0.00    +0.000 A 
ATOM      4  C   UNL     1       4.779   4.441  18.544  0.00  0.00    +0.000 A 
ATOM      5  N   UNL     1       4.415   3.146  18.675  0.00  0.00    +0.000 NA
ATOM      6  C   UNL     1       3.295   3.029  19.426  0.00  0.00    +0.000 A 
ATOM      7  C   UNL     1       2.207   2.263  19.029  0.00  0.00    +0.000 A 
ATOM      8  C   UNL     1       1.049   2.207  19.811  0.00  0.00    +0.000 A 
ATOM      9  C   UNL     1       1.106   2.694  21.110  0.00  0.00    +0.000 A 
ATOM     10  C   UNL     1       2.172   3.508  21.459  0.00  0.00    +0.000 A 
ATOM     11  C   UNL     1       2.997   3.945  20.432  0.00  0.00    +0.000 A 
ATOM     12  N   UNL     1       3.265   5.254  20.236  0.00  0.00    +0.000 NA
ATOM     13  C   UNL     1       4.029   5.441  19.149  0.00  0.00    +0.000 A 
ENDROOT
BRANCH   2  14
ATOM     14  N   UNL     1       5.701   7.345  16.752  0.00  0.00    +0.000 N 
ATOM     15  H   UNL     1       5.568   7.313  15.744  0.00  0.00    +0.000 HD
ATOM     16  H   UNL     1       5.805   8.279  17.103  0.00  0.00    +0.000 HD
ENDBRANCH   2  14
BRANCH   3  17
ATOM     17  C   UNL     1       7.112   4.656  17.577  0.00  0.00    +0.000 C 
ATOM     18  N   UNL     1       8.197   4.250  17.434  0.00  0.00    +0.000 NA
ENDBRANCH   3  17
BRANCH   1  19
ATOM     19  C   UNL     1       2.841   6.982  17.561  0.00  0.00    +0.000 C 
BRANCH  19  23
ATOM     20  C   UNL     1       1.053  10.152  19.849  0.00  0.00    +0.000 A 
ATOM     21  C   UNL     1       1.256   8.905  20.440  0.00  0.00    +0.000 A 
ATOM     22  C   UNL     1       1.834   7.863  19.709  0.00  0.00    +0.000 A 
ATOM     23  C   UNL     1       2.186   8.059  18.365  0.00  0.00    +0.000 A 
ATOM     24  C   UNL     1       1.974   9.309  17.770  0.00  0.00    +0.000 A 
ATOM     25  C   UNL     1       1.396  10.345  18.512  0.00  0.00    +0.000 A 
BRANCH  20  27
ATOM     26  C   UNL     1      -0.242  10.600  21.766  0.00  0.00    +0.000 C 
ATOM     27  O   UNL     1       0.498  11.106  20.656  0.00  0.00    +0.000 OA
ENDBRANCH  20  27
ENDBRANCH  19  23
ENDBRANCH   1  19
TORSDOF 5
ENDMDL
MODEL 3
REMARK VINA RESULT:      -7.9      2.240      4.804
REMARK  Name = 
REMARK  6 active torsions:
REMARK  status: ('A' for Active; 'I' for Inactive)
REMARK    1  A    between atoms: C_1  and  O_2
REMARK    2  A    between atoms: O_2  and  C_3
REMARK    3  A    between atoms: C_6  and  C_7
REMARK    4  A    between atoms: C_7  and  N_8
REMARK    5  A    between atoms: C_9  and  N_10
REMARK    6  A    between atoms: C_11  and  C_12
REMARK                            x       y       z     vdW  Elec       q    Type
REMARK                         _______ _______ _______ _____ _____    ______ ____
ROOT
ATOM      1  N   UNL     1       3.143   2.957  17.988  0.00  0.00    +0.000 N 
ATOM      2  C   UNL     1       3.127   2.153  19.123  0.00  0.00    +0.000 A 
ATOM      3  C   UNL     1       4.399   2.248  19.687  0.00  0.00    +0.000 A 
ATOM      4  C   UNL     1       5.032   3.276  18.996  0.00  0.00    +0.000 A 
ATOM      5  N   UNL     1       5.982   4.193  19.281  0.00  0.00    +0.000 NA
ATOM      6  C   UNL     1       6.244   4.973  18.206  0.00  0.00    +0.000 A 
ATOM      7  C   UNL     1       6.288   6.359  18.282  0.00  0.00    +0.000 A 
ATOM      8  C   UNL     1       6.513   7.131  17.138  0.00  0.00    +0.000 A 
ATOM      9  C   UNL     1       6.968   6.493  15.992  0.00  0.00    +0.000 A 
ATOM     10  C   UNL     1       6.852   5.114  15.918  0.00  0.00    +0.000 A 
ATOM     11  C   UNL     1       6.106   4.488  16.908  0.00  0.00    +0.000 A 
ATOM     12  N   UNL     1       5.082   3.659  16.616  0.00  0.00    +0.000 NA
ATOM     13  C   UNL     1       4.469   3.226  17.728  0.00  0.00    +0.000 A 
ENDROOT
BRANCH   2  14
ATOM     14  N   UNL     1       2.006   1.528  19.519  0.00  0.00    +0.000 N 
ATOM     15  H   UNL     1       1.459   1.833  20.321  0.00  0.00    +0.000 HD
ATOM     16  H   UNL     1       1.464   1.008  18.853  0.00  0.00    +0.000 HD
ENDBRANCH   2  14
BRANCH   3  17
ATOM     17  C   UNL     1       4.877   1.508  20.806  0.00  0.00    +0.000 C 
ATOM     18  N   UNL     1       5.369   0.993  21.731  0.00  0.00    +0.000 NA
ENDBRANCH   3  17
BRANCH   1  19
ATOM     19  C   UNL     1       2.037   3.845  17.623  0.00  0.00    +0.000 C 
BRANCH  19  23
ATOM     20  C   UNL     1       1.978   7.374  20.078  0.00  0.00    +0.000 A 
ATOM     21  C   UNL     1       1.499   6.169  20.591  0.00  0.00    +0.000 A 
ATOM     22  C   UNL     1       1.509   5.012  19.806  0.00  0.00    +0.000 A 
ATOM     23  C   UNL     1       1.975   5.066  18.484  0.00  0.00    +0.000 A 
ATOM     24  C   UNL     1       2.447   6.279  17.966  0.00  0.00    +0.000 A 
ATOM     25  C   UNL     1       2.433   7.429  18.762  0.00  0.00    +0.000 A 
BRANCH  20  27
ATOM     26  C   UNL     1       0.655   8.722  21.487  0.00  0.00    +0.000 C 
ATOM     27  O   UNL     1       1.940   8.438  20.935  0.00  0.00    +0.000 OA
ENDBRANCH  20  27
ENDBRANCH  19  23
ENDBRANCH   1  19
TORSDOF 5
ENDMDL
MODEL 4
REMARK VINA RESULT:      -7.8      1.728      4.375
REMARK  Name = 
REMARK  6 active torsions:
REMARK  status: ('A' for Active; 'I' for Inactive)
REMARK    1  A    between atoms: C_1  and  O_2
REMARK    2  A    between atoms: O_2  and  C_3
REMARK    3  A    between atoms: C_6  and  C_7
REMARK    4  A    between atoms: C_7  and  N_8
REMARK    5  A    between atoms: C_9  and  N_10
REMARK    6  A    between atoms: C_11  and  C_12
REMARK                            x       y       z     vdW  Elec       q    Type
REMARK                         _______ _______ _______ _____ _____    ______ ____
ROOT
ATOM      1  N   UNL     1       2.990   5.724  19.078  0.00  0.00    +0.000 N 
ATOM      2  C   UNL     1       2.519   4.421  19.197  0.00  0.00    +0.000 A 
ATOM      3  C   UNL     1       3.528   3.593  18.707  0.00  0.00    +0.000 A 
ATOM      4  C   UNL     1       4.633   4.422  18.536  0.00  0.00    +0.000 A 
ATOM      5  N   UNL     1       5.974   4.269  18.585  0.00  0.00    +0.000 NA
ATOM      6  C   UNL     1       6.607   5.437  18.322  0.00  0.00    +0.000 A 
ATOM      7  C   UNL     1       7.628   5.930  19.123  0.00  0.00    +0.000 A 
ATOM      8  C   UNL     1       8.222   7.165  18.844  0.00  0.00    +0.000 A 
ATOM      9  C   UNL     1       7.976   7.751  17.610  0.00  0.00    +0.000 A 
ATOM     10  C   UNL     1       6.910   7.280  16.861  0.00  0.00    +0.000 A 
ATOM     11  C   UNL     1       6.041   6.395  17.484  0.00  0.00    +0.000 A 
ATOM     12  N   UNL     1       4.709   6.612  17.531  0.00  0.00    +0.000 NA
ATOM     13  C   UNL     1       4.082   5.660  18.239  0.00  0.00    +0.000 A 
ENDROOT
BRANCH   2  14
ATOM     14  N   UNL     1       1.331   4.159  19.767  0.00  0.00    +0.000 N 
ATOM     15  H   UNL     1       1.234   3.571  20.592  0.00  0.00    +0.000 HD
ATOM     16  H   UNL     1       0.574   4.808  19.661  0.00  0.00    +0.000 HD
ENDBRANCH   2  14
BRANCH   3  17
ATOM     17  C   UNL     1       3.445   2.182  18.533  0.00  0.00    +0.000 C 
ATOM     18  N   UNL     1       3.509   1.030  18.359  0.00  0.00    +0.000 NA
ENDBRANCH   3  17
BRANCH   1  19
ATOM     19  C   UNL     1       2.813   6.736  20.121  0.00  0.00    +0.000 C 
BRANCH  19  23
ATOM     20  C   UNL     1       0.301   9.988  18.859  0.00  0.00    +0.000 A 
ATOM     21  C   UNL     1       1.130   9.357  17.932  0.00  0.00    +0.000 A 
ATOM     22  C   UNL     1       1.955   8.300  18.326  0.00  0.00    +0.000 A 
ATOM     23  C   UNL     1       1.974   7.886  19.667  0.00  0.00    +0.000 A 
ATOM     24  C   UNL     1       1.148   8.526  20.599  0.00  0.00    +0.000 A 
ATOM     25  C   UNL     1       0.326   9.583  20.192  0.00  0.00    +0.000 A 
BRANCH  20  27
ATOM     26  C   UNL     1      -1.680  10.572  17.725  0.00  0.00    +0.000 C 
ATOM     27  O   UNL     1      -0.478  10.997  18.366  0.00  0.00    +0.000 OA
ENDBRANCH  20  27
ENDBRANCH  19  23
ENDBRANCH   1  19
TORSDOF 5
ENDMDL
MODEL 5
REMARK VINA RESULT:      -7.8      2.068      4.667
REMARK  Name = 
REMARK  6 active torsions:
REMARK  status: ('A' for Active; 'I' for Inactive)
REMARK    1  A    between atoms: C_1  and  O_2
REMARK    2  A    between atoms: O_2  and  C_3
REMARK    3  A    between atoms: C_6  and  C_7
REMARK    4  A    between atoms: C_7  and  N_8
REMARK    5  A    between atoms: C_9  and  N_10
REMARK    6  A    between atoms: C_11  and  C_12
REMARK                            x       y       z     vdW  Elec       q    Type
REMARK                         _______ _______ _______ _____ _____    ______ ____
ROOT
ATOM      1  N   UNL     1       3.133   3.005  18.032  0.00  0.00    +0.000 N 
ATOM      2  C   UNL     1       3.141   2.190  19.159  0.00  0.00    +0.000 A 
ATOM      3  C   UNL     1       4.428   2.268  19.690  0.00  0.00    +0.000 A 
ATOM      4  C   UNL     1       5.052   3.298  18.991  0.00  0.00    +0.000 A 
ATOM      5  N   UNL     1       6.017   4.204  19.260  0.00  0.00    +0.000 NA
ATOM      6  C   UNL     1       6.257   4.993  18.186  0.00  0.00    +0.000 A 
ATOM      7  C   UNL     1       6.315   6.377  18.273  0.00  0.00    +0.000 A 
ATOM      8  C   UNL     1       6.516   7.158  17.131  0.00  0.00    +0.000 A 
ATOM      9  C   UNL     1       6.934   6.528  15.967  0.00  0.00    +0.000 A 
ATOM     10  C   UNL     1       6.805   5.151  15.884  0.00  0.00    +0.000 A 
ATOM     11  C   UNL     1       6.080   4.522  16.887  0.00  0.00    +0.000 A 
ATOM     12  N   UNL     1       5.041   3.705  16.615  0.00  0.00    +0.000 NA
ATOM     13  C   UNL     1       4.454   3.265  17.739  0.00  0.00    +0.000 A 
ENDROOT
BRANCH   2  14
ATOM     14  N   UNL     1       2.025   1.571  19.579  0.00  0.00    +0.000 N 
ATOM     15  H   UNL     1       2.037   0.654  20.021  0.00  0.00    +0.000 HD
ATOM     16  H   UNL     1       1.219   2.113  19.830  0.00  0.00    +0.000 HD
ENDBRANCH   2  14
BRANCH   3  17
ATOM     17  C   UNL     1       4.930   1.513  20.787  0.00  0.00    +0.000 C 
ATOM     18  N   UNL     1       5.330   1.008  21.761  0.00  0.00    +0.000 NA
ENDBRANCH   3  17
BRANCH   1  19
ATOM     19  C   UNL     1       2.026   3.906  17.706  0.00  0.00    +0.000 C 
BRANCH  19  23
ATOM     20  C   UNL     1       1.859   7.405  20.198  0.00  0.00    +0.000 A 
ATOM     21  C   UNL     1       2.380   7.501  18.908  0.00  0.00    +0.000 A 
ATOM     22  C   UNL     1       2.444   6.373  18.086  0.00  0.00    +0.000 A 
ATOM     23  C   UNL     1       2.009   5.129  18.566  0.00  0.00    +0.000 A 
ATOM     24  C   UNL     1       1.494   5.031  19.865  0.00  0.00    +0.000 A 
ATOM     25  C   UNL     1       1.435   6.168  20.678  0.00  0.00    +0.000 A 
BRANCH  20  27
ATOM     26  C   UNL     1       0.874   9.531  20.452  0.00  0.00    +0.000 C 
ATOM     27  O   UNL     1       1.825   8.571  20.911  0.00  0.00    +0.000 OA
ENDBRANCH  20  27
ENDBRANCH  19  23
ENDBRANCH   1  19
TORSDOF 5
ENDMDL
MODEL 6
REMARK VINA RESULT:      -7.8      1.691      4.402
REMARK  Name = 
REMARK  6 active torsions:
REMARK  status: ('A' for Active; 'I' for Inactive)
REMARK    1  A    between atoms: C_1  and  O_2
REMARK    2  A    between atoms: O_2  and  C_3
REMARK    3  A    between atoms: C_6  and  C_7
REMARK    4  A    between atoms: C_7  and  N_8
REMARK    5  A    between atoms: C_9  and  N_10
REMARK    6  A    between atoms: C_11  and  C_12
REMARK                            x       y       z     vdW  Elec       q    Type
REMARK                         _______ _______ _______ _____ _____    ______ ____
ROOT
ATOM      1  N   UNL     1       3.009   5.709  19.058  0.00  0.00    +0.000 N 
ATOM      2  C   UNL     1       2.544   4.404  19.168  0.00  0.00    +0.000 A 
ATOM      3  C   UNL     1       3.560   3.583  18.679  0.00  0.00    +0.000 A 
ATOM      4  C   UNL     1       4.662   4.419  18.518  0.00  0.00    +0.000 A 
ATOM      5  N   UNL     1       6.003   4.273  18.574  0.00  0.00    +0.000 NA
ATOM      6  C   UNL     1       6.631   5.446  18.321  0.00  0.00    +0.000 A 
ATOM      7  C   UNL     1       7.645   5.940  19.130  0.00  0.00    +0.000 A 
ATOM      8  C   UNL     1       8.235   7.179  18.861  0.00  0.00    +0.000 A 
ATOM      9  C   UNL     1       7.993   7.770  17.629  0.00  0.00    +0.000 A 
ATOM     10  C   UNL     1       6.933   7.298  16.871  0.00  0.00    +0.000 A 
ATOM     11  C   UNL     1       6.065   6.405  17.485  0.00  0.00    +0.000 A 
ATOM     12  N   UNL     1       4.732   6.615  17.525  0.00  0.00    +0.000 NA
ATOM     13  C   UNL     1       4.106   5.656  18.225  0.00  0.00    +0.000 A 
ENDROOT
BRANCH   2  14
ATOM     14  N   UNL     1       1.354   4.132  19.730  0.00  0.00    +0.000 N 
ATOM     15  H   UNL     1       0.776   4.846  20.167  0.00  0.00    +0.000 HD
ATOM     16  H   UNL     1       0.824   3.340  19.415  0.00  0.00    +0.000 HD
ENDBRANCH   2  14
BRANCH   3  17
ATOM     17  C   UNL     1       3.485   2.173  18.497  0.00  0.00    +0.000 C 
ATOM     18  N   UNL     1       3.557   1.021  18.322  0.00  0.00    +0.000 NA
ENDBRANCH   3  17
BRANCH   1  19
ATOM     19  C   UNL     1       2.821   6.715  20.106  0.00  0.00    +0.000 C 
BRANCH  19  23
ATOM     20  C   UNL     1       0.441  10.039  18.779  0.00  0.00    +0.000 A 
ATOM     21  C   UNL     1       0.391   9.646  20.116  0.00  0.00    +0.000 A 
ATOM     22  C   UNL     1       1.157   8.565  20.563  0.00  0.00    +0.000 A 
ATOM     23  C   UNL     1       1.959   7.852  19.661  0.00  0.00    +0.000 A 
ATOM     24  C   UNL     1       2.002   8.242  18.316  0.00  0.00    +0.000 A 
ATOM     25  C   UNL     1       1.231   9.326  17.881  0.00  0.00    +0.000 A 
BRANCH  20  27
ATOM     26  C   UNL     1      -1.468  11.324  19.290  0.00  0.00    +0.000 C 
ATOM     27  O   UNL     1      -0.332  11.118  18.451  0.00  0.00    +0.000 OA
ENDBRANCH  20  27
ENDBRANCH  19  23
ENDBRANCH   1  19
TORSDOF 5
ENDMDL
MODEL 7
REMARK VINA RESULT:      -7.4      1.963      2.832
REMARK  Name = 
REMARK  6 active torsions:
REMARK  status: ('A' for Active; 'I' for Inactive)
REMARK    1  A    between atoms: C_1  and  O_2
REMARK    2  A    between atoms: O_2  and  C_3
REMARK    3  A    between atoms: C_6  and  C_7
REMARK    4  A    between atoms: C_7  and  N_8
REMARK    5  A    between atoms: C_9  and  N_10
REMARK    6  A    between atoms: C_11  and  C_12
REMARK                            x       y       z     vdW  Elec       q    Type
REMARK                         _______ _______ _______ _____ _____    ______ ____
ROOT
ATOM      1  N   UNL     1       6.024   4.653  17.723  0.00  0.00    +0.000 N 
ATOM      2  C   UNL     1       6.512   4.771  16.427  0.00  0.00    +0.000 A 
ATOM      3  C   UNL     1       5.643   4.044  15.613  0.00  0.00    +0.000 A 
ATOM      4  C   UNL     1       4.560   3.724  16.427  0.00  0.00    +0.000 A 
ATOM      5  N   UNL     1       3.239   3.509  16.241  0.00  0.00    +0.000 NA
ATOM      6  C   UNL     1       2.625   3.210  17.410  0.00  0.00    +0.000 A 
ATOM      7  C   UNL     1       1.456   3.834  17.820  0.00  0.00    +0.000 A 
ATOM      8  C   UNL     1       0.880   3.532  19.058  0.00  0.00    +0.000 A 
ATOM      9  C   UNL     1       1.331   2.409  19.738  0.00  0.00    +0.000 A 
ATOM     10  C   UNL     1       2.535   1.845  19.348  0.00  0.00    +0.000 A 
ATOM     11  C   UNL     1       3.303   2.560  18.440  0.00  0.00    +0.000 A 
ATOM     12  N   UNL     1       4.594   2.872  18.683  0.00  0.00    +0.000 NA
ATOM     13  C   UNL     1       5.112   3.620  17.697  0.00  0.00    +0.000 A 
ENDROOT
BRANCH   2  14
ATOM     14  N   UNL     1       7.581   5.537  16.151  0.00  0.00    +0.000 N 
ATOM     15  H   UNL     1       7.589   6.220  15.397  0.00  0.00    +0.000 HD
ATOM     16  H   UNL     1       8.242   5.748  16.875  0.00  0.00    +0.000 HD
ENDBRANCH   2  14
BRANCH   3  17
ATOM     17  C   UNL     1       5.808   3.795  14.222  0.00  0.00    +0.000 C 
ATOM     18  N   UNL     1       6.048   3.676  13.085  0.00  0.00    +0.000 NA
ENDBRANCH   3  17
BRANCH   1  19
ATOM     19  C   UNL     1       5.966   5.777  18.660  0.00  0.00    +0.000 C 
BRANCH  19  23
ATOM     20  C   UNL     1       2.221   7.867  18.374  0.00  0.00    +0.000 A 
ATOM     21  C   UNL     1       3.220   8.112  17.433  0.00  0.00    +0.000 A 
ATOM     22  C   UNL     1       4.445   7.442  17.513  0.00  0.00    +0.000 A 
ATOM     23  C   UNL     1       4.685   6.541  18.560  0.00  0.00    +0.000 A 
ATOM     24  C   UNL     1       3.684   6.303  19.511  0.00  0.00    +0.000 A 
ATOM     25  C   UNL     1       2.462   6.978  19.419  0.00  0.00    +0.000 A 
BRANCH  20  27
ATOM     26  C   UNL     1       1.167   9.975  18.347  0.00  0.00    +0.000 C 
ATOM     27  O   UNL     1       1.056   8.560  18.194  0.00  0.00    +0.000 OA
ENDBRANCH  20  27
ENDBRANCH  19  23
ENDBRANCH   1  19
TORSDOF 5
ENDMDL
MODEL 8
REMARK VINA RESULT:      -7.3      3.481      6.247
REMARK  Name = 
REMARK  6 active torsions:
REMARK  status: ('A' for Active; 'I' for Inactive)
REMARK    1  A    between atoms: C_1  and  O_2
REMARK    2  A    between atoms: O_2  and  C_3
REMARK    3  A    between atoms: C_6  and  C_7
REMARK    4  A    between atoms: C_7  and  N_8
REMARK    5  A    between atoms: C_9  and  N_10
REMARK    6  A    between atoms: C_11  and  C_12
REMARK                            x       y       z     vdW  Elec       q    Type
REMARK                         _______ _______ _______ _____ _____    ______ ____
ROOT
ATOM      1  N   UNL     1       3.812   5.721  17.358  0.00  0.00    +0.000 N 
ATOM      2  C   UNL     1       3.767   7.100  17.191  0.00  0.00    +0.000 A 
ATOM      3  C   UNL     1       2.783   7.569  18.061  0.00  0.00    +0.000 A 
ATOM      4  C   UNL     1       2.453   6.480  18.863  0.00  0.00    +0.000 A 
ATOM      5  N   UNL     1       2.011   6.308  20.128  0.00  0.00    +0.000 NA
ATOM      6  C   UNL     1       1.837   4.994  20.408  0.00  0.00    +0.000 A 
ATOM      7  C   UNL     1       2.340   4.404  21.559  0.00  0.00    +0.000 A 
ATOM      8  C   UNL     1       2.182   3.033  21.788  0.00  0.00    +0.000 A 
ATOM      9  C   UNL     1       1.281   2.333  20.997  0.00  0.00    +0.000 A 
ATOM     10  C   UNL     1       0.845   2.922  19.821  0.00  0.00    +0.000 A 
ATOM     11  C   UNL     1       1.494   4.080  19.415  0.00  0.00    +0.000 A 
ATOM     12  N   UNL     1       2.036   4.204  18.185  0.00  0.00    +0.000 NA
ATOM     13  C   UNL     1       2.665   5.381  18.042  0.00  0.00    +0.000 A 
ENDROOT
BRANCH   2  14
ATOM     14  N   UNL     1       4.624   7.732  16.371  0.00  0.00    +0.000 N 
ATOM     15  H   UNL     1       5.184   8.528  16.667  0.00  0.00    +0.000 HD
ATOM     16  H   UNL     1       5.029   7.237  15.598  0.00  0.00    +0.000 HD
ENDBRANCH   2  14
BRANCH   3  17
ATOM     17  C   UNL     1       2.316   8.910  18.155  0.00  0.00    +0.000 C 
ATOM     18  N   UNL     1       1.944  10.015  18.097  0.00  0.00    +0.000 NA
ENDBRANCH   3  17
BRANCH   1  19
ATOM     19  C   UNL     1       5.064   4.964  17.424  0.00  0.00    +0.000 C 
BRANCH  19  23
ATOM     20  C   UNL     1       6.731   4.273  13.523  0.00  0.00    +0.000 A 
ATOM     21  C   UNL     1       5.445   3.819  13.813  0.00  0.00    +0.000 A 
ATOM     22  C   UNL     1       4.889   4.033  15.078  0.00  0.00    +0.000 A 
ATOM     23  C   UNL     1       5.635   4.682  16.072  0.00  0.00    +0.000 A 
ATOM     24  C   UNL     1       6.930   5.130  15.783  0.00  0.00    +0.000 A 
ATOM     25  C   UNL     1       7.476   4.911  14.513  0.00  0.00    +0.000 A 
BRANCH  20  27
ATOM     26  C   UNL     1       6.617   2.868  11.635  0.00  0.00    +0.000 C 
ATOM     27  O   UNL     1       7.173   4.028  12.252  0.00  0.00    +0.000 OA
ENDBRANCH  20  27
ENDBRANCH  19  23
ENDBRANCH   1  19
TORSDOF 5
ENDMDL
MODEL 9
REMARK VINA RESULT:      -7.2      1.738      4.319
REMARK  Name = 
REMARK  6 active torsions:
REMARK  status: ('A' for Active; 'I' for Inactive)
REMARK    1  A    between atoms: C_1  and  O_2
REMARK    2  A    between atoms: O_2  and  C_3
REMARK    3  A    between atoms: C_6  and  C_7
REMARK    4  A    between atoms: C_7  and  N_8
REMARK    5  A    between atoms: C_9  and  N_10
REMARK    6  A    between atoms: C_11  and  C_12
REMARK                            x       y       z     vdW  Elec       q    Type
REMARK                         _______ _______ _______ _____ _____    ______ ____
ROOT
ATOM      1  N   UNL     1       2.669   6.117  19.150  0.00  0.00    +0.000 N 
ATOM      2  C   UNL     1       2.207   5.482  20.297  0.00  0.00    +0.000 A 
ATOM      3  C   UNL     1       2.838   4.239  20.338  0.00  0.00    +0.000 A 
ATOM      4  C   UNL     1       3.812   4.289  19.344  0.00  0.00    +0.000 A 
ATOM      5  N   UNL     1       5.025   3.727  19.149  0.00  0.00    +0.000 NA
ATOM      6  C   UNL     1       5.559   4.121  17.968  0.00  0.00    +0.000 A 
ATOM      7  C   UNL     1       6.860   4.593  17.858  0.00  0.00    +0.000 A 
ATOM      8  C   UNL     1       7.357   5.037  16.628  0.00  0.00    +0.000 A 
ATOM      9  C   UNL     1       6.638   4.737  15.480  0.00  0.00    +0.000 A 
ATOM     10  C   UNL     1       5.320   4.329  15.618  0.00  0.00    +0.000 A 
ATOM     11  C   UNL     1       4.752   4.443  16.880  0.00  0.00    +0.000 A 
ATOM     12  N   UNL     1       3.595   5.106  17.086  0.00  0.00    +0.000 NA
ATOM     13  C   UNL     1       3.275   5.141  18.389  0.00  0.00    +0.000 A 
ENDROOT
BRANCH   2  14
ATOM     14  N   UNL     1       1.374   6.101  21.150  0.00  0.00    +0.000 N 
ATOM     15  H   UNL     1       1.091   7.072  21.036  0.00  0.00    +0.000 HD
ATOM     16  H   UNL     1       0.714   5.562  21.680  0.00  0.00    +0.000 HD
ENDBRANCH   2  14
BRANCH   3  17
ATOM     17  C   UNL     1       2.589   3.202  21.280  0.00  0.00    +0.000 C 
ATOM     18  N   UNL     1       2.340   2.448  22.137  0.00  0.00    +0.000 NA
ENDBRANCH   3  17
BRANCH   1  19
ATOM     19  C   UNL     1       3.039   7.534  19.116  0.00  0.00    +0.000 C 
BRANCH  19  23
ATOM     20  C   UNL     1      -0.324  10.204  18.921  0.00  0.00    +0.000 A 
ATOM     21  C   UNL     1       0.165   9.801  20.163  0.00  0.00    +0.000 A 
ATOM     22  C   UNL     1       1.256   8.931  20.244  0.00  0.00    +0.000 A 
ATOM     23  C   UNL     1       1.848   8.436  19.073  0.00  0.00    +0.000 A 
ATOM     24  C   UNL     1       1.350   8.835  17.825  0.00  0.00    +0.000 A 
ATOM     25  C   UNL     1       0.258   9.706  17.757  0.00  0.00    +0.000 A 
BRANCH  20  27
ATOM     26  C   UNL     1      -1.939  11.389  17.679  0.00  0.00    +0.000 C 
ATOM     27  O   UNL     1      -1.382  11.070  18.954  0.00  0.00    +0.000 OA
ENDBRANCH  20  27
ENDBRANCH  19  23
ENDBRANCH   1  19
TORSDOF 5
ENDMDL
