MODEL 1
REMARK VINA RESULT:      -7.3      0.000      0.000
REMARK  Name = 
REMARK  3 active torsions:
REMARK  status: ('A' for Active; 'I' for Inactive)
REMARK    1  A    between atoms: C_5  and  N_6
REMARK    2  A    between atoms: N_9  and  C_10
REMARK    3  A    between atoms: C_10  and  C_11
REMARK                            x       y       z     vdW  Elec       q    Type
REMARK                         _______ _______ _______ _____ _____    ______ ____
ROOT
ATOM      1  N   UNL     1       5.577   4.891  15.671  0.00  0.00    +0.000 N 
ATOM      2  C   UNL     1       4.968   3.857  16.519  0.00  0.00    +0.000 C 
ATOM      3  C   UNL     1       5.121   4.260  18.010  0.00  0.00    +0.000 C 
ATOM      4  N   UNL     1       4.630   5.620  18.364  0.00  0.00    +0.000 NA
ATOM      5  C   UNL     1       5.271   6.589  17.430  0.00  0.00    +0.000 C 
ATOM      6  C   UNL     1       5.119   6.267  15.923  0.00  0.00    +0.000 C 
ENDROOT
BRANCH   1  11
ATOM      7  C   UNL     1       6.024   3.403  12.320  0.00  0.00    +0.000 A 
ATOM      8  C   UNL     1       7.167   4.073  11.924  0.00  0.00    +0.000 A 
ATOM      9  N   UNL     1       7.836   4.934  12.714  0.00  0.00    +0.000 NA
ATOM     10  C   UNL     1       7.310   5.150  13.948  0.00  0.00    +0.000 A 
ATOM     11  C   UNL     1       6.151   4.557  14.457  0.00  0.00    +0.000 A 
ATOM     12  C   UNL     1       5.526   3.645  13.599  0.00  0.00    +0.000 A 
ENDBRANCH   1  11
BRANCH   4  13
ATOM     13  C   UNL     1       3.160   5.646  18.270  0.00  0.00    +0.000 C 
BRANCH  13  14
ATOM     14  C   UNL     1       2.543   6.853  18.891  0.00  0.00    +0.000 A 
ATOM     15  N   UNL     1       2.222   7.974  18.276  0.00  0.00    +0.000 NA
ATOM     16  C   UNL     1       1.595   8.744  19.221  0.00  0.00    +0.000 A 
ATOM     17  C   UNL     1       1.014  10.011  19.096  0.00  0.00    +0.000 A 
ATOM     18  C   UNL     1       0.394  10.578  20.216  0.00  0.00    +0.000 A 
ATOM     19  C   UNL     1       0.364   9.899  21.436  0.00  0.00    +0.000 A 
ATOM     20  C   UNL     1       0.956   8.638  21.586  0.00  0.00    +0.000 A 
ATOM     21  C   UNL     1       1.559   8.095  20.449  0.00  0.00    +0.000 A 
ATOM     22  N   UNL     1       2.207   6.908  20.223  0.00  0.00    +0.000 N 
ATOM     23  H   UNL     1       2.400   6.182  20.898  0.00  0.00    +0.000 HD
ENDBRANCH  13  14
ENDBRANCH   4  13
TORSDOF 3
ENDMDL
MODEL 2
REMARK VINA RESULT:      -7.2      1.151      1.280
REMARK  Name = 
REMARK  3 active torsions:
REMARK  status: ('A' for Active; 'I' for Inactive)
REMARK    1  A    between atoms: C_5  and  N_6
REMARK    2  A    between atoms: N_9  and  C_10
REMARK    3  A    between atoms: C_10  and  C_11
REMARK                            x       y       z     vdW  Elec       q    Type
REMARK                         _______ _______ _______ _____ _____    ______ ____
ROOT
ATOM      1  N   UNL     1       5.205   4.597  17.004  0.00  0.00    +0.000 N 
ATOM      2  C   UNL     1       4.305   3.488  17.348  0.00  0.00    +0.000 C 
ATOM      3  C   UNL     1       4.228   3.350  18.892  0.00  0.00    +0.000 C 
ATOM      4  N   UNL     1       3.876   4.593  19.634  0.00  0.00    +0.000 NA
ATOM      5  C   UNL     1       4.815   5.663  19.191  0.00  0.00    +0.000 C 
ATOM      6  C   UNL     1       4.907   5.880  17.661  0.00  0.00    +0.000 C 
ENDROOT
BRANCH   1  11
ATOM      7  C   UNL     1       6.177   3.886  13.512  0.00  0.00    +0.000 A 
ATOM      8  C   UNL     1       7.294   4.695  13.417  0.00  0.00    +0.000 A 
ATOM      9  N   UNL     1       7.785   5.408  14.448  0.00  0.00    +0.000 NA
ATOM     10  C   UNL     1       7.100   5.324  15.618  0.00  0.00    +0.000 A 
ATOM     11  C   UNL     1       5.946   4.565  15.836  0.00  0.00    +0.000 A 
ATOM     12  C   UNL     1       5.511   3.819  14.735  0.00  0.00    +0.000 A 
ENDBRANCH   1  11
BRANCH   4  13
ATOM     13  C   UNL     1       2.470   4.939  19.364  0.00  0.00    +0.000 C 
BRANCH  13  14
ATOM     14  C   UNL     1       2.125   6.349  19.707  0.00  0.00    +0.000 A 
ATOM     15  N   UNL     1       2.007   7.354  18.862  0.00  0.00    +0.000 NA
ATOM     16  C   UNL     1       1.580   8.417  19.615  0.00  0.00    +0.000 A 
ATOM     17  C   UNL     1       1.254   9.717  19.216  0.00  0.00    +0.000 A 
ATOM     18  C   UNL     1       0.800  10.622  20.184  0.00  0.00    +0.000 A 
ATOM     19  C   UNL     1       0.684  10.238  21.522  0.00  0.00    +0.000 A 
ATOM     20  C   UNL     1       1.022   8.945  21.944  0.00  0.00    +0.000 A 
ATOM     21  C   UNL     1       1.463   8.064  20.955  0.00  0.00    +0.000 A 
ATOM     22  N   UNL     1       1.858   6.751  20.993  0.00  0.00    +0.000 N 
ATOM     23  H   UNL     1       1.930   6.162  21.811  0.00  0.00    +0.000 HD
ENDBRANCH  13  14
ENDBRANCH   4  13
TORSDOF 3
ENDMDL
MODEL 3
REMARK VINA RESULT:      -7.1      4.220      6.397
REMARK  Name = 
REMARK  3 active torsions:
REMARK  status: ('A' for Active; 'I' for Inactive)
REMARK    1  A    between atoms: C_5  and  N_6
REMARK    2  A    between atoms: N_9  and  C_10
REMARK    3  A    between atoms: C_10  and  C_11
REMARK                            x       y       z     vdW  Elec       q    Type
REMARK                         _______ _______ _______ _____ _____    ______ ____
ROOT
ATOM      1  N   UNL     1       4.739   4.965  17.534  0.00  0.00    +0.000 N 
ATOM      2  C   UNL     1       6.096   4.409  17.446  0.00  0.00    +0.000 C 
ATOM      3  C   UNL     1       6.952   5.292  16.499  0.00  0.00    +0.000 C 
ATOM      4  N   UNL     1       6.974   6.746  16.818  0.00  0.00    +0.000 NA
ATOM      5  C   UNL     1       5.560   7.207  16.924  0.00  0.00    +0.000 C 
ATOM      6  C   UNL     1       4.662   6.392  17.887  0.00  0.00    +0.000 C 
ENDROOT
BRANCH   1  11
ATOM      7  C   UNL     1       2.740   1.901  18.047  0.00  0.00    +0.000 A 
ATOM      8  C   UNL     1       1.528   2.474  18.384  0.00  0.00    +0.000 A 
ATOM      9  N   UNL     1       1.309   3.802  18.389  0.00  0.00    +0.000 NA
ATOM     10  C   UNL     1       2.370   4.588  18.070  0.00  0.00    +0.000 A 
ATOM     11  C   UNL     1       3.650   4.135  17.736  0.00  0.00    +0.000 A 
ATOM     12  C   UNL     1       3.799   2.744  17.713  0.00  0.00    +0.000 A 
ENDBRANCH   1  11
BRANCH   4  13
ATOM     13  C   UNL     1       7.723   6.958  18.069  0.00  0.00    +0.000 C 
BRANCH  13  14
ATOM     14  C   UNL     1       8.230   8.351  18.233  0.00  0.00    +0.000 A 
ATOM     15  N   UNL     1       7.991   9.372  17.434  0.00  0.00    +0.000 NA
ATOM     16  C   UNL     1       8.572  10.455  18.040  0.00  0.00    +0.000 A 
ATOM     17  C   UNL     1       8.583  11.798  17.645  0.00  0.00    +0.000 A 
ATOM     18  C   UNL     1       9.222  12.734  18.467  0.00  0.00    +0.000 A 
ATOM     19  C   UNL     1       9.845  12.335  19.653  0.00  0.00    +0.000 A 
ATOM     20  C   UNL     1       9.860  10.994  20.056  0.00  0.00    +0.000 A 
ATOM     21  C   UNL     1       9.207  10.086  19.220  0.00  0.00    +0.000 A 
ATOM     22  N   UNL     1       9.011   8.731  19.299  0.00  0.00    +0.000 N 
ATOM     23  H   UNL     1       9.356   8.108  20.015  0.00  0.00    +0.000 HD
ENDBRANCH  13  14
ENDBRANCH   4  13
TORSDOF 3
ENDMDL
MODEL 4
REMARK VINA RESULT:      -7.1      4.255      6.408
REMARK  Name = 
REMARK  3 active torsions:
REMARK  status: ('A' for Active; 'I' for Inactive)
REMARK    1  A    between atoms: C_5  and  N_6
REMARK    2  A    between atoms: N_9  and  C_10
REMARK    3  A    between atoms: C_10  and  C_11
REMARK                            x       y       z     vdW  Elec       q    Type
REMARK                         _______ _______ _______ _____ _____    ______ ____
ROOT
ATOM      1  N   UNL     1       4.879   4.954  17.757  0.00  0.00    +0.000 N 
ATOM      2  C   UNL     1       6.247   4.420  17.702  0.00  0.00    +0.000 C 
ATOM      3  C   UNL     1       7.088   5.264  16.707  0.00  0.00    +0.000 C 
ATOM      4  N   UNL     1       7.082   6.734  16.944  0.00  0.00    +0.000 NA
ATOM      5  C   UNL     1       5.660   7.174  17.023  0.00  0.00    +0.000 C 
ATOM      6  C   UNL     1       4.775   6.398  18.029  0.00  0.00    +0.000 C 
ENDROOT
BRANCH   1  11
ATOM      7  C   UNL     1       1.421   3.813  18.371  0.00  0.00    +0.000 A 
ATOM      8  C   UNL     1       1.608   2.448  18.258  0.00  0.00    +0.000 A 
ATOM      9  N   UNL     1       2.810   1.877  18.058  0.00  0.00    +0.000 NA
ATOM     10  C   UNL     1       3.866   2.723  17.936  0.00  0.00    +0.000 A 
ATOM     11  C   UNL     1       3.806   4.117  18.005  0.00  0.00    +0.000 A 
ATOM     12  C   UNL     1       2.533   4.645  18.252  0.00  0.00    +0.000 A 
ENDBRANCH   1  11
BRANCH   4  13
ATOM     13  C   UNL     1       7.826   7.030  18.181  0.00  0.00    +0.000 C 
BRANCH  13  14
ATOM     14  C   UNL     1       8.268   8.450  18.288  0.00  0.00    +0.000 A 
ATOM     15  N   UNL     1       7.919   9.442  17.492  0.00  0.00    +0.000 NA
ATOM     16  C   UNL     1       8.483  10.566  18.038  0.00  0.00    +0.000 A 
ATOM     17  C   UNL     1       8.394  11.899  17.623  0.00  0.00    +0.000 A 
ATOM     18  C   UNL     1       9.040  12.883  18.382  0.00  0.00    +0.000 A 
ATOM     19  C   UNL     1       9.766  12.540  19.526  0.00  0.00    +0.000 A 
ATOM     20  C   UNL     1       9.881  11.208  19.947  0.00  0.00    +0.000 A 
ATOM     21  C   UNL     1       9.219  10.252  19.175  0.00  0.00    +0.000 A 
ATOM     22  N   UNL     1       9.101   8.891  19.288  0.00  0.00    +0.000 N 
ATOM     23  H   UNL     1       9.530   8.300  19.986  0.00  0.00    +0.000 HD
ENDBRANCH  13  14
ENDBRANCH   4  13
TORSDOF 3
ENDMDL
MODEL 5
REMARK VINA RESULT:      -7.0      2.899      3.784
REMARK  Name = 
REMARK  3 active torsions:
REMARK  status: ('A' for Active; 'I' for Inactive)
REMARK    1  A    between atoms: C_5  and  N_6
REMARK    2  A    between atoms: N_9  and  C_10
REMARK    3  A    between atoms: C_10  and  C_11
REMARK                            x       y       z     vdW  Elec       q    Type
REMARK                         _______ _______ _______ _____ _____    ______ ____
ROOT
ATOM      1  N   UNL     1       6.386   5.130  15.421  0.00  0.00    +0.000 N 
ATOM      2  C   UNL     1       7.548   5.359  16.290  0.00  0.00    +0.000 C 
ATOM      3  C   UNL     1       7.270   6.579  17.208  0.00  0.00    +0.000 C 
ATOM      4  N   UNL     1       6.003   6.524  17.989  0.00  0.00    +0.000 NA
ATOM      5  C   UNL     1       4.894   6.251  17.030  0.00  0.00    +0.000 C 
ATOM      6  C   UNL     1       5.091   5.020  16.112  0.00  0.00    +0.000 C 
ENDROOT
BRANCH   1  11
ATOM      7  C   UNL     1       5.703   3.243  12.320  0.00  0.00    +0.000 A 
ATOM      8  C   UNL     1       6.731   3.723  11.530  0.00  0.00    +0.000 A 
ATOM      9  N   UNL     1       7.672   4.578  11.973  0.00  0.00    +0.000 NA
ATOM     10  C   UNL     1       7.552   4.990  13.262  0.00  0.00    +0.000 A 
ATOM     11  C   UNL     1       6.548   4.600  14.153  0.00  0.00    +0.000 A 
ATOM     12  C   UNL     1       5.625   3.682  13.641  0.00  0.00    +0.000 A 
ENDBRANCH   1  11
BRANCH   4  13
ATOM     13  C   UNL     1       6.114   5.480  19.022  0.00  0.00    +0.000 C 
BRANCH  13  14
ATOM     14  C   UNL     1       4.811   4.846  19.374  0.00  0.00    +0.000 A 
ATOM     15  N   UNL     1       3.759   5.450  19.890  0.00  0.00    +0.000 NA
ATOM     16  C   UNL     1       2.776   4.496  19.941  0.00  0.00    +0.000 A 
ATOM     17  C   UNL     1       1.446   4.607  20.360  0.00  0.00    +0.000 A 
ATOM     18  C   UNL     1       0.620   3.479  20.280  0.00  0.00    +0.000 A 
ATOM     19  C   UNL     1       1.116   2.264  19.800  0.00  0.00    +0.000 A 
ATOM     20  C   UNL     1       2.449   2.128  19.392  0.00  0.00    +0.000 A 
ATOM     21  C   UNL     1       3.245   3.272  19.476  0.00  0.00    +0.000 A 
ATOM     22  N   UNL     1       4.558   3.512  19.161  0.00  0.00    +0.000 N 
ATOM     23  H   UNL     1       5.231   2.843  18.815  0.00  0.00    +0.000 HD
ENDBRANCH  13  14
ENDBRANCH   4  13
TORSDOF 3
ENDMDL
MODEL 6
REMARK VINA RESULT:      -7.0      2.877      3.776
REMARK  Name = 
REMARK  3 active torsions:
REMARK  status: ('A' for Active; 'I' for Inactive)
REMARK    1  A    between atoms: C_5  and  N_6
REMARK    2  A    between atoms: N_9  and  C_10
REMARK    3  A    between atoms: C_10  and  C_11
REMARK                            x       y       z     vdW  Elec       q    Type
REMARK                         _______ _______ _______ _____ _____    ______ ____
ROOT
ATOM      1  N   UNL     1       6.428   5.187  15.464  0.00  0.00    +0.000 N 
ATOM      2  C   UNL     1       7.595   5.369  16.338  0.00  0.00    +0.000 C 
ATOM      3  C   UNL     1       7.368   6.606  17.247  0.00  0.00    +0.000 C 
ATOM      4  N   UNL     1       6.096   6.612  18.022  0.00  0.00    +0.000 NA
ATOM      5  C   UNL     1       4.980   6.384  17.059  0.00  0.00    +0.000 C 
ATOM      6  C   UNL     1       5.126   5.139  16.149  0.00  0.00    +0.000 C 
ENDROOT
BRANCH   1  11
ATOM      7  C   UNL     1       5.709   3.254  12.400  0.00  0.00    +0.000 A 
ATOM      8  C   UNL     1       6.716   3.734  11.585  0.00  0.00    +0.000 A 
ATOM      9  N   UNL     1       7.657   4.604  12.000  0.00  0.00    +0.000 NA
ATOM     10  C   UNL     1       7.556   5.031  13.286  0.00  0.00    +0.000 A 
ATOM     11  C   UNL     1       6.573   4.642  14.200  0.00  0.00    +0.000 A 
ATOM     12  C   UNL     1       5.650   3.708  13.717  0.00  0.00    +0.000 A 
ENDBRANCH   1  11
BRANCH   4  13
ATOM     13  C   UNL     1       6.155   5.571  19.062  0.00  0.00    +0.000 C 
BRANCH  13  14
ATOM     14  C   UNL     1       4.853   4.880  19.292  0.00  0.00    +0.000 A 
ATOM     15  N   UNL     1       4.580   3.617  19.031  0.00  0.00    +0.000 NA
ATOM     16  C   UNL     1       3.308   3.414  19.501  0.00  0.00    +0.000 A 
ATOM     17  C   UNL     1       2.542   2.243  19.522  0.00  0.00    +0.000 A 
ATOM     18  C   UNL     1       1.266   2.285  20.098  0.00  0.00    +0.000 A 
ATOM     19  C   UNL     1       0.764   3.474  20.633  0.00  0.00    +0.000 A 
ATOM     20  C   UNL     1       1.508   4.661  20.605  0.00  0.00    +0.000 A 
ATOM     21  C   UNL     1       2.779   4.585  20.032  0.00  0.00    +0.000 A 
ATOM     22  N   UNL     1       3.769   5.516  19.848  0.00  0.00    +0.000 N 
ATOM     23  H   UNL     1       3.733   6.496  20.087  0.00  0.00    +0.000 HD
ENDBRANCH  13  14
ENDBRANCH   4  13
TORSDOF 3
ENDMDL
MODEL 7
REMARK VINA RESULT:      -6.9      0.601      1.028
REMARK  Name = 
REMARK  3 active torsions:
REMARK  status: ('A' for Active; 'I' for Inactive)
REMARK    1  A    between atoms: C_5  and  N_6
REMARK    2  A    between atoms: N_9  and  C_10
REMARK    3  A    between atoms: C_10  and  C_11
REMARK                            x       y       z     vdW  Elec       q    Type
REMARK                         _______ _______ _______ _____ _____    ______ ____
ROOT
ATOM      1  N   UNL     1       5.572   4.960  15.652  0.00  0.00    +0.000 N 
ATOM      2  C   UNL     1       5.075   3.863  16.493  0.00  0.00    +0.000 C 
ATOM      3  C   UNL     1       5.310   4.213  17.987  0.00  0.00    +0.000 C 
ATOM      4  N   UNL     1       4.776   5.531  18.432  0.00  0.00    +0.000 NA
ATOM      5  C   UNL     1       5.302   6.569  17.500  0.00  0.00    +0.000 C 
ATOM      6  C   UNL     1       5.063   6.299  15.994  0.00  0.00    +0.000 C 
ENDROOT
BRANCH   1  11
ATOM      7  C   UNL     1       7.845   4.977  12.742  0.00  0.00    +0.000 A 
ATOM      8  C   UNL     1       7.226   4.017  11.963  0.00  0.00    +0.000 A 
ATOM      9  N   UNL     1       6.073   3.413  12.306  0.00  0.00    +0.000 NA
ATOM     10  C   UNL     1       5.538   3.771  13.502  0.00  0.00    +0.000 A 
ATOM     11  C   UNL     1       6.077   4.706  14.390  0.00  0.00    +0.000 A 
ATOM     12  C   UNL     1       7.255   5.325  13.956  0.00  0.00    +0.000 A 
ENDBRANCH   1  11
BRANCH   4  13
ATOM     13  C   UNL     1       3.304   5.482  18.437  0.00  0.00    +0.000 C 
BRANCH  13  14
ATOM     14  C   UNL     1       2.667   6.722  18.966  0.00  0.00    +0.000 A 
ATOM     15  N   UNL     1       2.319   7.784  18.267  0.00  0.00    +0.000 NA
ATOM     16  C   UNL     1       1.683   8.614  19.154  0.00  0.00    +0.000 A 
ATOM     17  C   UNL     1       1.076   9.855  18.934  0.00  0.00    +0.000 A 
ATOM     18  C   UNL     1       0.452  10.497  20.012  0.00  0.00    +0.000 A 
ATOM     19  C   UNL     1       0.445   9.916  21.282  0.00  0.00    +0.000 A 
ATOM     20  C   UNL     1       1.064   8.682  21.526  0.00  0.00    +0.000 A 
ATOM     21  C   UNL     1       1.669   8.063  20.430  0.00  0.00    +0.000 A 
ATOM     22  N   UNL     1       2.340   6.875  20.293  0.00  0.00    +0.000 N 
ATOM     23  H   UNL     1       2.552   6.209  21.021  0.00  0.00    +0.000 HD
ENDBRANCH  13  14
ENDBRANCH   4  13
TORSDOF 3
ENDMDL
MODEL 8
REMARK VINA RESULT:      -6.9      3.113      4.061
REMARK  Name = 
REMARK  3 active torsions:
REMARK  status: ('A' for Active; 'I' for Inactive)
REMARK    1  A    between atoms: C_5  and  N_6
REMARK    2  A    between atoms: N_9  and  C_10
REMARK    3  A    between atoms: C_10  and  C_11
REMARK                            x       y       z     vdW  Elec       q    Type
REMARK                         _______ _______ _______ _____ _____    ______ ____
ROOT
ATOM      1  N   UNL     1       6.344   5.171  15.510  0.00  0.00    +0.000 N 
ATOM      2  C   UNL     1       7.533   5.241  16.369  0.00  0.00    +0.000 C 
ATOM      3  C   UNL     1       7.371   6.409  17.377  0.00  0.00    +0.000 C 
ATOM      4  N   UNL     1       6.116   6.400  18.178  0.00  0.00    +0.000 NA
ATOM      5  C   UNL     1       4.974   6.289  17.227  0.00  0.00    +0.000 C 
ATOM      6  C   UNL     1       5.054   5.116  16.219  0.00  0.00    +0.000 C 
ENDROOT
BRANCH   1  11
ATOM      7  C   UNL     1       7.653   4.646  12.096  0.00  0.00    +0.000 A 
ATOM      8  C   UNL     1       6.795   3.649  11.674  0.00  0.00    +0.000 A 
ATOM      9  N   UNL     1       5.772   3.184  12.416  0.00  0.00    +0.000 NA
ATOM     10  C   UNL     1       5.629   3.730  13.652  0.00  0.00    +0.000 A 
ATOM     11  C   UNL     1       6.443   4.723  14.204  0.00  0.00    +0.000 A 
ATOM     12  C   UNL     1       7.463   5.188  13.367  0.00  0.00    +0.000 A 
ENDBRANCH   1  11
BRANCH   4  13
ATOM     13  C   UNL     1       6.156   5.278  19.132  0.00  0.00    +0.000 C 
BRANCH  13  14
ATOM     14  C   UNL     1       4.835   4.617  19.334  0.00  0.00    +0.000 A 
ATOM     15  N   UNL     1       3.758   5.164  19.862  0.00  0.00    +0.000 NA
ATOM     16  C   UNL     1       2.772   4.219  19.745  0.00  0.00    +0.000 A 
ATOM     17  C   UNL     1       1.421   4.290  20.103  0.00  0.00    +0.000 A 
ATOM     18  C   UNL     1       0.599   3.187  19.843  0.00  0.00    +0.000 A 
ATOM     19  C   UNL     1       1.117   2.035  19.247  0.00  0.00    +0.000 A 
ATOM     20  C   UNL     1       2.470   1.937  18.897  0.00  0.00    +0.000 A 
ATOM     21  C   UNL     1       3.263   3.056  19.161  0.00  0.00    +0.000 A 
ATOM     22  N   UNL     1       4.591   3.321  18.948  0.00  0.00    +0.000 N 
ATOM     23  H   UNL     1       5.281   2.693  18.561  0.00  0.00    +0.000 HD
ENDBRANCH  13  14
ENDBRANCH   4  13
TORSDOF 3
ENDMDL
MODEL 9
REMARK VINA RESULT:      -6.9      1.555      2.748
REMARK  Name = 
REMARK  3 active torsions:
REMARK  status: ('A' for Active; 'I' for Inactive)
REMARK    1  A    between atoms: C_5  and  N_6
REMARK    2  A    between atoms: N_9  and  C_10
REMARK    3  A    between atoms: C_10  and  C_11
REMARK                            x       y       z     vdW  Elec       q    Type
REMARK                         _______ _______ _______ _____ _____    ______ ____
ROOT
ATOM      1  N   UNL     1       4.271   5.791  17.287  0.00  0.00    +0.000 N 
ATOM      2  C   UNL     1       3.983   7.224  17.436  0.00  0.00    +0.000 C 
ATOM      3  C   UNL     1       2.463   7.419  17.679  0.00  0.00    +0.000 C 
ATOM      4  N   UNL     1       1.881   6.623  18.796  0.00  0.00    +0.000 NA
ATOM      5  C   UNL     1       2.258   5.197  18.578  0.00  0.00    +0.000 C 
ATOM      6  C   UNL     1       3.769   4.929  18.370  0.00  0.00    +0.000 C 
ENDROOT
BRANCH   1  11
ATOM      7  C   UNL     1       6.104   3.976  14.644  0.00  0.00    +0.000 A 
ATOM      8  C   UNL     1       7.302   4.664  14.682  0.00  0.00    +0.000 A 
ATOM      9  N   UNL     1       7.567   5.644  15.567  0.00  0.00    +0.000 NA
ATOM     10  C   UNL     1       6.568   5.963  16.430  0.00  0.00    +0.000 A 
ATOM     11  C   UNL     1       5.307   5.362  16.476  0.00  0.00    +0.000 A 
ATOM     12  C   UNL     1       5.110   4.326  15.556  0.00  0.00    +0.000 A 
ENDBRANCH   1  11
BRANCH   4  13
ATOM     13  C   UNL     1       2.387   7.143  20.078  0.00  0.00    +0.000 C 
BRANCH  13  14
ATOM     14  C   UNL     1       1.554   8.240  20.649  0.00  0.00    +0.000 A 
ATOM     15  N   UNL     1       1.031   9.253  19.986  0.00  0.00    +0.000 NA
ATOM     16  C   UNL     1       0.269   9.934  20.900  0.00  0.00    +0.000 A 
ATOM     17  C   UNL     1      -0.538  11.063  20.723  0.00  0.00    +0.000 A 
ATOM     18  C   UNL     1      -1.255  11.555  21.821  0.00  0.00    +0.000 A 
ATOM     19  C   UNL     1      -1.160  10.937  23.070  0.00  0.00    +0.000 A 
ATOM     20  C   UNL     1      -0.343   9.816  23.272  0.00  0.00    +0.000 A 
ATOM     21  C   UNL     1       0.353   9.345  22.157  0.00  0.00    +0.000 A 
ATOM     22  N   UNL     1       1.212   8.291  21.979  0.00  0.00    +0.000 N 
ATOM     23  H   UNL     1       1.535   7.645  22.685  0.00  0.00    +0.000 HD
ENDBRANCH  13  14
ENDBRANCH   4  13
TORSDOF 3
ENDMDL
