MODEL 1
REMARK VINA RESULT:      -7.4      0.000      0.000
REMARK  Name = 
REMARK  4 active torsions:
REMARK  status: ('A' for Active; 'I' for Inactive)
REMARK    1  A    between atoms: C_1  and  C_2
REMARK    2  A    between atoms: C_2  and  C_3
REMARK    3  A    between atoms: C_2  and  C_4
REMARK    4  A    between atoms: C_2  and  C_5
REMARK                            x       y       z     vdW  Elec       q    Type
REMARK                         _______ _______ _______ _____ _____    ______ ____
ROOT
ATOM      1  C   UNL     1       3.395   5.555  17.825  0.00  0.00    +0.000 A 
ATOM      2  C   UNL     1       2.209   6.117  18.251  0.00  0.00    +0.000 A 
ATOM      3  C   UNL     1       2.427   7.520  18.206  0.00  0.00    +0.000 A 
ATOM      4  N   UNL     1       1.451   8.469  18.479  0.00  0.00    +0.000 N 
ATOM      5  C   UNL     1       1.581   9.808  18.181  0.00  0.00    +0.000 C 
ATOM      6  O   UNL     1       2.584  10.319  17.690  0.00  0.00    +0.000 OA
ATOM      7  N   UNL     1       0.458  10.598  18.457  0.00  0.00    +0.000 N 
ATOM      8  C   UNL     1      -0.700  10.203  19.249  0.00  0.00    +0.000 C 
ATOM      9  C   UNL     1      -0.442  10.301  20.748  0.00  0.00    +0.000 C 
ATOM     10  C   UNL     1       0.033  11.673  21.256  0.00  0.00    +0.000 C 
ATOM     11  N   UNL     1      -0.261  12.812  20.380  0.00  0.00    +0.000 N 
ATOM     12  C   UNL     1      -1.253  13.785  20.453  0.00  0.00    +0.000 C 
ATOM     13  O   UNL     1      -1.218  14.759  19.700  0.00  0.00    +0.000 OA
ATOM     14  N   UNL     1      -2.288  13.700  21.377  0.00  0.00    +0.000 N 
ATOM     15  C   UNL     1      -3.172  14.866  21.587  0.00  0.00    +0.000 C 
ATOM     16  C   UNL     1      -3.133  15.378  23.023  0.00  0.00    +0.000 C 
ATOM     17  S   UNL     1      -3.386  14.077  24.215  0.00  0.00    +0.000 S 
ATOM     18  O   UNL     1      -2.826  14.506  25.483  0.00  0.00    +0.000 OA
ATOM     19  O   UNL     1      -4.763  13.630  24.134  0.00  0.00    +0.000 OA
ATOM     20  C   UNL     1      -2.362  12.764  23.600  0.00  0.00    +0.000 C 
ATOM     21  C   UNL     1      -2.720  12.552  22.149  0.00  0.00    +0.000 C 
ATOM     22  C   UNL     1       0.755  12.962  19.304  0.00  0.00    +0.000 C 
ATOM     23  C   UNL     1       0.513  12.031  18.106  0.00  0.00    +0.000 C 
ATOM     24  N   UNL     1       3.688   7.774  17.848  0.00  0.00    +0.000 NA
ATOM     25  O   UNL     1       4.285   6.558  17.604  0.00  0.00    +0.000 OA
ATOM     26  H   UNL     1       0.549   8.097  18.710  0.00  0.00    +0.000 HD
ENDROOT
BRANCH   1  28
ATOM     27  C   UNL     1       2.624   3.276  17.205  0.00  0.00    +0.000 C 
ATOM     28  C   UNL     1       3.850   4.146  17.540  0.00  0.00    +0.000 C 
ATOM     29  C   UNL     1       4.560   3.567  18.776  0.00  0.00    +0.000 C 
ATOM     30  C   UNL     1       4.824   4.088  16.347  0.00  0.00    +0.000 C 
ENDBRANCH   1  28
TORSDOF 1
ENDMDL
MODEL 2
REMARK VINA RESULT:      -7.0      2.018      2.224
REMARK  Name = 
REMARK  4 active torsions:
REMARK  status: ('A' for Active; 'I' for Inactive)
REMARK    1  A    between atoms: C_1  and  C_2
REMARK    2  A    between atoms: C_2  and  C_3
REMARK    3  A    between atoms: C_2  and  C_4
REMARK    4  A    between atoms: C_2  and  C_5
REMARK                            x       y       z     vdW  Elec       q    Type
REMARK                         _______ _______ _______ _____ _____    ______ ____
ROOT
ATOM      1  C   UNL     1       2.803   4.327  20.009  0.00  0.00    +0.000 A 
ATOM      2  C   UNL     1       1.806   5.244  20.271  0.00  0.00    +0.000 A 
ATOM      3  C   UNL     1       2.253   6.455  19.680  0.00  0.00    +0.000 A 
ATOM      4  N   UNL     1       1.504   7.625  19.640  0.00  0.00    +0.000 N 
ATOM      5  C   UNL     1       1.817   8.707  18.846  0.00  0.00    +0.000 C 
ATOM      6  O   UNL     1       2.810   8.780  18.127  0.00  0.00    +0.000 OA
ATOM      7  N   UNL     1       0.899   9.764  18.880  0.00  0.00    +0.000 N 
ATOM      8  C   UNL     1      -0.181   9.936  19.843  0.00  0.00    +0.000 C 
ATOM      9  C   UNL     1       0.306  10.509  21.169  0.00  0.00    +0.000 C 
ATOM     10  C   UNL     1       1.079  11.835  21.081  0.00  0.00    +0.000 C 
ATOM     11  N   UNL     1       0.860  12.619  19.861  0.00  0.00    +0.000 N 
ATOM     12  C   UNL     1       0.071  13.741  19.628  0.00  0.00    +0.000 C 
ATOM     13  O   UNL     1       0.162  14.348  18.561  0.00  0.00    +0.000 OA
ATOM     14  N   UNL     1      -0.817  14.217  20.586  0.00  0.00    +0.000 N 
ATOM     15  C   UNL     1      -1.447  15.541  20.399  0.00  0.00    +0.000 C 
ATOM     16  C   UNL     1      -1.112  16.512  21.526  0.00  0.00    +0.000 C 
ATOM     17  S   UNL     1      -1.407  15.812  23.138  0.00  0.00    +0.000 S 
ATOM     18  O   UNL     1      -0.603  16.537  24.103  0.00  0.00    +0.000 OA
ATOM     19  O   UNL     1      -2.837  15.672  23.332  0.00  0.00    +0.000 OA
ATOM     20  C   UNL     1      -0.725  14.180  22.998  0.00  0.00    +0.000 C 
ATOM     21  C   UNL     1      -1.322  13.543  21.766  0.00  0.00    +0.000 C 
ATOM     22  C   UNL     1       1.718  12.152  18.739  0.00  0.00    +0.000 C 
ATOM     23  C   UNL     1       1.148  10.928  18.007  0.00  0.00    +0.000 C 
ATOM     24  N   UNL     1       3.473   6.288  19.164  0.00  0.00    +0.000 NA
ATOM     25  O   UNL     1       3.810   4.968  19.359  0.00  0.00    +0.000 OA
ATOM     26  H   UNL     1       0.596   7.562  20.059  0.00  0.00    +0.000 HD
ENDROOT
BRANCH   1  28
ATOM     27  C   UNL     1       2.098   2.072  19.238  0.00  0.00    +0.000 C 
ATOM     28  C   UNL     1       2.963   2.847  20.250  0.00  0.00    +0.000 C 
ATOM     29  C   UNL     1       2.508   2.499  21.678  0.00  0.00    +0.000 C 
ATOM     30  C   UNL     1       4.427   2.393  20.082  0.00  0.00    +0.000 C 
ENDBRANCH   1  28
TORSDOF 1
ENDMDL
MODEL 3
REMARK VINA RESULT:      -6.8      0.804      1.116
REMARK  Name = 
REMARK  4 active torsions:
REMARK  status: ('A' for Active; 'I' for Inactive)
REMARK    1  A    between atoms: C_1  and  C_2
REMARK    2  A    between atoms: C_2  and  C_3
REMARK    3  A    between atoms: C_2  and  C_4
REMARK    4  A    between atoms: C_2  and  C_5
REMARK                            x       y       z     vdW  Elec       q    Type
REMARK                         _______ _______ _______ _____ _____    ______ ____
ROOT
ATOM      1  C   UNL     1       3.272   5.733  18.274  0.00  0.00    +0.000 A 
ATOM      2  C   UNL     1       2.174   6.363  18.822  0.00  0.00    +0.000 A 
ATOM      3  C   UNL     1       2.355   7.741  18.533  0.00  0.00    +0.000 A 
ATOM      4  N   UNL     1       1.428   8.729  18.837  0.00  0.00    +0.000 N 
ATOM      5  C   UNL     1       1.477  10.009  18.328  0.00  0.00    +0.000 C 
ATOM      6  O   UNL     1       2.365  10.432  17.593  0.00  0.00    +0.000 OA
ATOM      7  N   UNL     1       0.409  10.841  18.685  0.00  0.00    +0.000 N 
ATOM      8  C   UNL     1      -0.578  10.577  19.725  0.00  0.00    +0.000 C 
ATOM      9  C   UNL     1      -0.054  10.893  21.121  0.00  0.00    +0.000 C 
ATOM     10  C   UNL     1       0.481  12.320  21.327  0.00  0.00    +0.000 C 
ATOM     11  N   UNL     1       0.013  13.321  20.362  0.00  0.00    +0.000 N 
ATOM     12  C   UNL     1      -0.966  14.303  20.472  0.00  0.00    +0.000 C 
ATOM     13  O   UNL     1      -1.087  15.155  19.591  0.00  0.00    +0.000 OA
ATOM     14  N   UNL     1      -1.815  14.364  21.571  0.00  0.00    +0.000 N 
ATOM     15  C   UNL     1      -2.667  15.557  21.766  0.00  0.00    +0.000 C 
ATOM     16  C   UNL     1      -2.377  16.274  23.080  0.00  0.00    +0.000 C 
ATOM     17  S   UNL     1      -2.385  15.165  24.476  0.00  0.00    +0.000 S 
ATOM     18  O   UNL     1      -1.612  15.770  25.543  0.00  0.00    +0.000 OA
ATOM     19  O   UNL     1      -3.746  14.724  24.714  0.00  0.00    +0.000 OA
ATOM     20  C   UNL     1      -1.467  13.767  23.883  0.00  0.00    +0.000 C 
ATOM     21  C   UNL     1      -2.079  13.346  22.569  0.00  0.00    +0.000 C 
ATOM     22  C   UNL     1       0.813  13.301  19.109  0.00  0.00    +0.000 C 
ATOM     23  C   UNL     1       0.375  12.206  18.125  0.00  0.00    +0.000 C 
ATOM     24  N   UNL     1       3.525   7.928  17.918  0.00  0.00    +0.000 NA
ATOM     25  O   UNL     1       4.090   6.685  17.749  0.00  0.00    +0.000 OA
ATOM     26  H   UNL     1       0.590   8.404  19.281  0.00  0.00    +0.000 HD
ENDROOT
BRANCH   1  28
ATOM     27  C   UNL     1       4.455   4.127  16.792  0.00  0.00    +0.000 C 
ATOM     28  C   UNL     1       3.693   4.293  18.120  0.00  0.00    +0.000 C 
ATOM     29  C   UNL     1       2.451   3.385  18.110  0.00  0.00    +0.000 C 
ATOM     30  C   UNL     1       4.618   3.840  19.268  0.00  0.00    +0.000 C 
ENDBRANCH   1  28
TORSDOF 1
ENDMDL
MODEL 4
REMARK VINA RESULT:      -6.7      3.472     10.103
REMARK  Name = 
REMARK  4 active torsions:
REMARK  status: ('A' for Active; 'I' for Inactive)
REMARK    1  A    between atoms: C_1  and  C_2
REMARK    2  A    between atoms: C_2  and  C_3
REMARK    3  A    between atoms: C_2  and  C_4
REMARK    4  A    between atoms: C_2  and  C_5
REMARK                            x       y       z     vdW  Elec       q    Type
REMARK                         _______ _______ _______ _____ _____    ______ ____
ROOT
ATOM      1  C   UNL     1      -2.995  12.651  22.901  0.00  0.00    +0.000 A 
ATOM      2  C   UNL     1      -1.915  11.799  22.991  0.00  0.00    +0.000 A 
ATOM      3  C   UNL     1      -1.511  11.570  21.649  0.00  0.00    +0.000 A 
ATOM      4  N   UNL     1      -0.395  10.826  21.287  0.00  0.00    +0.000 N 
ATOM      5  C   UNL     1       0.146  10.824  20.020  0.00  0.00    +0.000 C 
ATOM      6  O   UNL     1      -0.320  11.435  19.062  0.00  0.00    +0.000 OA
ATOM      7  N   UNL     1       1.319  10.075  19.867  0.00  0.00    +0.000 N 
ATOM      8  C   UNL     1       1.858   9.113  20.821  0.00  0.00    +0.000 C 
ATOM      9  C   UNL     1       1.157   7.762  20.746  0.00  0.00    +0.000 C 
ATOM     10  C   UNL     1       1.138   7.095  19.360  0.00  0.00    +0.000 C 
ATOM     11  N   UNL     1       2.157   7.564  18.415  0.00  0.00    +0.000 N 
ATOM     12  C   UNL     1       3.365   6.997  18.022  0.00  0.00    +0.000 C 
ATOM     13  O   UNL     1       3.996   7.479  17.081  0.00  0.00    +0.000 OA
ATOM     14  N   UNL     1       3.881   5.872  18.657  0.00  0.00    +0.000 N 
ATOM     15  C   UNL     1       5.029   5.161  18.056  0.00  0.00    +0.000 C 
ATOM     16  C   UNL     1       4.703   3.711  17.712  0.00  0.00    +0.000 C 
ATOM     17  S   UNL     1       3.970   2.837  19.081  0.00  0.00    +0.000 S 
ATOM     18  O   UNL     1       3.230   1.706  18.554  0.00  0.00    +0.000 OA
ATOM     19  O   UNL     1       4.977   2.642  20.106  0.00  0.00    +0.000 OA
ATOM     20  C   UNL     1       2.785   3.998  19.711  0.00  0.00    +0.000 C 
ATOM     21  C   UNL     1       3.507   5.305  19.938  0.00  0.00    +0.000 C 
ATOM     22  C   UNL     1       1.737   8.809  17.718  0.00  0.00    +0.000 C 
ATOM     23  C   UNL     1       1.979  10.080  18.547  0.00  0.00    +0.000 C 
ATOM     24  N   UNL     1      -2.346  12.187  20.810  0.00  0.00    +0.000 NA
ATOM     25  O   UNL     1      -3.260  12.864  21.584  0.00  0.00    +0.000 OA
ATOM     26  H   UNL     1       0.133  10.452  22.053  0.00  0.00    +0.000 HD
ENDROOT
BRANCH   1  28
ATOM     27  C   UNL     1      -4.954  14.157  23.167  0.00  0.00    +0.000 C 
ATOM     28  C   UNL     1      -3.855  13.373  23.908  0.00  0.00    +0.000 C 
ATOM     29  C   UNL     1      -2.993  14.353  24.722  0.00  0.00    +0.000 C 
ATOM     30  C   UNL     1      -4.536  12.394  24.887  0.00  0.00    +0.000 C 
ENDBRANCH   1  28
TORSDOF 1
ENDMDL
MODEL 5
REMARK VINA RESULT:      -6.7      1.391      1.836
REMARK  Name = 
REMARK  4 active torsions:
REMARK  status: ('A' for Active; 'I' for Inactive)
REMARK    1  A    between atoms: C_1  and  C_2
REMARK    2  A    between atoms: C_2  and  C_3
REMARK    3  A    between atoms: C_2  and  C_4
REMARK    4  A    between atoms: C_2  and  C_5
REMARK                            x       y       z     vdW  Elec       q    Type
REMARK                         _______ _______ _______ _____ _____    ______ ____
ROOT
ATOM      1  C   UNL     1       3.941   6.117  18.563  0.00  0.00    +0.000 A 
ATOM      2  C   UNL     1       3.038   6.609  19.482  0.00  0.00    +0.000 A 
ATOM      3  C   UNL     1       2.421   7.714  18.839  0.00  0.00    +0.000 A 
ATOM      4  N   UNL     1       1.380   8.453  19.388  0.00  0.00    +0.000 N 
ATOM      5  C   UNL     1       0.611   9.343  18.669  0.00  0.00    +0.000 C 
ATOM      6  O   UNL     1       0.786   9.617  17.485  0.00  0.00    +0.000 OA
ATOM      7  N   UNL     1      -0.444   9.933  19.375  0.00  0.00    +0.000 N 
ATOM      8  C   UNL     1      -0.638   9.903  20.820  0.00  0.00    +0.000 C 
ATOM      9  C   UNL     1       0.229  10.924  21.546  0.00  0.00    +0.000 C 
ATOM     10  C   UNL     1       0.078  12.382  21.078  0.00  0.00    +0.000 C 
ATOM     11  N   UNL     1      -1.162  12.695  20.362  0.00  0.00    +0.000 N 
ATOM     12  C   UNL     1      -2.325  13.329  20.788  0.00  0.00    +0.000 C 
ATOM     13  O   UNL     1      -3.191  13.643  19.972  0.00  0.00    +0.000 OA
ATOM     14  N   UNL     1      -2.534  13.641  22.127  0.00  0.00    +0.000 N 
ATOM     15  C   UNL     1      -3.657  14.528  22.500  0.00  0.00    +0.000 C 
ATOM     16  C   UNL     1      -3.191  15.796  23.206  0.00  0.00    +0.000 C 
ATOM     17  S   UNL     1      -2.083  15.454  24.559  0.00  0.00    +0.000 S 
ATOM     18  O   UNL     1      -1.299  16.645  24.819  0.00  0.00    +0.000 OA
ATOM     19  O   UNL     1      -2.833  14.821  25.628  0.00  0.00    +0.000 OA
ATOM     20  C   UNL     1      -0.987  14.234  23.882  0.00  0.00    +0.000 C 
ATOM     21  C   UNL     1      -1.839  13.134  23.294  0.00  0.00    +0.000 C 
ATOM     22  C   UNL     1      -1.076  12.339  18.921  0.00  0.00    +0.000 C 
ATOM     23  C   UNL     1      -1.341  10.851  18.646  0.00  0.00    +0.000 C 
ATOM     24  N   UNL     1       2.975   7.914  17.641  0.00  0.00    +0.000 NA
ATOM     25  O   UNL     1       3.911   6.919  17.465  0.00  0.00    +0.000 OA
ATOM     26  H   UNL     1       1.073   8.148  20.292  0.00  0.00    +0.000 HD
ENDROOT
BRANCH   1  28
ATOM     27  C   UNL     1       6.209   5.302  19.167  0.00  0.00    +0.000 C 
ATOM     28  C   UNL     1       4.862   4.923  18.526  0.00  0.00    +0.000 C 
ATOM     29  C   UNL     1       5.097   4.491  17.068  0.00  0.00    +0.000 C 
ATOM     30  C   UNL     1       4.278   3.724  19.300  0.00  0.00    +0.000 C 
ENDBRANCH   1  28
TORSDOF 1
ENDMDL
MODEL 6
REMARK VINA RESULT:      -6.4      6.094      7.029
REMARK  Name = 
REMARK  4 active torsions:
REMARK  status: ('A' for Active; 'I' for Inactive)
REMARK    1  A    between atoms: C_1  and  C_2
REMARK    2  A    between atoms: C_2  and  C_3
REMARK    3  A    between atoms: C_2  and  C_4
REMARK    4  A    between atoms: C_2  and  C_5
REMARK                            x       y       z     vdW  Elec       q    Type
REMARK                         _______ _______ _______ _____ _____    ______ ____
ROOT
ATOM      1  C   UNL     1       9.678  13.763  18.150  0.00  0.00    +0.000 A 
ATOM      2  C   UNL     1       8.354  13.375  18.132  0.00  0.00    +0.000 A 
ATOM      3  C   UNL     1       7.620  14.546  18.459  0.00  0.00    +0.000 A 
ATOM      4  N   UNL     1       6.233  14.617  18.470  0.00  0.00    +0.000 N 
ATOM      5  C   UNL     1       5.528  15.800  18.525  0.00  0.00    +0.000 C 
ATOM      6  O   UNL     1       6.040  16.913  18.618  0.00  0.00    +0.000 OA
ATOM      7  N   UNL     1       4.136  15.676  18.445  0.00  0.00    +0.000 N 
ATOM      8  C   UNL     1       3.372  14.441  18.574  0.00  0.00    +0.000 C 
ATOM      9  C   UNL     1       3.181  14.023  20.027  0.00  0.00    +0.000 C 
ATOM     10  C   UNL     1       2.539  15.076  20.947  0.00  0.00    +0.000 C 
ATOM     11  N   UNL     1       1.774  16.128  20.271  0.00  0.00    +0.000 N 
ATOM     12  C   UNL     1       0.403  16.293  20.103  0.00  0.00    +0.000 C 
ATOM     13  O   UNL     1      -0.040  17.346  19.643  0.00  0.00    +0.000 OA
ATOM     14  N   UNL     1      -0.499  15.297  20.462  0.00  0.00    +0.000 N 
ATOM     15  C   UNL     1      -1.944  15.604  20.499  0.00  0.00    +0.000 C 
ATOM     16  C   UNL     1      -2.549  15.402  21.885  0.00  0.00    +0.000 C 
ATOM     17  S   UNL     1      -2.148  13.809  22.576  0.00  0.00    +0.000 S 
ATOM     18  O   UNL     1      -2.281  13.891  24.018  0.00  0.00    +0.000 OA
ATOM     19  O   UNL     1      -2.855  12.785  21.830  0.00  0.00    +0.000 OA
ATOM     20  C   UNL     1      -0.420  13.637  22.211  0.00  0.00    +0.000 C 
ATOM     21  C   UNL     1      -0.239  13.897  20.735  0.00  0.00    +0.000 C 
ATOM     22  C   UNL     1       2.651  17.226  19.782  0.00  0.00    +0.000 C 
ATOM     23  C   UNL     1       3.327  16.911  18.439  0.00  0.00    +0.000 C 
ATOM     24  N   UNL     1       8.458  15.549  18.730  0.00  0.00    +0.000 NA
ATOM     25  O   UNL     1       9.732  15.068  18.531  0.00  0.00    +0.000 OA
ATOM     26  H   UNL     1       5.762  13.769  18.218  0.00  0.00    +0.000 HD
ENDROOT
BRANCH   1  28
ATOM     27  C   UNL     1      10.758  11.559  17.770  0.00  0.00    +0.000 C 
ATOM     28  C   UNL     1      10.981  13.082  17.817  0.00  0.00    +0.000 C 
ATOM     29  C   UNL     1      12.031  13.408  18.892  0.00  0.00    +0.000 C 
ATOM     30  C   UNL     1      11.530  13.531  16.448  0.00  0.00    +0.000 C 
ENDBRANCH   1  28
TORSDOF 1
ENDMDL
MODEL 7
REMARK VINA RESULT:      -6.3      1.751      2.348
REMARK  Name = 
REMARK  4 active torsions:
REMARK  status: ('A' for Active; 'I' for Inactive)
REMARK    1  A    between atoms: C_1  and  C_2
REMARK    2  A    between atoms: C_2  and  C_3
REMARK    3  A    between atoms: C_2  and  C_4
REMARK    4  A    between atoms: C_2  and  C_5
REMARK                            x       y       z     vdW  Elec       q    Type
REMARK                         _______ _______ _______ _____ _____    ______ ____
ROOT
ATOM      1  C   UNL     1       3.359   6.921  18.206  0.00  0.00    +0.000 A 
ATOM      2  C   UNL     1       2.654   7.445  19.270  0.00  0.00    +0.000 A 
ATOM      3  C   UNL     1       1.867   8.489  18.716  0.00  0.00    +0.000 A 
ATOM      4  N   UNL     1       0.939   9.230  19.435  0.00  0.00    +0.000 N 
ATOM      5  C   UNL     1      -0.003  10.050  18.852  0.00  0.00    +0.000 C 
ATOM      6  O   UNL     1      -0.098  10.254  17.645  0.00  0.00    +0.000 OA
ATOM      7  N   UNL     1      -0.906  10.654  19.736  0.00  0.00    +0.000 N 
ATOM      8  C   UNL     1      -0.784  10.709  21.187  0.00  0.00    +0.000 C 
ATOM      9  C   UNL     1       0.175  11.799  21.651  0.00  0.00    +0.000 C 
ATOM     10  C   UNL     1      -0.133  13.219  21.147  0.00  0.00    +0.000 C 
ATOM     11  N   UNL     1      -1.510  13.450  20.700  0.00  0.00    +0.000 N 
ATOM     12  C   UNL     1      -2.580  14.076  21.332  0.00  0.00    +0.000 C 
ATOM     13  O   UNL     1      -3.613  14.313  20.706  0.00  0.00    +0.000 OA
ATOM     14  N   UNL     1      -2.510  14.466  22.665  0.00  0.00    +0.000 N 
ATOM     15  C   UNL     1      -3.563  15.342  23.222  0.00  0.00    +0.000 C 
ATOM     16  C   UNL     1      -3.010  16.665  23.739  0.00  0.00    +0.000 C 
ATOM     17  S   UNL     1      -1.625  16.441  24.837  0.00  0.00    +0.000 S 
ATOM     18  O   UNL     1      -0.853  17.668  24.855  0.00  0.00    +0.000 OA
ATOM     19  O   UNL     1      -2.100  15.855  26.076  0.00  0.00    +0.000 OA
ATOM     20  C   UNL     1      -0.649  15.212  24.007  0.00  0.00    +0.000 C 
ATOM     21  C   UNL     1      -1.560  14.054  23.680  0.00  0.00    +0.000 C 
ATOM     22  C   UNL     1      -1.721  13.007  19.296  0.00  0.00    +0.000 C 
ATOM     23  C   UNL     1      -1.976  11.497  19.168  0.00  0.00    +0.000 C 
ATOM     24  N   UNL     1       2.144   8.628  17.417  0.00  0.00    +0.000 NA
ATOM     25  O   UNL     1       3.060   7.652  17.098  0.00  0.00    +0.000 OA
ATOM     26  H   UNL     1       0.845   8.974  20.399  0.00  0.00    +0.000 HD
ENDROOT
BRANCH   1  28
ATOM     27  C   UNL     1       5.504   6.194  17.185  0.00  0.00    +0.000 C 
ATOM     28  C   UNL     1       4.299   5.754  18.037  0.00  0.00    +0.000 C 
ATOM     29  C   UNL     1       3.572   4.598  17.329  0.00  0.00    +0.000 C 
ATOM     30  C   UNL     1       4.826   5.242  19.391  0.00  0.00    +0.000 C 
ENDBRANCH   1  28
TORSDOF 1
ENDMDL
MODEL 8
REMARK VINA RESULT:      -6.0      2.150      2.593
REMARK  Name = 
REMARK  4 active torsions:
REMARK  status: ('A' for Active; 'I' for Inactive)
REMARK    1  A    between atoms: C_1  and  C_2
REMARK    2  A    between atoms: C_2  and  C_3
REMARK    3  A    between atoms: C_2  and  C_4
REMARK    4  A    between atoms: C_2  and  C_5
REMARK                            x       y       z     vdW  Elec       q    Type
REMARK                         _______ _______ _______ _____ _____    ______ ____
ROOT
ATOM      1  C   UNL     1       2.174   5.814  19.989  0.00  0.00    +0.000 A 
ATOM      2  C   UNL     1       1.254   6.713  20.487  0.00  0.00    +0.000 A 
ATOM      3  C   UNL     1       1.530   7.935  19.818  0.00  0.00    +0.000 A 
ATOM      4  N   UNL     1       0.775   9.091  19.967  0.00  0.00    +0.000 N 
ATOM      5  C   UNL     1       0.876  10.183  19.132  0.00  0.00    +0.000 C 
ATOM      6  O   UNL     1       1.670  10.277  18.200  0.00  0.00    +0.000 OA
ATOM      7  N   UNL     1      -0.025  11.224  19.390  0.00  0.00    +0.000 N 
ATOM      8  C   UNL     1      -0.850  11.373  20.583  0.00  0.00    +0.000 C 
ATOM      9  C   UNL     1      -0.073  11.946  21.762  0.00  0.00    +0.000 C 
ATOM     10  C   UNL     1       0.637  13.287  21.506  0.00  0.00    +0.000 C 
ATOM     11  N   UNL     1       0.124  14.073  20.379  0.00  0.00    +0.000 N 
ATOM     12  C   UNL     1      -0.714  15.182  20.349  0.00  0.00    +0.000 C 
ATOM     13  O   UNL     1      -0.887  15.797  19.296  0.00  0.00    +0.000 OA
ATOM     14  N   UNL     1      -1.359  15.638  21.494  0.00  0.00    +0.000 N 
ATOM     15  C   UNL     1      -2.035  16.952  21.472  0.00  0.00    +0.000 C 
ATOM     16  C   UNL     1      -1.459  17.923  22.497  0.00  0.00    +0.000 C 
ATOM     17  S   UNL     1      -1.354  17.210  24.126  0.00  0.00    +0.000 S 
ATOM     18  O   UNL     1      -0.356  17.943  24.882  0.00  0.00    +0.000 OA
ATOM     19  O   UNL     1      -2.697  17.043  24.651  0.00  0.00    +0.000 OA
ATOM     20  C   UNL     1      -0.699  15.590  23.815  0.00  0.00    +0.000 C 
ATOM     21  C   UNL     1      -1.561  14.949  22.753  0.00  0.00    +0.000 C 
ATOM     22  C   UNL     1       0.701  13.626  19.082  0.00  0.00    +0.000 C 
ATOM     23  C   UNL     1      -0.007  12.396  18.494  0.00  0.00    +0.000 C 
ATOM     24  N   UNL     1       2.596   7.791  19.028  0.00  0.00    +0.000 NA
ATOM     25  O   UNL     1       2.990   6.476  19.126  0.00  0.00    +0.000 OA
ATOM     26  H   UNL     1      -0.008   9.011  20.588  0.00  0.00    +0.000 HD
ENDROOT
BRANCH   1  28
ATOM     27  C   UNL     1       3.824   3.983  19.677  0.00  0.00    +0.000 C 
ATOM     28  C   UNL     1       2.410   4.336  20.172  0.00  0.00    +0.000 C 
ATOM     29  C   UNL     1       1.374   3.538  19.361  0.00  0.00    +0.000 C 
ATOM     30  C   UNL     1       2.297   3.917  21.652  0.00  0.00    +0.000 C 
ENDBRANCH   1  28
TORSDOF 1
ENDMDL
MODEL 9
REMARK VINA RESULT:      -6.0      6.139      7.193
REMARK  Name = 
REMARK  4 active torsions:
REMARK  status: ('A' for Active; 'I' for Inactive)
REMARK    1  A    between atoms: C_1  and  C_2
REMARK    2  A    between atoms: C_2  and  C_3
REMARK    3  A    between atoms: C_2  and  C_4
REMARK    4  A    between atoms: C_2  and  C_5
REMARK                            x       y       z     vdW  Elec       q    Type
REMARK                         _______ _______ _______ _____ _____    ______ ____
ROOT
ATOM      1  C   UNL     1       9.757  13.667  18.402  0.00  0.00    +0.000 A 
ATOM      2  C   UNL     1       8.424  13.507  18.085  0.00  0.00    +0.000 A 
ATOM      3  C   UNL     1       7.737  14.457  18.887  0.00  0.00    +0.000 A 
ATOM      4  N   UNL     1       6.369  14.690  18.818  0.00  0.00    +0.000 N 
ATOM      5  C   UNL     1       5.748  15.778  19.392  0.00  0.00    +0.000 C 
ATOM      6  O   UNL     1       6.320  16.632  20.065  0.00  0.00    +0.000 OA
ATOM      7  N   UNL     1       4.374  15.886  19.147  0.00  0.00    +0.000 N 
ATOM      8  C   UNL     1       3.515  14.850  18.586  0.00  0.00    +0.000 C 
ATOM      9  C   UNL     1       3.102  13.811  19.621  0.00  0.00    +0.000 C 
ATOM     10  C   UNL     1       2.418  14.361  20.884  0.00  0.00    +0.000 C 
ATOM     11  N   UNL     1       1.826  15.697  20.757  0.00  0.00    +0.000 N 
ATOM     12  C   UNL     1       0.505  16.095  20.581  0.00  0.00    +0.000 C 
ATOM     13  O   UNL     1       0.203  17.285  20.667  0.00  0.00    +0.000 OA
ATOM     14  N   UNL     1      -0.504  15.173  20.325  0.00  0.00    +0.000 N 
ATOM     15  C   UNL     1      -1.916  15.605  20.390  0.00  0.00    +0.000 C 
ATOM     16  C   UNL     1      -2.714  14.838  21.440  0.00  0.00    +0.000 C 
ATOM     17  S   UNL     1      -2.522  13.073  21.283  0.00  0.00    +0.000 S 
ATOM     18  O   UNL     1      -2.841  12.465  22.560  0.00  0.00    +0.000 OA
ATOM     19  O   UNL     1      -3.193  12.635  20.073  0.00  0.00    +0.000 OA
ATOM     20  C   UNL     1      -0.777  12.880  21.024  0.00  0.00    +0.000 C 
ATOM     21  C   UNL     1      -0.382  13.795  19.890  0.00  0.00    +0.000 C 
ATOM     22  C   UNL     1       2.836  16.772  20.949  0.00  0.00    +0.000 C 
ATOM     23  C   UNL     1       3.662  17.061  19.686  0.00  0.00    +0.000 C 
ATOM     24  N   UNL     1       8.599  15.089  19.686  0.00  0.00    +0.000 NA
ATOM     25  O   UNL     1       9.852  14.606  19.381  0.00  0.00    +0.000 OA
ATOM     26  H   UNL     1       5.877  14.137  18.142  0.00  0.00    +0.000 HD
ENDROOT
BRANCH   1  28
ATOM     27  C   UNL     1      12.198  13.470  18.818  0.00  0.00    +0.000 C 
ATOM     28  C   UNL     1      11.042  13.071  17.884  0.00  0.00    +0.000 C 
ATOM     29  C   UNL     1      11.327  13.600  16.468  0.00  0.00    +0.000 C 
ATOM     30  C   UNL     1      10.978  11.532  17.825  0.00  0.00    +0.000 C 
ENDBRANCH   1  28
TORSDOF 1
ENDMDL
