MODEL 1
REMARK VINA RESULT:      -7.8      0.000      0.000
REMARK  Name = 
REMARK  11 active torsions:
REMARK  status: ('A' for Active; 'I' for Inactive)
REMARK    1  A    between atoms: C_1  and  C_2
REMARK    2  A    between atoms: C_2  and  O_3
REMARK    3  A    between atoms: O_3  and  C_4
REMARK    4  A    between atoms: C_4  and  C_6
REMARK    5  A    between atoms: C_8  and  C_9
REMARK    6  A    between atoms: N_15  and  C_16
REMARK    7  A    between atoms: C_16  and  C_17
REMARK    8  A    between atoms: N_19  and  C_20
REMARK    9  A    between atoms: C_23  and  O_24
REMARK   10  A    between atoms: O_24  and  C_25
REMARK   11  A    between atoms: C_28  and  C_29
REMARK                            x       y       z     vdW  Elec       q    Type
REMARK                         _______ _______ _______ _____ _____    ______ ____
ROOT
ATOM      1  C   UNL     1       5.881   5.320  17.400  0.00  0.00    +0.000 A 
ATOM      2  C   UNL     1       5.354   4.443  18.380  0.00  0.00    +0.000 A 
ATOM      3  C   UNL     1       4.011   4.722  18.584  0.00  0.00    +0.000 A 
ATOM      4  N   UNL     1       3.699   5.788  17.715  0.00  0.00    +0.000 N 
ATOM      5  C   UNL     1       4.816   6.098  16.950  0.00  0.00    +0.000 A 
ATOM      6  C   UNL     1       4.885   7.072  15.815  0.00  0.00    +0.000 C 
ENDROOT
BRANCH   3   7
ATOM      7  C   UNL     1       3.088   4.007  19.507  0.00  0.00    +0.000 A 
ATOM      8  C   UNL     1       2.943   4.336  20.862  0.00  0.00    +0.000 A 
ATOM      9  C   UNL     1       2.045   3.665  21.698  0.00  0.00    +0.000 A 
ATOM     10  C   UNL     1       1.315   2.591  21.211  0.00  0.00    +0.000 A 
ATOM     11  C   UNL     1       1.478   2.200  19.888  0.00  0.00    +0.000 A 
ATOM     12  C   UNL     1       2.343   2.906  19.042  0.00  0.00    +0.000 A 
ENDBRANCH   3   7
BRANCH   1  13
ATOM     13  C   UNL     1       7.246   5.368  16.867  0.00  0.00    +0.000 C 
ATOM     14  O   UNL     1       7.904   4.379  16.592  0.00  0.00    +0.000 OA
BRANCH  13  15
ATOM     15  O   UNL     1       7.727   6.646  16.809  0.00  0.00    +0.000 OA
BRANCH  15  17
ATOM     16  C   UNL     1       8.030   8.756  17.861  0.00  0.00    +0.000 C 
ATOM     17  C   UNL     1       7.910   7.261  18.095  0.00  0.00    +0.000 C 
ENDBRANCH  15  17
ENDBRANCH  13  15
ENDBRANCH   1  13
BRANCH   4  18
ATOM     18  C   UNL     1       2.369   6.415  17.712  0.00  0.00    +0.000 C 
BRANCH  18  19
ATOM     19  C   UNL     1       2.086   7.647  18.520  0.00  0.00    +0.000 C 
ATOM     20  O   UNL     1       2.271   7.672  19.736  0.00  0.00    +0.000 OA
ATOM     21  N   UNL     1       1.642   8.717  17.750  0.00  0.00    +0.000 N 
ATOM     22  H   UNL     1       1.160   8.470  16.892  0.00  0.00    +0.000 HD
BRANCH  21  23
ATOM     23  C   UNL     1       1.293   9.950  18.327  0.00  0.00    +0.000 A 
ATOM     24  C   UNL     1       0.085  10.137  19.000  0.00  0.00    +0.000 A 
ATOM     25  C   UNL     1      -0.245  11.398  19.496  0.00  0.00    +0.000 A 
ATOM     26  C   UNL     1       0.619  12.479  19.312  0.00  0.00    +0.000 A 
ATOM     27  C   UNL     1       1.830  12.286  18.645  0.00  0.00    +0.000 A 
ATOM     28  C   UNL     1       2.183  11.015  18.185  0.00  0.00    +0.000 A 
BRANCH  26  29
ATOM     29  O   UNL     1       0.157  13.680  19.774  0.00  0.00    +0.000 OA
ATOM     30  C   UNL     1      -0.103  14.665  18.782  0.00  0.00    +0.000 C 
ENDBRANCH  26  29
ENDBRANCH  21  23
ENDBRANCH  18  19
ENDBRANCH   4  18
TORSDOF 8
ENDMDL
MODEL 2
REMARK VINA RESULT:      -7.8      0.177      1.273
REMARK  Name = 
REMARK  11 active torsions:
REMARK  status: ('A' for Active; 'I' for Inactive)
REMARK    1  A    between atoms: C_1  and  C_2
REMARK    2  A    between atoms: C_2  and  O_3
REMARK    3  A    between atoms: O_3  and  C_4
REMARK    4  A    between atoms: C_4  and  C_6
REMARK    5  A    between atoms: C_8  and  C_9
REMARK    6  A    between atoms: N_15  and  C_16
REMARK    7  A    between atoms: C_16  and  C_17
REMARK    8  A    between atoms: N_19  and  C_20
REMARK    9  A    between atoms: C_23  and  O_24
REMARK   10  A    between atoms: O_24  and  C_25
REMARK   11  A    between atoms: C_28  and  C_29
REMARK                            x       y       z     vdW  Elec       q    Type
REMARK                         _______ _______ _______ _____ _____    ______ ____
ROOT
ATOM      1  C   UNL     1       5.887   5.233  17.505  0.00  0.00    +0.000 A 
ATOM      2  C   UNL     1       5.345   4.352  18.473  0.00  0.00    +0.000 A 
ATOM      3  C   UNL     1       3.998   4.627  18.653  0.00  0.00    +0.000 A 
ATOM      4  N   UNL     1       3.698   5.692  17.780  0.00  0.00    +0.000 N 
ATOM      5  C   UNL     1       4.828   6.008  17.036  0.00  0.00    +0.000 A 
ATOM      6  C   UNL     1       4.914   6.984  15.905  0.00  0.00    +0.000 C 
ENDROOT
BRANCH   3   7
ATOM      7  C   UNL     1       3.061   3.906  19.557  0.00  0.00    +0.000 A 
ATOM      8  C   UNL     1       2.221   2.868  19.130  0.00  0.00    +0.000 A 
ATOM      9  C   UNL     1       1.372   2.189  20.009  0.00  0.00    +0.000 A 
ATOM     10  C   UNL     1       1.291   2.583  21.337  0.00  0.00    +0.000 A 
ATOM     11  C   UNL     1       2.066   3.646  21.781  0.00  0.00    +0.000 A 
ATOM     12  C   UNL     1       2.949   4.292  20.906  0.00  0.00    +0.000 A 
ENDBRANCH   3   7
BRANCH   1  13
ATOM     13  C   UNL     1       7.262   5.287  16.998  0.00  0.00    +0.000 C 
ATOM     14  O   UNL     1       7.950   4.302  16.790  0.00  0.00    +0.000 OA
BRANCH  13  15
ATOM     15  O   UNL     1       7.713   6.572  16.879  0.00  0.00    +0.000 OA
BRANCH  15  17
ATOM     16  C   UNL     1       8.035   8.712  17.864  0.00  0.00    +0.000 C 
ATOM     17  C   UNL     1       7.968   7.220  18.136  0.00  0.00    +0.000 C 
ENDBRANCH  15  17
ENDBRANCH  13  15
ENDBRANCH   1  13
BRANCH   4  18
ATOM     18  C   UNL     1       2.367   6.315  17.753  0.00  0.00    +0.000 C 
BRANCH  18  19
ATOM     19  C   UNL     1       2.091   7.599  18.477  0.00  0.00    +0.000 C 
ATOM     20  O   UNL     1       2.228   7.689  19.697  0.00  0.00    +0.000 OA
ATOM     21  N   UNL     1       1.713   8.636  17.631  0.00  0.00    +0.000 N 
ATOM     22  H   UNL     1       1.259   8.354  16.768  0.00  0.00    +0.000 HD
BRANCH  21  23
ATOM     23  C   UNL     1       1.382   9.910  18.122  0.00  0.00    +0.000 A 
ATOM     24  C   UNL     1       2.287  10.973  18.091  0.00  0.00    +0.000 A 
ATOM     25  C   UNL     1       1.934  12.200  18.652  0.00  0.00    +0.000 A 
ATOM     26  C   UNL     1       0.688  12.369  19.259  0.00  0.00    +0.000 A 
ATOM     27  C   UNL     1      -0.217  11.305  19.281  0.00  0.00    +0.000 A 
ATOM     28  C   UNL     1       0.116  10.089  18.681  0.00  0.00    +0.000 A 
BRANCH  26  29
ATOM     29  O   UNL     1       0.482  13.590  19.840  0.00  0.00    +0.000 OA
ATOM     30  C   UNL     1      -0.337  14.491  19.107  0.00  0.00    +0.000 C 
ENDBRANCH  26  29
ENDBRANCH  21  23
ENDBRANCH  18  19
ENDBRANCH   4  18
TORSDOF 8
ENDMDL
MODEL 3
REMARK VINA RESULT:      -7.3      0.857      1.529
REMARK  Name = 
REMARK  11 active torsions:
REMARK  status: ('A' for Active; 'I' for Inactive)
REMARK    1  A    between atoms: C_1  and  C_2
REMARK    2  A    between atoms: C_2  and  O_3
REMARK    3  A    between atoms: O_3  and  C_4
REMARK    4  A    between atoms: C_4  and  C_6
REMARK    5  A    between atoms: C_8  and  C_9
REMARK    6  A    between atoms: N_15  and  C_16
REMARK    7  A    between atoms: C_16  and  C_17
REMARK    8  A    between atoms: N_19  and  C_20
REMARK    9  A    between atoms: C_23  and  O_24
REMARK   10  A    between atoms: O_24  and  C_25
REMARK   11  A    between atoms: C_28  and  C_29
REMARK                            x       y       z     vdW  Elec       q    Type
REMARK                         _______ _______ _______ _____ _____    ______ ____
ROOT
ATOM      1  C   UNL     1       5.782   5.482  17.345  0.00  0.00    +0.000 A 
ATOM      2  C   UNL     1       5.297   4.566  18.311  0.00  0.00    +0.000 A 
ATOM      3  C   UNL     1       3.956   4.817  18.562  0.00  0.00    +0.000 A 
ATOM      4  N   UNL     1       3.603   5.904  17.736  0.00  0.00    +0.000 N 
ATOM      5  C   UNL     1       4.692   6.256  16.950  0.00  0.00    +0.000 A 
ATOM      6  C   UNL     1       4.713   7.267  15.846  0.00  0.00    +0.000 C 
ENDROOT
BRANCH   3   7
ATOM      7  C   UNL     1       3.071   4.058  19.487  0.00  0.00    +0.000 A 
ATOM      8  C   UNL     1       2.961   4.341  20.856  0.00  0.00    +0.000 A 
ATOM      9  C   UNL     1       2.099   3.630  21.695  0.00  0.00    +0.000 A 
ATOM     10  C   UNL     1       1.370   2.561  21.195  0.00  0.00    +0.000 A 
ATOM     11  C   UNL     1       1.500   2.215  19.856  0.00  0.00    +0.000 A 
ATOM     12  C   UNL     1       2.330   2.962  19.009  0.00  0.00    +0.000 A 
ENDBRANCH   3   7
BRANCH   1  13
ATOM     13  C   UNL     1       7.130   5.569  16.776  0.00  0.00    +0.000 C 
ATOM     14  O   UNL     1       7.806   6.584  16.780  0.00  0.00    +0.000 OA
BRANCH  13  15
ATOM     15  O   UNL     1       7.499   4.409  16.156  0.00  0.00    +0.000 OA
BRANCH  15  17
ATOM     16  C   UNL     1       7.013   4.812  13.863  0.00  0.00    +0.000 C 
ATOM     17  C   UNL     1       6.620   4.010  15.091  0.00  0.00    +0.000 C 
ENDBRANCH  15  17
ENDBRANCH  13  15
ENDBRANCH   1  13
BRANCH   4  18
ATOM     18  C   UNL     1       2.264   6.510  17.791  0.00  0.00    +0.000 C 
BRANCH  18  19
ATOM     19  C   UNL     1       2.006   7.762  18.575  0.00  0.00    +0.000 C 
ATOM     20  O   UNL     1       2.155   7.796  19.796  0.00  0.00    +0.000 OA
ATOM     21  N   UNL     1       1.627   8.839  17.780  0.00  0.00    +0.000 N 
ATOM     22  H   UNL     1       1.162   8.599  16.910  0.00  0.00    +0.000 HD
BRANCH  21  23
ATOM     23  C   UNL     1       1.311  10.092  18.331  0.00  0.00    +0.000 A 
ATOM     24  C   UNL     1       0.114  10.319  19.012  0.00  0.00    +0.000 A 
ATOM     25  C   UNL     1      -0.184  11.599  19.481  0.00  0.00    +0.000 A 
ATOM     26  C   UNL     1       0.700  12.657  19.262  0.00  0.00    +0.000 A 
ATOM     27  C   UNL     1       1.899  12.423  18.586  0.00  0.00    +0.000 A 
ATOM     28  C   UNL     1       2.221  11.135  18.153  0.00  0.00    +0.000 A 
BRANCH  26  29
ATOM     29  O   UNL     1       0.268  13.878  19.701  0.00  0.00    +0.000 OA
ATOM     30  C   UNL     1      -1.123  13.977  19.978  0.00  0.00    +0.000 C 
ENDBRANCH  26  29
ENDBRANCH  21  23
ENDBRANCH  18  19
ENDBRANCH   4  18
TORSDOF 8
ENDMDL
MODEL 4
REMARK VINA RESULT:      -7.2      1.864      2.577
REMARK  Name = 
REMARK  11 active torsions:
REMARK  status: ('A' for Active; 'I' for Inactive)
REMARK    1  A    between atoms: C_1  and  C_2
REMARK    2  A    between atoms: C_2  and  O_3
REMARK    3  A    between atoms: O_3  and  C_4
REMARK    4  A    between atoms: C_4  and  C_6
REMARK    5  A    between atoms: C_8  and  C_9
REMARK    6  A    between atoms: N_15  and  C_16
REMARK    7  A    between atoms: C_16  and  C_17
REMARK    8  A    between atoms: N_19  and  C_20
REMARK    9  A    between atoms: C_23  and  O_24
REMARK   10  A    between atoms: O_24  and  C_25
REMARK   11  A    between atoms: C_28  and  C_29
REMARK                            x       y       z     vdW  Elec       q    Type
REMARK                         _______ _______ _______ _____ _____    ______ ____
ROOT
ATOM      1  C   UNL     1       5.807   5.564  17.316  0.00  0.00    +0.000 A 
ATOM      2  C   UNL     1       5.319   4.654  18.286  0.00  0.00    +0.000 A 
ATOM      3  C   UNL     1       3.975   4.899  18.523  0.00  0.00    +0.000 A 
ATOM      4  N   UNL     1       3.622   5.976  17.685  0.00  0.00    +0.000 N 
ATOM      5  C   UNL     1       4.716   6.328  16.905  0.00  0.00    +0.000 A 
ATOM      6  C   UNL     1       4.740   7.329  15.793  0.00  0.00    +0.000 C 
ENDROOT
BRANCH   3   7
ATOM      7  C   UNL     1       3.087   4.142  19.448  0.00  0.00    +0.000 A 
ATOM      8  C   UNL     1       2.930   4.463  20.803  0.00  0.00    +0.000 A 
ATOM      9  C   UNL     1       2.066   3.752  21.641  0.00  0.00    +0.000 A 
ATOM     10  C   UNL     1       1.383   2.648  21.154  0.00  0.00    +0.000 A 
ATOM     11  C   UNL     1       1.560   2.265  19.831  0.00  0.00    +0.000 A 
ATOM     12  C   UNL     1       2.391   3.010  18.984  0.00  0.00    +0.000 A 
ENDBRANCH   3   7
BRANCH   1  13
ATOM     13  C   UNL     1       7.160   5.655  16.758  0.00  0.00    +0.000 C 
ATOM     14  O   UNL     1       7.893   6.618  16.906  0.00  0.00    +0.000 OA
BRANCH  13  15
ATOM     15  O   UNL     1       7.462   4.577  15.974  0.00  0.00    +0.000 OA
BRANCH  15  17
ATOM     16  C   UNL     1       6.098   3.883  14.154  0.00  0.00    +0.000 C 
ATOM     17  C   UNL     1       7.238   4.795  14.571  0.00  0.00    +0.000 C 
ENDBRANCH  15  17
ENDBRANCH  13  15
ENDBRANCH   1  13
BRANCH   4  18
ATOM     18  C   UNL     1       2.279   6.574  17.723  0.00  0.00    +0.000 C 
BRANCH  18  19
ATOM     19  C   UNL     1       2.002   7.821  18.510  0.00  0.00    +0.000 C 
ATOM     20  O   UNL     1       2.467   8.908  18.172  0.00  0.00    +0.000 OA
ATOM     21  N   UNL     1       1.164   7.606  19.599  0.00  0.00    +0.000 N 
ATOM     22  H   UNL     1       1.188   6.671  19.993  0.00  0.00    +0.000 HD
BRANCH  21  23
ATOM     23  C   UNL     1       0.811   8.644  20.479  0.00  0.00    +0.000 A 
ATOM     24  C   UNL     1       1.216   8.651  21.814  0.00  0.00    +0.000 A 
ATOM     25  C   UNL     1       0.784   9.669  22.664  0.00  0.00    +0.000 A 
ATOM     26  C   UNL     1      -0.064  10.673  22.192  0.00  0.00    +0.000 A 
ATOM     27  C   UNL     1      -0.461  10.666  20.854  0.00  0.00    +0.000 A 
ATOM     28  C   UNL     1       0.006   9.673  19.989  0.00  0.00    +0.000 A 
BRANCH  26  29
ATOM     29  O   UNL     1      -0.481  11.574  23.132  0.00  0.00    +0.000 OA
ATOM     30  C   UNL     1      -1.873  11.863  23.133  0.00  0.00    +0.000 C 
ENDBRANCH  26  29
ENDBRANCH  21  23
ENDBRANCH  18  19
ENDBRANCH   4  18
TORSDOF 8
ENDMDL
MODEL 5
REMARK VINA RESULT:      -7.2      2.066      2.920
REMARK  Name = 
REMARK  11 active torsions:
REMARK  status: ('A' for Active; 'I' for Inactive)
REMARK    1  A    between atoms: C_1  and  C_2
REMARK    2  A    between atoms: C_2  and  O_3
REMARK    3  A    between atoms: O_3  and  C_4
REMARK    4  A    between atoms: C_4  and  C_6
REMARK    5  A    between atoms: C_8  and  C_9
REMARK    6  A    between atoms: N_15  and  C_16
REMARK    7  A    between atoms: C_16  and  C_17
REMARK    8  A    between atoms: N_19  and  C_20
REMARK    9  A    between atoms: C_23  and  O_24
REMARK   10  A    between atoms: O_24  and  C_25
REMARK   11  A    between atoms: C_28  and  C_29
REMARK                            x       y       z     vdW  Elec       q    Type
REMARK                         _______ _______ _______ _____ _____    ______ ____
ROOT
ATOM      1  C   UNL     1       5.296   4.574  16.344  0.00  0.00    +0.000 A 
ATOM      2  C   UNL     1       4.509   3.665  17.094  0.00  0.00    +0.000 A 
ATOM      3  C   UNL     1       3.836   4.347  18.097  0.00  0.00    +0.000 A 
ATOM      4  N   UNL     1       4.210   5.700  17.966  0.00  0.00    +0.000 N 
ATOM      5  C   UNL     1       5.037   5.842  16.860  0.00  0.00    +0.000 A 
ATOM      6  C   UNL     1       5.553   7.124  16.283  0.00  0.00    +0.000 C 
ENDROOT
BRANCH   3   7
ATOM      7  C   UNL     1       2.884   3.762  19.080  0.00  0.00    +0.000 A 
ATOM      8  C   UNL     1       1.503   3.666  18.854  0.00  0.00    +0.000 A 
ATOM      9  C   UNL     1       0.636   3.084  19.784  0.00  0.00    +0.000 A 
ATOM     10  C   UNL     1       1.125   2.642  21.005  0.00  0.00    +0.000 A 
ATOM     11  C   UNL     1       2.479   2.775  21.286  0.00  0.00    +0.000 A 
ATOM     12  C   UNL     1       3.350   3.316  20.331  0.00  0.00    +0.000 A 
ENDBRANCH   3   7
BRANCH   1  13
ATOM     13  C   UNL     1       6.152   4.290  15.188  0.00  0.00    +0.000 C 
ATOM     14  O   UNL     1       7.333   4.588  15.127  0.00  0.00    +0.000 OA
BRANCH  13  15
ATOM     15  O   UNL     1       5.448   3.742  14.153  0.00  0.00    +0.000 OA
BRANCH  15  17
ATOM     16  C   UNL     1       5.229   3.239  11.839  0.00  0.00    +0.000 C 
ATOM     17  C   UNL     1       6.210   3.592  12.943  0.00  0.00    +0.000 C 
ENDBRANCH  15  17
ENDBRANCH  13  15
ENDBRANCH   1  13
BRANCH   4  18
ATOM     18  C   UNL     1       3.753   6.721  18.920  0.00  0.00    +0.000 C 
BRANCH  18  19
ATOM     19  C   UNL     1       2.577   7.602  18.615  0.00  0.00    +0.000 C 
ATOM     20  O   UNL     1       2.129   7.702  17.474  0.00  0.00    +0.000 OA
ATOM     21  N   UNL     1       2.061   8.236  19.741  0.00  0.00    +0.000 N 
ATOM     22  H   UNL     1       2.722   8.399  20.494  0.00  0.00    +0.000 HD
BRANCH  21  23
ATOM     23  C   UNL     1       0.978   9.128  19.658  0.00  0.00    +0.000 A 
ATOM     24  C   UNL     1       0.542   9.650  18.440  0.00  0.00    +0.000 A 
ATOM     25  C   UNL     1      -0.494  10.584  18.417  0.00  0.00    +0.000 A 
ATOM     26  C   UNL     1      -1.087  11.012  19.607  0.00  0.00    +0.000 A 
ATOM     27  C   UNL     1      -0.652  10.481  20.823  0.00  0.00    +0.000 A 
ATOM     28  C   UNL     1       0.355   9.513  20.845  0.00  0.00    +0.000 A 
BRANCH  26  29
ATOM     29  O   UNL     1      -2.039  11.983  19.467  0.00  0.00    +0.000 OA
ATOM     30  C   UNL     1      -3.074  11.703  18.533  0.00  0.00    +0.000 C 
ENDBRANCH  26  29
ENDBRANCH  21  23
ENDBRANCH  18  19
ENDBRANCH   4  18
TORSDOF 8
ENDMDL
MODEL 6
REMARK VINA RESULT:      -7.1      1.351      1.890
REMARK  Name = 
REMARK  11 active torsions:
REMARK  status: ('A' for Active; 'I' for Inactive)
REMARK    1  A    between atoms: C_1  and  C_2
REMARK    2  A    between atoms: C_2  and  O_3
REMARK    3  A    between atoms: O_3  and  C_4
REMARK    4  A    between atoms: C_4  and  C_6
REMARK    5  A    between atoms: C_8  and  C_9
REMARK    6  A    between atoms: N_15  and  C_16
REMARK    7  A    between atoms: C_16  and  C_17
REMARK    8  A    between atoms: N_19  and  C_20
REMARK    9  A    between atoms: C_23  and  O_24
REMARK   10  A    between atoms: O_24  and  C_25
REMARK   11  A    between atoms: C_28  and  C_29
REMARK                            x       y       z     vdW  Elec       q    Type
REMARK                         _______ _______ _______ _____ _____    ______ ____
ROOT
ATOM      1  C   UNL     1       5.898   5.346  17.267  0.00  0.00    +0.000 A 
ATOM      2  C   UNL     1       5.386   4.450  18.238  0.00  0.00    +0.000 A 
ATOM      3  C   UNL     1       4.050   4.734  18.478  0.00  0.00    +0.000 A 
ATOM      4  N   UNL     1       3.727   5.821  17.640  0.00  0.00    +0.000 N 
ATOM      5  C   UNL     1       4.829   6.140  16.858  0.00  0.00    +0.000 A 
ATOM      6  C   UNL     1       4.880   7.139  15.744  0.00  0.00    +0.000 C 
ENDROOT
BRANCH   3   7
ATOM      7  C   UNL     1       3.143   4.005  19.406  0.00  0.00    +0.000 A 
ATOM      8  C   UNL     1       2.449   2.840  19.049  0.00  0.00    +0.000 A 
ATOM      9  C   UNL     1       1.626   2.158  19.951  0.00  0.00    +0.000 A 
ATOM     10  C   UNL     1       1.421   2.671  21.223  0.00  0.00    +0.000 A 
ATOM     11  C   UNL     1       2.045   3.855  21.591  0.00  0.00    +0.000 A 
ATOM     12  C   UNL     1       2.906   4.508  20.698  0.00  0.00    +0.000 A 
ENDBRANCH   3   7
BRANCH   1  13
ATOM     13  C   UNL     1       7.252   5.397  16.705  0.00  0.00    +0.000 C 
ATOM     14  O   UNL     1       7.875   4.413  16.344  0.00  0.00    +0.000 OA
BRANCH  13  15
ATOM     15  O   UNL     1       7.766   6.662  16.726  0.00  0.00    +0.000 OA
BRANCH  15  17
ATOM     16  C   UNL     1       8.007   8.731  17.872  0.00  0.00    +0.000 C 
ATOM     17  C   UNL     1       7.871   7.229  18.042  0.00  0.00    +0.000 C 
ENDBRANCH  15  17
ENDBRANCH  13  15
ENDBRANCH   1  13
BRANCH   4  18
ATOM     18  C   UNL     1       2.402   6.458  17.680  0.00  0.00    +0.000 C 
BRANCH  18  19
ATOM     19  C   UNL     1       2.201   7.801  18.317  0.00  0.00    +0.000 C 
ATOM     20  O   UNL     1       2.903   8.765  18.013  0.00  0.00    +0.000 OA
ATOM     21  N   UNL     1       1.149   7.825  19.225  0.00  0.00    +0.000 N 
ATOM     22  H   UNL     1       0.936   6.940  19.673  0.00  0.00    +0.000 HD
BRANCH  21  23
ATOM     23  C   UNL     1       0.821   8.984  19.949  0.00  0.00    +0.000 A 
ATOM     24  C   UNL     1       0.435  10.167  19.317  0.00  0.00    +0.000 A 
ATOM     25  C   UNL     1       0.185  11.310  20.077  0.00  0.00    +0.000 A 
ATOM     26  C   UNL     1       0.334  11.284  21.464  0.00  0.00    +0.000 A 
ATOM     27  C   UNL     1       0.714  10.097  22.093  0.00  0.00    +0.000 A 
ATOM     28  C   UNL     1       0.922   8.939  21.340  0.00  0.00    +0.000 A 
BRANCH  26  29
ATOM     29  O   UNL     1       0.136  12.480  22.095  0.00  0.00    +0.000 OA
ATOM     30  C   UNL     1      -1.090  12.608  22.803  0.00  0.00    +0.000 C 
ENDBRANCH  26  29
ENDBRANCH  21  23
ENDBRANCH  18  19
ENDBRANCH   4  18
TORSDOF 8
ENDMDL
MODEL 7
REMARK VINA RESULT:      -7.0      1.054      1.729
REMARK  Name = 
REMARK  11 active torsions:
REMARK  status: ('A' for Active; 'I' for Inactive)
REMARK    1  A    between atoms: C_1  and  C_2
REMARK    2  A    between atoms: C_2  and  O_3
REMARK    3  A    between atoms: O_3  and  C_4
REMARK    4  A    between atoms: C_4  and  C_6
REMARK    5  A    between atoms: C_8  and  C_9
REMARK    6  A    between atoms: N_15  and  C_16
REMARK    7  A    between atoms: C_16  and  C_17
REMARK    8  A    between atoms: N_19  and  C_20
REMARK    9  A    between atoms: C_23  and  O_24
REMARK   10  A    between atoms: O_24  and  C_25
REMARK   11  A    between atoms: C_28  and  C_29
REMARK                            x       y       z     vdW  Elec       q    Type
REMARK                         _______ _______ _______ _____ _____    ______ ____
ROOT
ATOM      1  C   UNL     1       5.797   4.965  17.170  0.00  0.00    +0.000 A 
ATOM      2  C   UNL     1       5.224   4.120  18.152  0.00  0.00    +0.000 A 
ATOM      3  C   UNL     1       3.917   4.512  18.401  0.00  0.00    +0.000 A 
ATOM      4  N   UNL     1       3.675   5.615  17.557  0.00  0.00    +0.000 N 
ATOM      5  C   UNL     1       4.792   5.840  16.763  0.00  0.00    +0.000 A 
ATOM      6  C   UNL     1       4.913   6.824  15.641  0.00  0.00    +0.000 C 
ENDROOT
BRANCH   3   7
ATOM      7  C   UNL     1       2.963   3.864  19.341  0.00  0.00    +0.000 A 
ATOM      8  C   UNL     1       2.018   2.908  18.944  0.00  0.00    +0.000 A 
ATOM      9  C   UNL     1       1.153   2.294  19.856  0.00  0.00    +0.000 A 
ATOM     10  C   UNL     1       1.166   2.677  21.189  0.00  0.00    +0.000 A 
ATOM     11  C   UNL     1       2.050   3.664  21.606  0.00  0.00    +0.000 A 
ATOM     12  C   UNL     1       2.946   4.242  20.697  0.00  0.00    +0.000 A 
ENDBRANCH   3   7
BRANCH   1  13
ATOM     13  C   UNL     1       7.146   4.903  16.596  0.00  0.00    +0.000 C 
ATOM     14  O   UNL     1       8.112   4.443  17.180  0.00  0.00    +0.000 OA
BRANCH  13  15
ATOM     15  O   UNL     1       7.209   5.508  15.373  0.00  0.00    +0.000 OA
BRANCH  15  17
ATOM     16  C   UNL     1       7.833   5.248  13.093  0.00  0.00    +0.000 C 
ATOM     17  C   UNL     1       7.123   4.596  14.265  0.00  0.00    +0.000 C 
ENDBRANCH  15  17
ENDBRANCH  13  15
ENDBRANCH   1  13
BRANCH   4  18
ATOM     18  C   UNL     1       2.406   6.357  17.604  0.00  0.00    +0.000 C 
BRANCH  18  19
ATOM     19  C   UNL     1       2.254   7.593  18.441  0.00  0.00    +0.000 C 
ATOM     20  O   UNL     1       2.604   7.615  19.620  0.00  0.00    +0.000 OA
ATOM     21  N   UNL     1       1.725   8.669  17.737  0.00  0.00    +0.000 N 
ATOM     22  H   UNL     1       1.127   8.429  16.953  0.00  0.00    +0.000 HD
BRANCH  21  23
ATOM     23  C   UNL     1       1.477   9.908  18.353  0.00  0.00    +0.000 A 
ATOM     24  C   UNL     1       0.416  10.093  19.241  0.00  0.00    +0.000 A 
ATOM     25  C   UNL     1       0.171  11.358  19.774  0.00  0.00    +0.000 A 
ATOM     26  C   UNL     1       0.971  12.444  19.415  0.00  0.00    +0.000 A 
ATOM     27  C   UNL     1       2.036  12.253  18.532  0.00  0.00    +0.000 A 
ATOM     28  C   UNL     1       2.311  10.979  18.031  0.00  0.00    +0.000 A 
BRANCH  26  29
ATOM     29  O   UNL     1       0.591  13.648  19.941  0.00  0.00    +0.000 OA
ATOM     30  C   UNL     1      -0.043  14.544  19.037  0.00  0.00    +0.000 C 
ENDBRANCH  26  29
ENDBRANCH  21  23
ENDBRANCH  18  19
ENDBRANCH   4  18
TORSDOF 8
ENDMDL
MODEL 8
REMARK VINA RESULT:      -7.0      2.216      3.109
REMARK  Name = 
REMARK  11 active torsions:
REMARK  status: ('A' for Active; 'I' for Inactive)
REMARK    1  A    between atoms: C_1  and  C_2
REMARK    2  A    between atoms: C_2  and  O_3
REMARK    3  A    between atoms: O_3  and  C_4
REMARK    4  A    between atoms: C_4  and  C_6
REMARK    5  A    between atoms: C_8  and  C_9
REMARK    6  A    between atoms: N_15  and  C_16
REMARK    7  A    between atoms: C_16  and  C_17
REMARK    8  A    between atoms: N_19  and  C_20
REMARK    9  A    between atoms: C_23  and  O_24
REMARK   10  A    between atoms: O_24  and  C_25
REMARK   11  A    between atoms: C_28  and  C_29
REMARK                            x       y       z     vdW  Elec       q    Type
REMARK                         _______ _______ _______ _____ _____    ______ ____
ROOT
ATOM      1  C   UNL     1       5.773   4.755  16.247  0.00  0.00    +0.000 A 
ATOM      2  C   UNL     1       4.769   3.789  16.503  0.00  0.00    +0.000 A 
ATOM      3  C   UNL     1       3.997   4.191  17.583  0.00  0.00    +0.000 A 
ATOM      4  N   UNL     1       4.529   5.428  18.001  0.00  0.00    +0.000 N 
ATOM      5  C   UNL     1       5.558   5.798  17.145  0.00  0.00    +0.000 A 
ATOM      6  C   UNL     1       6.303   7.096  17.146  0.00  0.00    +0.000 C 
ENDROOT
BRANCH   3   7
ATOM      7  C   UNL     1       2.823   3.473  18.148  0.00  0.00    +0.000 A 
ATOM      8  C   UNL     1       1.500   3.909  17.987  0.00  0.00    +0.000 A 
ATOM      9  C   UNL     1       0.414   3.197  18.505  0.00  0.00    +0.000 A 
ATOM     10  C   UNL     1       0.632   2.056  19.264  0.00  0.00    +0.000 A 
ATOM     11  C   UNL     1       1.933   1.628  19.493  0.00  0.00    +0.000 A 
ATOM     12  C   UNL     1       3.015   2.320  18.932  0.00  0.00    +0.000 A 
ENDBRANCH   3   7
BRANCH   1  13
ATOM     13  C   UNL     1       6.794   4.743  15.194  0.00  0.00    +0.000 C 
ATOM     14  O   UNL     1       7.676   5.578  15.094  0.00  0.00    +0.000 OA
BRANCH  13  15
ATOM     15  O   UNL     1       6.581   3.743  14.287  0.00  0.00    +0.000 OA
BRANCH  15  17
ATOM     16  C   UNL     1       5.857   3.132  12.106  0.00  0.00    +0.000 C 
ATOM     17  C   UNL     1       5.613   4.069  13.276  0.00  0.00    +0.000 C 
ENDBRANCH  15  17
ENDBRANCH  13  15
ENDBRANCH   1  13
BRANCH   4  18
ATOM     18  C   UNL     1       4.013   6.127  19.187  0.00  0.00    +0.000 C 
BRANCH  18  19
ATOM     19  C   UNL     1       2.940   7.170  19.073  0.00  0.00    +0.000 C 
ATOM     20  O   UNL     1       2.603   7.626  17.981  0.00  0.00    +0.000 OA
ATOM     21  N   UNL     1       2.378   7.514  20.298  0.00  0.00    +0.000 N 
ATOM     22  H   UNL     1       2.981   7.395  21.106  0.00  0.00    +0.000 HD
BRANCH  21  23
ATOM     23  C   UNL     1       1.378   8.496  20.405  0.00  0.00    +0.000 A 
ATOM     24  C   UNL     1       1.063   9.348  19.345  0.00  0.00    +0.000 A 
ATOM     25  C   UNL     1       0.110  10.351  19.523  0.00  0.00    +0.000 A 
ATOM     26  C   UNL     1      -0.519  10.519  20.758  0.00  0.00    +0.000 A 
ATOM     27  C   UNL     1      -0.206   9.659  21.813  0.00  0.00    +0.000 A 
ATOM     28  C   UNL     1       0.716   8.626  21.625  0.00  0.00    +0.000 A 
BRANCH  26  29
ATOM     29  O   UNL     1      -1.378  11.580  20.836  0.00  0.00    +0.000 OA
ATOM     30  C   UNL     1      -1.757  11.972  22.149  0.00  0.00    +0.000 C 
ENDBRANCH  26  29
ENDBRANCH  21  23
ENDBRANCH  18  19
ENDBRANCH   4  18
TORSDOF 8
ENDMDL
MODEL 9
REMARK VINA RESULT:      -7.0      0.930      1.805
REMARK  Name = 
REMARK  11 active torsions:
REMARK  status: ('A' for Active; 'I' for Inactive)
REMARK    1  A    between atoms: C_1  and  C_2
REMARK    2  A    between atoms: C_2  and  O_3
REMARK    3  A    between atoms: O_3  and  C_4
REMARK    4  A    between atoms: C_4  and  C_6
REMARK    5  A    between atoms: C_8  and  C_9
REMARK    6  A    between atoms: N_15  and  C_16
REMARK    7  A    between atoms: C_16  and  C_17
REMARK    8  A    between atoms: N_19  and  C_20
REMARK    9  A    between atoms: C_23  and  O_24
REMARK   10  A    between atoms: O_24  and  C_25
REMARK   11  A    between atoms: C_28  and  C_29
REMARK                            x       y       z     vdW  Elec       q    Type
REMARK                         _______ _______ _______ _____ _____    ______ ____
ROOT
ATOM      1  C   UNL     1       5.827   5.645  17.635  0.00  0.00    +0.000 A 
ATOM      2  C   UNL     1       5.319   4.685  18.544  0.00  0.00    +0.000 A 
ATOM      3  C   UNL     1       3.959   4.888  18.727  0.00  0.00    +0.000 A 
ATOM      4  N   UNL     1       3.618   5.989  17.916  0.00  0.00    +0.000 N 
ATOM      5  C   UNL     1       4.737   6.398  17.202  0.00  0.00    +0.000 A 
ATOM      6  C   UNL     1       4.787   7.443  16.132  0.00  0.00    +0.000 C 
ENDROOT
BRANCH   3   7
ATOM      7  C   UNL     1       3.049   4.074  19.579  0.00  0.00    +0.000 A 
ATOM      8  C   UNL     1       2.836   4.326  20.941  0.00  0.00    +0.000 A 
ATOM      9  C   UNL     1       1.952   3.563  21.710  0.00  0.00    +0.000 A 
ATOM     10  C   UNL     1       1.306   2.473  21.144  0.00  0.00    +0.000 A 
ATOM     11  C   UNL     1       1.540   2.158  19.811  0.00  0.00    +0.000 A 
ATOM     12  C   UNL     1       2.390   2.956  19.034  0.00  0.00    +0.000 A 
ENDBRANCH   3   7
BRANCH   1  13
ATOM     13  C   UNL     1       7.202   5.790  17.144  0.00  0.00    +0.000 C 
ATOM     14  O   UNL     1       8.132   6.171  17.834  0.00  0.00    +0.000 OA
BRANCH  13  15
ATOM     15  O   UNL     1       7.295   5.541  15.804  0.00  0.00    +0.000 OA
BRANCH  15  17
ATOM     16  C   UNL     1       5.993   4.278  14.268  0.00  0.00    +0.000 C 
ATOM     17  C   UNL     1       6.959   4.193  15.436  0.00  0.00    +0.000 C 
ENDBRANCH  15  17
ENDBRANCH  13  15
ENDBRANCH   1  13
BRANCH   4  18
ATOM     18  C   UNL     1       2.260   6.552  17.913  0.00  0.00    +0.000 C 
BRANCH  18  19
ATOM     19  C   UNL     1       1.939   7.817  18.654  0.00  0.00    +0.000 C 
ATOM     20  O   UNL     1       2.074   7.897  19.874  0.00  0.00    +0.000 OA
ATOM     21  N   UNL     1       1.521   8.849  17.820  0.00  0.00    +0.000 N 
ATOM     22  H   UNL     1       1.075   8.561  16.955  0.00  0.00    +0.000 HD
BRANCH  21  23
ATOM     23  C   UNL     1       1.143  10.104  18.327  0.00  0.00    +0.000 A 
ATOM     24  C   UNL     1       2.024  11.186  18.353  0.00  0.00    +0.000 A 
ATOM     25  C   UNL     1       1.624  12.393  18.928  0.00  0.00    +0.000 A 
ATOM     26  C   UNL     1       0.354  12.520  19.492  0.00  0.00    +0.000 A 
ATOM     27  C   UNL     1      -0.527  11.437  19.458  0.00  0.00    +0.000 A 
ATOM     28  C   UNL     1      -0.145  10.242  18.844  0.00  0.00    +0.000 A 
BRANCH  26  29
ATOM     29  O   UNL     1       0.100  13.722  20.093  0.00  0.00    +0.000 OA
ATOM     30  C   UNL     1       0.836  13.986  21.280  0.00  0.00    +0.000 C 
ENDBRANCH  26  29
ENDBRANCH  21  23
ENDBRANCH  18  19
ENDBRANCH   4  18
TORSDOF 8
ENDMDL
