MODEL 1
REMARK VINA RESULT:      -6.5      0.000      0.000
REMARK  Name = 
REMARK  5 active torsions:
REMARK  status: ('A' for Active; 'I' for Inactive)
REMARK    1  A    between atoms: C_1  and  C_2
REMARK    2  A    between atoms: C_2  and  O_3
REMARK    3  A    between atoms: O_3  and  C_4
REMARK    4  A    between atoms: C_4  and  C_6
REMARK    5  A    between atoms: C_15  and  C_16
REMARK                            x       y       z     vdW  Elec       q    Type
REMARK                         _______ _______ _______ _____ _____    ______ ____
ROOT
ATOM      1  C   UNL     1       3.046   4.473  18.491  0.00  0.00    +0.000 C 
ATOM      2  C   UNL     1       1.604   4.096  18.213  0.00  0.00    +0.000 C 
ATOM      3  O   UNL     1       1.114   4.037  17.089  0.00  0.00    +0.000 OA
ATOM      4  O   UNL     1       0.928   3.613  19.307  0.00  0.00    +0.000 OA
ATOM      5  C   UNL     1       0.947   4.372  20.533  0.00  0.00    +0.000 C 
ATOM      6  C   UNL     1       1.957   5.464  20.539  0.00  0.00    +0.000 C 
ATOM      7  C   UNL     1       2.884   5.525  19.568  0.00  0.00    +0.000 C 
ATOM      8  C   UNL     1       3.390   6.847  19.080  0.00  0.00    +0.000 C 
ATOM      9  O   UNL     1       3.455   6.676  17.656  0.00  0.00    +0.000 OA
ATOM     10  C   UNL     1       3.799   5.292  17.432  0.00  0.00    +0.000 C 
ENDROOT
BRANCH  10  11
ATOM     11  C   UNL     1       5.316   5.258  17.575  0.00  0.00    +0.000 A 
ATOM     12  C   UNL     1       6.213   5.715  18.519  0.00  0.00    +0.000 A 
ATOM     13  C   UNL     1       7.491   5.232  18.132  0.00  0.00    +0.000 A 
ATOM     14  C   UNL     1       7.306   4.549  16.954  0.00  0.00    +0.000 A 
ATOM     15  O   UNL     1       6.004   4.589  16.595  0.00  0.00    +0.000 OA
ENDBRANCH  10  11
BRANCH   1  16
ATOM     16  C   UNL     1       3.778   3.104  18.535  0.00  0.00    +0.000 C 
ATOM     17  O   UNL     1       3.780   2.250  17.665  0.00  0.00    +0.000 OA
BRANCH  16  18
ATOM     18  O   UNL     1       4.525   3.083  19.688  0.00  0.00    +0.000 OA
BRANCH  18  20
ATOM     19  C   UNL     1       3.209   2.119  21.465  0.00  0.00    +0.000 C 
ATOM     20  C   UNL     1       4.454   1.986  20.610  0.00  0.00    +0.000 C 
ENDBRANCH  18  20
ENDBRANCH  16  18
ENDBRANCH   1  16
TORSDOF 4
ENDMDL
MODEL 2
REMARK VINA RESULT:      -6.5      1.409      2.368
REMARK  Name = 
REMARK  5 active torsions:
REMARK  status: ('A' for Active; 'I' for Inactive)
REMARK    1  A    between atoms: C_1  and  C_2
REMARK    2  A    between atoms: C_2  and  O_3
REMARK    3  A    between atoms: O_3  and  C_4
REMARK    4  A    between atoms: C_4  and  C_6
REMARK    5  A    between atoms: C_15  and  C_16
REMARK                            x       y       z     vdW  Elec       q    Type
REMARK                         _______ _______ _______ _____ _____    ______ ____
ROOT
ATOM      1  C   UNL     1       2.820   4.479  18.520  0.00  0.00    +0.000 C 
ATOM      2  C   UNL     1       1.479   3.969  18.027  0.00  0.00    +0.000 C 
ATOM      3  O   UNL     1       0.966   4.303  16.963  0.00  0.00    +0.000 OA
ATOM      4  O   UNL     1       0.965   2.933  18.768  0.00  0.00    +0.000 OA
ATOM      5  C   UNL     1       0.875   3.072  20.201  0.00  0.00    +0.000 C 
ATOM      6  C   UNL     1       1.632   4.237  20.732  0.00  0.00    +0.000 C 
ATOM      7  C   UNL     1       2.484   4.903  19.934  0.00  0.00    +0.000 C 
ATOM      8  C   UNL     1       2.681   6.379  20.093  0.00  0.00    +0.000 C 
ATOM      9  O   UNL     1       2.721   6.858  18.740  0.00  0.00    +0.000 OA
ATOM     10  C   UNL     1       3.339   5.812  17.960  0.00  0.00    +0.000 C 
ENDROOT
BRANCH  10  11
ATOM     11  C   UNL     1       4.834   6.035  18.157  0.00  0.00    +0.000 A 
ATOM     12  C   UNL     1       5.780   5.549  19.036  0.00  0.00    +0.000 A 
ATOM     13  C   UNL     1       7.036   6.042  18.593  0.00  0.00    +0.000 A 
ATOM     14  C   UNL     1       6.778   6.833  17.500  0.00  0.00    +0.000 A 
ATOM     15  O   UNL     1       5.450   6.860  17.252  0.00  0.00    +0.000 OA
ENDBRANCH  10  11
BRANCH   1  16
ATOM     16  C   UNL     1       3.824   3.411  18.009  0.00  0.00    +0.000 C 
ATOM     17  O   UNL     1       4.261   2.461  18.637  0.00  0.00    +0.000 OA
BRANCH  16  18
ATOM     18  O   UNL     1       4.040   3.665  16.676  0.00  0.00    +0.000 OA
BRANCH  18  20
ATOM     19  C   UNL     1       5.486   4.344  14.869  0.00  0.00    +0.000 C 
ATOM     20  C   UNL     1       5.313   3.423  16.061  0.00  0.00    +0.000 C 
ENDBRANCH  18  20
ENDBRANCH  16  18
ENDBRANCH   1  16
TORSDOF 4
ENDMDL
MODEL 3
REMARK VINA RESULT:      -6.4      1.616      4.587
REMARK  Name = 
REMARK  5 active torsions:
REMARK  status: ('A' for Active; 'I' for Inactive)
REMARK    1  A    between atoms: C_1  and  C_2
REMARK    2  A    between atoms: C_2  and  O_3
REMARK    3  A    between atoms: O_3  and  C_4
REMARK    4  A    between atoms: C_4  and  C_6
REMARK    5  A    between atoms: C_15  and  C_16
REMARK                            x       y       z     vdW  Elec       q    Type
REMARK                         _______ _______ _______ _____ _____    ______ ____
ROOT
ATOM      1  C   UNL     1       4.781   4.663  18.880  0.00  0.00    +0.000 C 
ATOM      2  C   UNL     1       6.243   5.068  18.831  0.00  0.00    +0.000 C 
ATOM      3  O   UNL     1       6.859   5.530  19.787  0.00  0.00    +0.000 OA
ATOM      4  O   UNL     1       6.895   4.681  17.686  0.00  0.00    +0.000 OA
ATOM      5  C   UNL     1       6.314   5.003  16.406  0.00  0.00    +0.000 C 
ATOM      6  C   UNL     1       4.906   5.474  16.495  0.00  0.00    +0.000 C 
ATOM      7  C   UNL     1       4.232   5.356  17.652  0.00  0.00    +0.000 C 
ATOM      8  C   UNL     1       3.213   6.379  18.047  0.00  0.00    +0.000 C 
ATOM      9  O   UNL     1       3.458   6.571  19.448  0.00  0.00    +0.000 OA
ATOM     10  C   UNL     1       3.890   5.293  19.961  0.00  0.00    +0.000 C 
ENDROOT
BRANCH  10  11
ATOM     11  C   UNL     1       2.592   4.538  20.220  0.00  0.00    +0.000 A 
ATOM     12  C   UNL     1       1.399   4.395  19.541  0.00  0.00    +0.000 A 
ATOM     13  C   UNL     1       0.640   3.429  20.253  0.00  0.00    +0.000 A 
ATOM     14  C   UNL     1       1.392   3.073  21.345  0.00  0.00    +0.000 A 
ATOM     15  O   UNL     1       2.555   3.762  21.350  0.00  0.00    +0.000 OA
ENDBRANCH  10  11
BRANCH   1  16
ATOM     16  C   UNL     1       4.835   3.152  19.234  0.00  0.00    +0.000 C 
ATOM     17  O   UNL     1       5.133   2.665  20.311  0.00  0.00    +0.000 OA
BRANCH  16  18
ATOM     18  O   UNL     1       4.365   2.465  18.141  0.00  0.00    +0.000 OA
BRANCH  18  20
ATOM     19  C   UNL     1       2.110   1.972  17.443  0.00  0.00    +0.000 C 
ATOM     20  C   UNL     1       3.304   1.507  18.253  0.00  0.00    +0.000 C 
ENDBRANCH  18  20
ENDBRANCH  16  18
ENDBRANCH   1  16
TORSDOF 4
ENDMDL
MODEL 4
REMARK VINA RESULT:      -6.4      1.629      3.507
REMARK  Name = 
REMARK  5 active torsions:
REMARK  status: ('A' for Active; 'I' for Inactive)
REMARK    1  A    between atoms: C_1  and  C_2
REMARK    2  A    between atoms: C_2  and  O_3
REMARK    3  A    between atoms: O_3  and  C_4
REMARK    4  A    between atoms: C_4  and  C_6
REMARK    5  A    between atoms: C_15  and  C_16
REMARK                            x       y       z     vdW  Elec       q    Type
REMARK                         _______ _______ _______ _____ _____    ______ ____
ROOT
ATOM      1  C   UNL     1       3.535   3.864  19.119  0.00  0.00    +0.000 C 
ATOM      2  C   UNL     1       3.230   3.312  20.499  0.00  0.00    +0.000 C 
ATOM      3  O   UNL     1       3.981   2.569  21.122  0.00  0.00    +0.000 OA
ATOM      4  O   UNL     1       2.132   3.878  21.100  0.00  0.00    +0.000 OA
ATOM      5  C   UNL     1       0.888   3.938  20.373  0.00  0.00    +0.000 C 
ATOM      6  C   UNL     1       1.031   3.627  18.925  0.00  0.00    +0.000 C 
ATOM      7  C   UNL     1       2.254   3.549  18.375  0.00  0.00    +0.000 C 
ATOM      8  C   UNL     1       2.527   2.588  17.259  0.00  0.00    +0.000 C 
ATOM      9  O   UNL     1       3.813   2.044  17.593  0.00  0.00    +0.000 OA
ATOM     10  C   UNL     1       4.544   3.106  18.242  0.00  0.00    +0.000 C 
ENDROOT
BRANCH  10  11
ATOM     11  C   UNL     1       5.112   3.927  17.090  0.00  0.00    +0.000 A 
ATOM     12  C   UNL     1       4.574   4.534  15.974  0.00  0.00    +0.000 A 
ATOM     13  C   UNL     1       5.626   5.273  15.368  0.00  0.00    +0.000 A 
ATOM     14  C   UNL     1       6.749   5.037  16.123  0.00  0.00    +0.000 A 
ATOM     15  O   UNL     1       6.454   4.199  17.142  0.00  0.00    +0.000 OA
ENDBRANCH  10  11
BRANCH   1  16
ATOM     16  C   UNL     1       4.207   5.232  19.414  0.00  0.00    +0.000 C 
ATOM     17  O   UNL     1       5.363   5.418  19.755  0.00  0.00    +0.000 OA
BRANCH  16  18
ATOM     18  O   UNL     1       3.290   6.207  19.104  0.00  0.00    +0.000 OA
BRANCH  18  20
ATOM     19  C   UNL     1       2.351   8.103  17.947  0.00  0.00    +0.000 C 
ATOM     20  C   UNL     1       3.494   7.110  18.008  0.00  0.00    +0.000 C 
ENDBRANCH  18  20
ENDBRANCH  16  18
ENDBRANCH   1  16
TORSDOF 4
ENDMDL
MODEL 5
REMARK VINA RESULT:      -6.4      1.621      3.467
REMARK  Name = 
REMARK  5 active torsions:
REMARK  status: ('A' for Active; 'I' for Inactive)
REMARK    1  A    between atoms: C_1  and  C_2
REMARK    2  A    between atoms: C_2  and  O_3
REMARK    3  A    between atoms: O_3  and  C_4
REMARK    4  A    between atoms: C_4  and  C_6
REMARK    5  A    between atoms: C_15  and  C_16
REMARK                            x       y       z     vdW  Elec       q    Type
REMARK                         _______ _______ _______ _____ _____    ______ ____
ROOT
ATOM      1  C   UNL     1       3.056   3.968  19.379  0.00  0.00    +0.000 C 
ATOM      2  C   UNL     1       1.961   3.905  20.428  0.00  0.00    +0.000 C 
ATOM      3  O   UNL     1       2.123   4.197  21.609  0.00  0.00    +0.000 OA
ATOM      4  O   UNL     1       0.704   3.696  19.915  0.00  0.00    +0.000 OA
ATOM      5  C   UNL     1       0.493   2.599  19.002  0.00  0.00    +0.000 C 
ATOM      6  C   UNL     1       1.756   1.995  18.499  0.00  0.00    +0.000 C 
ATOM      7  C   UNL     1       2.929   2.611  18.723  0.00  0.00    +0.000 C 
ATOM      8  C   UNL     1       4.178   1.814  18.936  0.00  0.00    +0.000 C 
ATOM      9  O   UNL     1       4.833   2.501  20.013  0.00  0.00    +0.000 OA
ATOM     10  C   UNL     1       4.516   3.900  19.851  0.00  0.00    +0.000 C 
ENDROOT
BRANCH  10  11
ATOM     11  C   UNL     1       5.530   4.395  18.826  0.00  0.00    +0.000 A 
ATOM     12  C   UNL     1       5.646   4.304  17.454  0.00  0.00    +0.000 A 
ATOM     13  C   UNL     1       6.755   5.112  17.087  0.00  0.00    +0.000 A 
ATOM     14  C   UNL     1       7.275   5.611  18.256  0.00  0.00    +0.000 A 
ATOM     15  O   UNL     1       6.562   5.156  19.311  0.00  0.00    +0.000 OA
ENDBRANCH  10  11
BRANCH   1  16
ATOM     16  C   UNL     1       2.896   5.389  18.773  0.00  0.00    +0.000 C 
ATOM     17  O   UNL     1       2.705   5.665  17.601  0.00  0.00    +0.000 OA
BRANCH  16  18
ATOM     18  O   UNL     1       2.890   6.277  19.823  0.00  0.00    +0.000 OA
BRANCH  18  20
ATOM     19  C   UNL     1       1.386   7.767  20.978  0.00  0.00    +0.000 C 
ATOM     20  C   UNL     1       2.221   7.542  19.733  0.00  0.00    +0.000 C 
ENDBRANCH  18  20
ENDBRANCH  16  18
ENDBRANCH   1  16
TORSDOF 4
ENDMDL
MODEL 6
REMARK VINA RESULT:      -6.4      1.662      3.395
REMARK  Name = 
REMARK  5 active torsions:
REMARK  status: ('A' for Active; 'I' for Inactive)
REMARK    1  A    between atoms: C_1  and  C_2
REMARK    2  A    between atoms: C_2  and  O_3
REMARK    3  A    between atoms: O_3  and  C_4
REMARK    4  A    between atoms: C_4  and  C_6
REMARK    5  A    between atoms: C_15  and  C_16
REMARK                            x       y       z     vdW  Elec       q    Type
REMARK                         _______ _______ _______ _____ _____    ______ ____
ROOT
ATOM      1  C   UNL     1       3.779   3.576  19.094  0.00  0.00    +0.000 C 
ATOM      2  C   UNL     1       3.774   2.823  20.412  0.00  0.00    +0.000 C 
ATOM      3  O   UNL     1       4.619   1.992  20.730  0.00  0.00    +0.000 OA
ATOM      4  O   UNL     1       2.863   3.295  21.325  0.00  0.00    +0.000 OA
ATOM      5  C   UNL     1       1.490   3.467  20.920  0.00  0.00    +0.000 C 
ATOM      6  C   UNL     1       1.289   3.379  19.449  0.00  0.00    +0.000 C 
ATOM      7  C   UNL     1       2.352   3.381  18.627  0.00  0.00    +0.000 C 
ATOM      8  C   UNL     1       2.328   2.600  17.350  0.00  0.00    +0.000 C 
ATOM      9  O   UNL     1       3.635   2.008  17.296  0.00  0.00    +0.000 OA
ATOM     10  C   UNL     1       4.534   2.957  17.908  0.00  0.00    +0.000 C 
ENDROOT
BRANCH  10  11
ATOM     11  C   UNL     1       4.856   3.940  16.789  0.00  0.00    +0.000 A 
ATOM     12  C   UNL     1       4.486   5.238  16.501  0.00  0.00    +0.000 A 
ATOM     13  C   UNL     1       5.256   5.639  15.377  0.00  0.00    +0.000 A 
ATOM     14  C   UNL     1       6.016   4.552  15.020  0.00  0.00    +0.000 A 
ATOM     15  O   UNL     1       5.755   3.514  15.846  0.00  0.00    +0.000 OA
ENDBRANCH  10  11
BRANCH   1  16
ATOM     16  C   UNL     1       4.552   4.882  19.425  0.00  0.00    +0.000 C 
ATOM     17  O   UNL     1       4.070   5.983  19.630  0.00  0.00    +0.000 OA
BRANCH  16  18
ATOM     18  O   UNL     1       5.876   4.542  19.563  0.00  0.00    +0.000 OA
BRANCH  18  20
ATOM     19  C   UNL     1       7.827   5.121  18.268  0.00  0.00    +0.000 C 
ATOM     20  C   UNL     1       6.920   5.514  19.418  0.00  0.00    +0.000 C 
ENDBRANCH  18  20
ENDBRANCH  16  18
ENDBRANCH   1  16
TORSDOF 4
ENDMDL
MODEL 7
REMARK VINA RESULT:      -6.3      1.825      4.825
REMARK  Name = 
REMARK  5 active torsions:
REMARK  status: ('A' for Active; 'I' for Inactive)
REMARK    1  A    between atoms: C_1  and  C_2
REMARK    2  A    between atoms: C_2  and  O_3
REMARK    3  A    between atoms: O_3  and  C_4
REMARK    4  A    between atoms: C_4  and  C_6
REMARK    5  A    between atoms: C_15  and  C_16
REMARK                            x       y       z     vdW  Elec       q    Type
REMARK                         _______ _______ _______ _____ _____    ______ ____
ROOT
ATOM      1  C   UNL     1       4.699   5.100  18.547  0.00  0.00    +0.000 C 
ATOM      2  C   UNL     1       6.099   5.579  18.882  0.00  0.00    +0.000 C 
ATOM      3  O   UNL     1       6.609   5.483  19.994  0.00  0.00    +0.000 OA
ATOM      4  O   UNL     1       6.845   5.944  17.789  0.00  0.00    +0.000 OA
ATOM      5  C   UNL     1       6.287   6.873  16.837  0.00  0.00    +0.000 C 
ATOM      6  C   UNL     1       4.828   7.102  17.019  0.00  0.00    +0.000 C 
ATOM      7  C   UNL     1       4.123   6.310  17.844  0.00  0.00    +0.000 C 
ATOM      8  C   UNL     1       2.967   6.859  18.622  0.00  0.00    +0.000 C 
ATOM      9  O   UNL     1       3.123   6.262  19.919  0.00  0.00    +0.000 OA
ATOM     10  C   UNL     1       3.688   4.953  19.695  0.00  0.00    +0.000 C 
ENDROOT
BRANCH  10  11
ATOM     11  C   UNL     1       2.485   4.080  19.361  0.00  0.00    +0.000 A 
ATOM     12  C   UNL     1       1.566   4.045  18.332  0.00  0.00    +0.000 A 
ATOM     13  C   UNL     1       0.773   2.884  18.535  0.00  0.00    +0.000 A 
ATOM     14  C   UNL     1       1.224   2.307  19.697  0.00  0.00    +0.000 A 
ATOM     15  O   UNL     1       2.232   3.040  20.218  0.00  0.00    +0.000 OA
ENDBRANCH  10  11
BRANCH   1  16
ATOM     16  C   UNL     1       4.926   3.656  18.024  0.00  0.00    +0.000 C 
ATOM     17  O   UNL     1       5.154   2.664  18.695  0.00  0.00    +0.000 OA
BRANCH  16  18
ATOM     18  O   UNL     1       4.701   3.678  16.669  0.00  0.00    +0.000 OA
BRANCH  18  20
ATOM     19  C   UNL     1       5.485   4.307  14.476  0.00  0.00    +0.000 C 
ATOM     20  C   UNL     1       5.768   3.498  15.727  0.00  0.00    +0.000 C 
ENDBRANCH  18  20
ENDBRANCH  16  18
ENDBRANCH   1  16
TORSDOF 4
ENDMDL
MODEL 8
REMARK VINA RESULT:      -6.3      1.590      3.577
REMARK  Name = 
REMARK  5 active torsions:
REMARK  status: ('A' for Active; 'I' for Inactive)
REMARK    1  A    between atoms: C_1  and  C_2
REMARK    2  A    between atoms: C_2  and  O_3
REMARK    3  A    between atoms: O_3  and  C_4
REMARK    4  A    between atoms: C_4  and  C_6
REMARK    5  A    between atoms: C_15  and  C_16
REMARK                            x       y       z     vdW  Elec       q    Type
REMARK                         _______ _______ _______ _____ _____    ______ ____
ROOT
ATOM      1  C   UNL     1       2.898   4.186  19.162  0.00  0.00    +0.000 C 
ATOM      2  C   UNL     1       2.106   4.437  20.431  0.00  0.00    +0.000 C 
ATOM      3  O   UNL     1       2.511   5.116  21.370  0.00  0.00    +0.000 OA
ATOM      4  O   UNL     1       0.800   4.017  20.370  0.00  0.00    +0.000 OA
ATOM      5  C   UNL     1       0.516   2.669  19.942  0.00  0.00    +0.000 C 
ATOM      6  C   UNL     1       1.686   1.981  19.334  0.00  0.00    +0.000 C 
ATOM      7  C   UNL     1       2.790   2.683  19.027  0.00  0.00    +0.000 C 
ATOM      8  C   UNL     1       4.145   2.055  19.134  0.00  0.00    +0.000 C 
ATOM      9  O   UNL     1       4.948   3.091  19.721  0.00  0.00    +0.000 OA
ATOM     10  C   UNL     1       4.426   4.339  19.218  0.00  0.00    +0.000 C 
ENDROOT
BRANCH  10  11
ATOM     11  C   UNL     1       5.090   4.499  17.855  0.00  0.00    +0.000 A 
ATOM     12  C   UNL     1       4.859   3.984  16.597  0.00  0.00    +0.000 A 
ATOM     13  C   UNL     1       5.754   4.648  15.716  0.00  0.00    +0.000 A 
ATOM     14  C   UNL     1       6.506   5.494  16.494  0.00  0.00    +0.000 A 
ATOM     15  O   UNL     1       6.135   5.385  17.789  0.00  0.00    +0.000 OA
ENDBRANCH  10  11
BRANCH   1  16
ATOM     16  C   UNL     1       2.418   5.312  18.206  0.00  0.00    +0.000 C 
ATOM     17  O   UNL     1       1.612   5.203  17.297  0.00  0.00    +0.000 OA
BRANCH  16  18
ATOM     18  O   UNL     1       2.978   6.485  18.650  0.00  0.00    +0.000 OA
BRANCH  18  20
ATOM     19  C   UNL     1       2.005   8.587  17.978  0.00  0.00    +0.000 C 
ATOM     20  C   UNL     1       3.150   7.613  17.781  0.00  0.00    +0.000 C 
ENDBRANCH  18  20
ENDBRANCH  16  18
ENDBRANCH   1  16
TORSDOF 4
ENDMDL
MODEL 9
REMARK VINA RESULT:      -6.2      1.129      1.295
REMARK  Name = 
REMARK  5 active torsions:
REMARK  status: ('A' for Active; 'I' for Inactive)
REMARK    1  A    between atoms: C_1  and  C_2
REMARK    2  A    between atoms: C_2  and  O_3
REMARK    3  A    between atoms: O_3  and  C_4
REMARK    4  A    between atoms: C_4  and  C_6
REMARK    5  A    between atoms: C_15  and  C_16
REMARK                            x       y       z     vdW  Elec       q    Type
REMARK                         _______ _______ _______ _____ _____    ______ ____
ROOT
ATOM      1  C   UNL     1       2.900   3.533  18.914  0.00  0.00    +0.000 C 
ATOM      2  C   UNL     1       1.512   2.944  19.077  0.00  0.00    +0.000 C 
ATOM      3  O   UNL     1       0.749   2.715  18.143  0.00  0.00    +0.000 OA
ATOM      4  O   UNL     1       1.242   2.483  20.343  0.00  0.00    +0.000 OA
ATOM      5  C   UNL     1       1.479   3.352  21.470  0.00  0.00    +0.000 C 
ATOM      6  C   UNL     1       2.273   4.563  21.129  0.00  0.00    +0.000 C 
ATOM      7  C   UNL     1       2.878   4.652  19.933  0.00  0.00    +0.000 C 
ATOM      8  C   UNL     1       3.024   5.977  19.250  0.00  0.00    +0.000 C 
ATOM      9  O   UNL     1       2.723   5.681  17.878  0.00  0.00    +0.000 OA
ATOM     10  C   UNL     1       3.201   4.340  17.641  0.00  0.00    +0.000 C 
ENDROOT
BRANCH  10  11
ATOM     11  C   UNL     1       4.686   4.519  17.349  0.00  0.00    +0.000 A 
ATOM     12  C   UNL     1       5.760   5.018  18.056  0.00  0.00    +0.000 A 
ATOM     13  C   UNL     1       6.915   4.768  17.269  0.00  0.00    +0.000 A 
ATOM     14  C   UNL     1       6.474   4.173  16.112  0.00  0.00    +0.000 A 
ATOM     15  O   UNL     1       5.128   4.050  16.139  0.00  0.00    +0.000 OA
ENDBRANCH  10  11
BRANCH   1  16
ATOM     16  C   UNL     1       3.817   2.283  18.823  0.00  0.00    +0.000 C 
ATOM     17  O   UNL     1       3.792   1.422  17.960  0.00  0.00    +0.000 OA
BRANCH  16  18
ATOM     18  O   UNL     1       4.744   2.389  19.831  0.00  0.00    +0.000 OA
BRANCH  18  20
ATOM     19  C   UNL     1       5.606   0.542  21.120  0.00  0.00    +0.000 C 
ATOM     20  C   UNL     1       4.599   1.673  21.065  0.00  0.00    +0.000 C 
ENDBRANCH  18  20
ENDBRANCH  16  18
ENDBRANCH   1  16
TORSDOF 4
ENDMDL
