MODEL 1
REMARK VINA RESULT:      -6.2      0.000      0.000
REMARK  Name = 
REMARK  22 active torsions:
REMARK  status: ('A' for Active; 'I' for Inactive)
REMARK    1  A    between atoms: C_1  and  C_2
REMARK    2  A    between atoms: C_2  and  C_3
REMARK    3  A    between atoms: C_2  and  C_4
REMARK    4  A    between atoms: C_7  and  C_8
REMARK    5  A    between atoms: C_8  and  N_9
REMARK    6  A    between atoms: N_9  and  C_10
REMARK    7  A    between atoms: C_10  and  C_11
REMARK    8  A    between atoms: C_11  and  C_12
REMARK    9  A    between atoms: C_12  and  C_13
REMARK   10  A    between atoms: C_13  and  N_14
REMARK   11  A    between atoms: N_14  and  C_15
REMARK   12  A    between atoms: C_15  and  C_16
REMARK   13  A    between atoms: C_16  and  C_17
REMARK   14  A    between atoms: C_17  and  N_18
REMARK   15  A    between atoms: C_19  and  C_21
REMARK   16  A    between atoms: C_21  and  C_22
REMARK   17  A    between atoms: C_22  and  C_23
REMARK   18  A    between atoms: C_23  and  C_24
REMARK   19  A    between atoms: C_24  and  C_25
REMARK   20  A    between atoms: C_25  and  C_26
REMARK   21  A    between atoms: C_26  and  C_27
REMARK   22  A    between atoms: N_29  and  O_30
REMARK                            x       y       z     vdW  Elec       q    Type
REMARK                         _______ _______ _______ _____ _____    ______ ____
ROOT
ATOM      1  C   UNL     1       3.587   2.038  18.477  0.00  0.00    +0.000 C 
ENDROOT
BRANCH   1   2
ATOM      2  N   UNL     1       3.031   3.245  17.881  0.00  0.00    +0.000 NA
ATOM      3  H   UNL     1       2.575   3.036  16.995  0.00  0.00    +0.000 HD
BRANCH   2   4
ATOM      4  C   UNL     1       4.029   4.280  17.645  0.00  0.00    +0.000 C 
BRANCH   4   5
ATOM      5  C   UNL     1       3.341   5.650  17.632  0.00  0.00    +0.000 C 
BRANCH   5   6
ATOM      6  C   UNL     1       4.280   6.776  17.176  0.00  0.00    +0.000 C 
BRANCH   6   7
ATOM      7  C   UNL     1       5.715   6.514  17.628  0.00  0.00    +0.000 C 
BRANCH   7   8
ATOM      8  N   UNL     1       6.634   6.736  16.516  0.00  0.00    +0.000 NA
ATOM      9  H   UNL     1       6.126   6.952  15.658  0.00  0.00    +0.000 HD
BRANCH   8  10
ATOM     10  C   UNL     1       7.467   5.564  16.277  0.00  0.00    +0.000 C 
BRANCH  10  14
ATOM     11  C   UNL     1       6.065   3.589  12.698  0.00  0.00    +0.000 A 
ATOM     12  C   UNL     1       7.085   4.543  12.628  0.00  0.00    +0.000 A 
ATOM     13  C   UNL     1       7.550   5.161  13.784  0.00  0.00    +0.000 A 
ATOM     14  C   UNL     1       6.998   4.853  15.037  0.00  0.00    +0.000 A 
ATOM     15  C   UNL     1       5.985   3.899  15.113  0.00  0.00    +0.000 A 
ATOM     16  C   UNL     1       5.529   3.272  13.956  0.00  0.00    +0.000 A 
BRANCH  11  18
ATOM     17  C   UNL     1       5.847   1.437  11.411  0.00  0.00    +0.000 C 
ATOM     18  C   UNL     1       5.550   2.938  11.430  0.00  0.00    +0.000 C 
ATOM     19  C   UNL     1       4.056   3.210  11.241  0.00  0.00    +0.000 C 
ENDBRANCH  11  18
ENDBRANCH  10  14
ENDBRANCH   8  10
ENDBRANCH   7   8
ENDBRANCH   6   7
ENDBRANCH   5   6
ENDBRANCH   4   5
ENDBRANCH   2   4
ENDBRANCH   1   2
BRANCH   1  20
ATOM     20  C   UNL     1       4.230   2.373  19.826  0.00  0.00    +0.000 C 
BRANCH  20  21
ATOM     21  C   UNL     1       3.181   2.541  20.925  0.00  0.00    +0.000 C 
BRANCH  21  22
ATOM     22  N   UNL     1       2.522   3.822  20.873  0.00  0.00    +0.000 N 
ATOM     23  C   UNL     1       1.214   3.927  20.469  0.00  0.00    +0.000 C 
ATOM     24  O   UNL     1       0.538   2.968  20.121  0.00  0.00    +0.000 OA
ATOM     25  H   UNL     1       3.022   4.636  21.206  0.00  0.00    +0.000 HD
BRANCH  23  26
ATOM     26  C   UNL     1       0.708   5.351  20.448  0.00  0.00    +0.000 C 
BRANCH  26  27
ATOM     27  C   UNL     1       1.886   6.313  20.513  0.00  0.00    +0.000 C 
BRANCH  27  28
ATOM     28  C   UNL     1       1.495   7.652  21.122  0.00  0.00    +0.000 C 
BRANCH  28  29
ATOM     29  C   UNL     1       1.412   8.721  20.032  0.00  0.00    +0.000 C 
BRANCH  29  30
ATOM     30  C   UNL     1       0.585   9.915  20.496  0.00  0.00    +0.000 C 
BRANCH  30  31
ATOM     31  C   UNL     1      -0.583  10.191  19.555  0.00  0.00    +0.000 C 
BRANCH  31  32
ATOM     32  C   UNL     1      -0.329  11.431  18.725  0.00  0.00    +0.000 C 
ATOM     33  O   UNL     1       0.646  12.173  18.858  0.00  0.00    +0.000 OA
ATOM     34  N   UNL     1      -1.286  11.674  17.771  0.00  0.00    +0.000 N 
ATOM     35  H   UNL     1      -2.211  11.259  17.772  0.00  0.00    +0.000 HD
BRANCH  34  36
ATOM     36  O   UNL     1      -1.117  12.876  17.041  0.00  0.00    +0.000 OA
ATOM     37  H   UNL     1      -0.699  13.465  17.711  0.00  0.00    +0.000 HD
ENDBRANCH  34  36
ENDBRANCH  31  32
ENDBRANCH  30  31
ENDBRANCH  29  30
ENDBRANCH  28  29
ENDBRANCH  27  28
ENDBRANCH  26  27
ENDBRANCH  23  26
ENDBRANCH  21  22
ENDBRANCH  20  21
ENDBRANCH   1  20
TORSDOF 20
ENDMDL
MODEL 2
REMARK VINA RESULT:      -6.1      3.907     10.184
REMARK  Name = 
REMARK  22 active torsions:
REMARK  status: ('A' for Active; 'I' for Inactive)
REMARK    1  A    between atoms: C_1  and  C_2
REMARK    2  A    between atoms: C_2  and  C_3
REMARK    3  A    between atoms: C_2  and  C_4
REMARK    4  A    between atoms: C_7  and  C_8
REMARK    5  A    between atoms: C_8  and  N_9
REMARK    6  A    between atoms: N_9  and  C_10
REMARK    7  A    between atoms: C_10  and  C_11
REMARK    8  A    between atoms: C_11  and  C_12
REMARK    9  A    between atoms: C_12  and  C_13
REMARK   10  A    between atoms: C_13  and  N_14
REMARK   11  A    between atoms: N_14  and  C_15
REMARK   12  A    between atoms: C_15  and  C_16
REMARK   13  A    between atoms: C_16  and  C_17
REMARK   14  A    between atoms: C_17  and  N_18
REMARK   15  A    between atoms: C_19  and  C_21
REMARK   16  A    between atoms: C_21  and  C_22
REMARK   17  A    between atoms: C_22  and  C_23
REMARK   18  A    between atoms: C_23  and  C_24
REMARK   19  A    between atoms: C_24  and  C_25
REMARK   20  A    between atoms: C_25  and  C_26
REMARK   21  A    between atoms: C_26  and  C_27
REMARK   22  A    between atoms: N_29  and  O_30
REMARK                            x       y       z     vdW  Elec       q    Type
REMARK                         _______ _______ _______ _____ _____    ______ ____
ROOT
ATOM      1  C   UNL     1       2.330   5.034  20.953  0.00  0.00    +0.000 C 
ENDROOT
BRANCH   1   2
ATOM      2  N   UNL     1       2.088   6.470  20.948  0.00  0.00    +0.000 NA
ATOM      3  H   UNL     1       1.196   6.690  21.386  0.00  0.00    +0.000 HD
BRANCH   2   4
ATOM      4  C   UNL     1       2.091   7.048  19.610  0.00  0.00    +0.000 C 
BRANCH   4   5
ATOM      5  C   UNL     1       1.567   8.486  19.681  0.00  0.00    +0.000 C 
BRANCH   5   6
ATOM      6  C   UNL     1       1.804   9.264  18.379  0.00  0.00    +0.000 C 
BRANCH   6   7
ATOM      7  C   UNL     1       0.502   9.867  17.852  0.00  0.00    +0.000 C 
BRANCH   7   8
ATOM      8  N   UNL     1       0.265  11.162  18.482  0.00  0.00    +0.000 NA
ATOM      9  H   UNL     1       0.525  11.143  19.469  0.00  0.00    +0.000 HD
BRANCH   8  10
ATOM     10  C   UNL     1      -1.138  11.548  18.381  0.00  0.00    +0.000 C 
BRANCH  10  14
ATOM     11  C   UNL     1      -2.645  12.588  22.296  0.00  0.00    +0.000 A 
ATOM     12  C   UNL     1      -3.442  12.765  21.160  0.00  0.00    +0.000 A 
ATOM     13  C   UNL     1      -2.962  12.409  19.903  0.00  0.00    +0.000 A 
ATOM     14  C   UNL     1      -1.671  11.881  19.748  0.00  0.00    +0.000 A 
ATOM     15  C   UNL     1      -0.876  11.698  20.878  0.00  0.00    +0.000 A 
ATOM     16  C   UNL     1      -1.362  12.043  22.137  0.00  0.00    +0.000 A 
BRANCH  11  18
ATOM     17  C   UNL     1      -2.578  14.341  24.101  0.00  0.00    +0.000 C 
ATOM     18  C   UNL     1      -3.169  13.001  23.657  0.00  0.00    +0.000 C 
ATOM     19  C   UNL     1      -4.699  13.038  23.669  0.00  0.00    +0.000 C 
ENDBRANCH  11  18
ENDBRANCH  10  14
ENDBRANCH   8  10
ENDBRANCH   7   8
ENDBRANCH   6   7
ENDBRANCH   5   6
ENDBRANCH   4   5
ENDBRANCH   2   4
ENDBRANCH   1   2
BRANCH   1  20
ATOM     20  C   UNL     1       1.082   4.295  20.458  0.00  0.00    +0.000 C 
BRANCH  20  21
ATOM     21  C   UNL     1       1.440   3.185  19.469  0.00  0.00    +0.000 C 
BRANCH  21  22
ATOM     22  N   UNL     1       2.502   3.561  18.572  0.00  0.00    +0.000 N 
ATOM     23  C   UNL     1       3.745   2.984  18.667  0.00  0.00    +0.000 C 
ATOM     24  O   UNL     1       4.033   2.142  19.507  0.00  0.00    +0.000 OA
ATOM     25  H   UNL     1       2.296   4.211  17.824  0.00  0.00    +0.000 HD
BRANCH  23  26
ATOM     26  C   UNL     1       4.736   3.529  17.663  0.00  0.00    +0.000 C 
BRANCH  26  27
ATOM     27  C   UNL     1       4.009   4.405  16.653  0.00  0.00    +0.000 C 
BRANCH  27  28
ATOM     28  C   UNL     1       4.869   5.572  16.188  0.00  0.00    +0.000 C 
BRANCH  28  29
ATOM     29  C   UNL     1       4.784   6.722  17.192  0.00  0.00    +0.000 C 
BRANCH  29  30
ATOM     30  C   UNL     1       6.172   7.237  17.556  0.00  0.00    +0.000 C 
BRANCH  30  31
ATOM     31  C   UNL     1       7.265   6.270  17.110  0.00  0.00    +0.000 C 
BRANCH  31  32
ATOM     32  C   UNL     1       7.771   5.450  18.277  0.00  0.00    +0.000 C 
ATOM     33  O   UNL     1       8.032   4.247  18.224  0.00  0.00    +0.000 OA
ATOM     34  N   UNL     1       7.935   6.166  19.437  0.00  0.00    +0.000 N 
ATOM     35  H   UNL     1       7.517   7.072  19.613  0.00  0.00    +0.000 HD
BRANCH  34  36
ATOM     36  O   UNL     1       8.322   5.403  20.566  0.00  0.00    +0.000 OA
ATOM     37  H   UNL     1       8.607   6.102  21.198  0.00  0.00    +0.000 HD
ENDBRANCH  34  36
ENDBRANCH  31  32
ENDBRANCH  30  31
ENDBRANCH  29  30
ENDBRANCH  28  29
ENDBRANCH  27  28
ENDBRANCH  26  27
ENDBRANCH  23  26
ENDBRANCH  21  22
ENDBRANCH  20  21
ENDBRANCH   1  20
TORSDOF 20
ENDMDL
MODEL 3
REMARK VINA RESULT:      -6.1      5.086      9.312
REMARK  Name = 
REMARK  22 active torsions:
REMARK  status: ('A' for Active; 'I' for Inactive)
REMARK    1  A    between atoms: C_1  and  C_2
REMARK    2  A    between atoms: C_2  and  C_3
REMARK    3  A    between atoms: C_2  and  C_4
REMARK    4  A    between atoms: C_7  and  C_8
REMARK    5  A    between atoms: C_8  and  N_9
REMARK    6  A    between atoms: N_9  and  C_10
REMARK    7  A    between atoms: C_10  and  C_11
REMARK    8  A    between atoms: C_11  and  C_12
REMARK    9  A    between atoms: C_12  and  C_13
REMARK   10  A    between atoms: C_13  and  N_14
REMARK   11  A    between atoms: N_14  and  C_15
REMARK   12  A    between atoms: C_15  and  C_16
REMARK   13  A    between atoms: C_16  and  C_17
REMARK   14  A    between atoms: C_17  and  N_18
REMARK   15  A    between atoms: C_19  and  C_21
REMARK   16  A    between atoms: C_21  and  C_22
REMARK   17  A    between atoms: C_22  and  C_23
REMARK   18  A    between atoms: C_23  and  C_24
REMARK   19  A    between atoms: C_24  and  C_25
REMARK   20  A    between atoms: C_25  and  C_26
REMARK   21  A    between atoms: C_26  and  C_27
REMARK   22  A    between atoms: N_29  and  O_30
REMARK                            x       y       z     vdW  Elec       q    Type
REMARK                         _______ _______ _______ _____ _____    ______ ____
ROOT
ATOM      1  C   UNL     1       7.074   6.880  17.917  0.00  0.00    +0.000 C 
ENDROOT
BRANCH   1   2
ATOM      2  N   UNL     1       7.415   8.233  17.496  0.00  0.00    +0.000 NA
ATOM      3  H   UNL     1       7.722   8.245  16.526  0.00  0.00    +0.000 HD
BRANCH   2   4
ATOM      4  C   UNL     1       8.459   8.841  18.312  0.00  0.00    +0.000 C 
BRANCH   4   5
ATOM      5  C   UNL     1       8.539  10.338  17.993  0.00  0.00    +0.000 C 
BRANCH   5   6
ATOM      6  C   UNL     1       9.723  11.025  18.686  0.00  0.00    +0.000 C 
BRANCH   6   7
ATOM      7  C   UNL     1      10.403  12.027  17.754  0.00  0.00    +0.000 C 
BRANCH   7   8
ATOM      8  N   UNL     1       9.441  13.036  17.323  0.00  0.00    +0.000 NA
ATOM      9  H   UNL     1       9.659  13.375  16.386  0.00  0.00    +0.000 HD
BRANCH   8  10
ATOM     10  C   UNL     1       9.426  14.174  18.235  0.00  0.00    +0.000 C 
BRANCH  10  14
ATOM     11  C   UNL     1       5.359  15.462  18.925  0.00  0.00    +0.000 A 
ATOM     12  C   UNL     1       5.677  14.692  17.802  0.00  0.00    +0.000 A 
ATOM     13  C   UNL     1       6.984  14.259  17.593  0.00  0.00    +0.000 A 
ATOM     14  C   UNL     1       8.006  14.598  18.493  0.00  0.00    +0.000 A 
ATOM     15  C   UNL     1       7.693  15.361  19.617  0.00  0.00    +0.000 A 
ATOM     16  C   UNL     1       6.382  15.783  19.830  0.00  0.00    +0.000 A 
BRANCH  11  18
ATOM     17  C   UNL     1       3.850  16.949  20.283  0.00  0.00    +0.000 C 
ATOM     18  C   UNL     1       3.938  15.947  19.130  0.00  0.00    +0.000 C 
ATOM     19  C   UNL     1       3.366  16.536  17.838  0.00  0.00    +0.000 C 
ENDBRANCH  11  18
ENDBRANCH  10  14
ENDBRANCH   8  10
ENDBRANCH   7   8
ENDBRANCH   6   7
ENDBRANCH   5   6
ENDBRANCH   4   5
ENDBRANCH   2   4
ENDBRANCH   1   2
BRANCH   1  20
ATOM     20  C   UNL     1       7.271   5.908  16.749  0.00  0.00    +0.000 C 
BRANCH  20  21
ATOM     21  C   UNL     1       7.223   4.453  17.214  0.00  0.00    +0.000 C 
BRANCH  21  22
ATOM     22  N   UNL     1       5.934   3.844  17.003  0.00  0.00    +0.000 N 
ATOM     23  C   UNL     1       5.090   3.595  18.056  0.00  0.00    +0.000 C 
ATOM     24  O   UNL     1       5.369   3.855  19.219  0.00  0.00    +0.000 OA
ATOM     25  H   UNL     1       5.635   3.664  16.053  0.00  0.00    +0.000 HD
BRANCH  23  26
ATOM     26  C   UNL     1       3.800   2.923  17.642  0.00  0.00    +0.000 C 
BRANCH  26  27
ATOM     27  C   UNL     1       2.762   3.980  17.294  0.00  0.00    +0.000 C 
BRANCH  27  28
ATOM     28  C   UNL     1       3.113   5.339  17.885  0.00  0.00    +0.000 C 
BRANCH  28  29
ATOM     29  C   UNL     1       1.994   5.815  18.811  0.00  0.00    +0.000 C 
BRANCH  29  30
ATOM     30  C   UNL     1       2.229   5.345  20.242  0.00  0.00    +0.000 C 
BRANCH  30  31
ATOM     31  C   UNL     1       1.239   4.258  20.648  0.00  0.00    +0.000 C 
BRANCH  31  32
ATOM     32  C   UNL     1       1.943   3.122  21.357  0.00  0.00    +0.000 C 
ATOM     33  O   UNL     1       1.446   2.447  22.260  0.00  0.00    +0.000 OA
ATOM     34  N   UNL     1       3.215   2.878  20.902  0.00  0.00    +0.000 N 
ATOM     35  H   UNL     1       3.760   3.532  20.351  0.00  0.00    +0.000 HD
BRANCH  34  36
ATOM     36  O   UNL     1       3.927   1.878  21.609  0.00  0.00    +0.000 OA
ATOM     37  H   UNL     1       4.116   1.222  20.900  0.00  0.00    +0.000 HD
ENDBRANCH  34  36
ENDBRANCH  31  32
ENDBRANCH  30  31
ENDBRANCH  29  30
ENDBRANCH  28  29
ENDBRANCH  27  28
ENDBRANCH  26  27
ENDBRANCH  23  26
ENDBRANCH  21  22
ENDBRANCH  20  21
ENDBRANCH   1  20
TORSDOF 20
ENDMDL
MODEL 4
REMARK VINA RESULT:      -6.0      4.196      9.667
REMARK  Name = 
REMARK  22 active torsions:
REMARK  status: ('A' for Active; 'I' for Inactive)
REMARK    1  A    between atoms: C_1  and  C_2
REMARK    2  A    between atoms: C_2  and  C_3
REMARK    3  A    between atoms: C_2  and  C_4
REMARK    4  A    between atoms: C_7  and  C_8
REMARK    5  A    between atoms: C_8  and  N_9
REMARK    6  A    between atoms: N_9  and  C_10
REMARK    7  A    between atoms: C_10  and  C_11
REMARK    8  A    between atoms: C_11  and  C_12
REMARK    9  A    between atoms: C_12  and  C_13
REMARK   10  A    between atoms: C_13  and  N_14
REMARK   11  A    between atoms: N_14  and  C_15
REMARK   12  A    between atoms: C_15  and  C_16
REMARK   13  A    between atoms: C_16  and  C_17
REMARK   14  A    between atoms: C_17  and  N_18
REMARK   15  A    between atoms: C_19  and  C_21
REMARK   16  A    between atoms: C_21  and  C_22
REMARK   17  A    between atoms: C_22  and  C_23
REMARK   18  A    between atoms: C_23  and  C_24
REMARK   19  A    between atoms: C_24  and  C_25
REMARK   20  A    between atoms: C_25  and  C_26
REMARK   21  A    between atoms: C_26  and  C_27
REMARK   22  A    between atoms: N_29  and  O_30
REMARK                            x       y       z     vdW  Elec       q    Type
REMARK                         _______ _______ _______ _____ _____    ______ ____
ROOT
ATOM      1  C   UNL     1       3.399   2.872  17.863  0.00  0.00    +0.000 C 
ENDROOT
BRANCH   1   2
ATOM      2  N   UNL     1       3.711   3.650  19.055  0.00  0.00    +0.000 NA
ATOM      3  H   UNL     1       4.686   3.530  19.323  0.00  0.00    +0.000 HD
BRANCH   2   4
ATOM      4  C   UNL     1       2.879   3.302  20.201  0.00  0.00    +0.000 C 
BRANCH   4   5
ATOM      5  C   UNL     1       1.543   4.045  20.097  0.00  0.00    +0.000 C 
BRANCH   5   6
ATOM      6  C   UNL     1       1.557   5.388  20.839  0.00  0.00    +0.000 C 
BRANCH   6   7
ATOM      7  C   UNL     1       2.049   6.515  19.932  0.00  0.00    +0.000 C 
BRANCH   7   8
ATOM      8  N   UNL     1       2.000   7.786  20.647  0.00  0.00    +0.000 NA
ATOM      9  H   UNL     1       2.907   8.012  21.057  0.00  0.00    +0.000 HD
BRANCH   8  10
ATOM     10  C   UNL     1       1.006   7.752  21.713  0.00  0.00    +0.000 C 
BRANCH  10  14
ATOM     11  C   UNL     1      -1.098  11.522  21.915  0.00  0.00    +0.000 A 
ATOM     12  C   UNL     1      -1.032  10.687  23.035  0.00  0.00    +0.000 A 
ATOM     13  C   UNL     1      -0.334   9.484  22.974  0.00  0.00    +0.000 A 
ATOM     14  C   UNL     1       0.300   9.079  21.790  0.00  0.00    +0.000 A 
ATOM     15  C   UNL     1       0.241   9.910  20.673  0.00  0.00    +0.000 A 
ATOM     16  C   UNL     1      -0.447  11.120  20.739  0.00  0.00    +0.000 A 
BRANCH  11  18
ATOM     17  C   UNL     1      -0.994  13.981  22.440  0.00  0.00    +0.000 C 
ATOM     18  C   UNL     1      -1.879  12.819  21.985  0.00  0.00    +0.000 C 
ATOM     19  C   UNL     1      -2.554  13.127  20.647  0.00  0.00    +0.000 C 
ENDBRANCH  11  18
ENDBRANCH  10  14
ENDBRANCH   8  10
ENDBRANCH   7   8
ENDBRANCH   6   7
ENDBRANCH   5   6
ENDBRANCH   4   5
ENDBRANCH   2   4
ENDBRANCH   1   2
BRANCH   1  20
ATOM     20  C   UNL     1       3.741   3.682  16.610  0.00  0.00    +0.000 C 
BRANCH  20  21
ATOM     21  C   UNL     1       5.243   3.668  16.321  0.00  0.00    +0.000 C 
BRANCH  21  22
ATOM     22  N   UNL     1       6.018   4.268  17.377  0.00  0.00    +0.000 N 
ATOM     23  C   UNL     1       7.309   4.681  17.158  0.00  0.00    +0.000 C 
ATOM     24  O   UNL     1       7.881   4.561  16.083  0.00  0.00    +0.000 OA
ATOM     25  H   UNL     1       5.569   4.441  18.267  0.00  0.00    +0.000 HD
BRANCH  23  26
ATOM     26  C   UNL     1       7.970   5.255  18.391  0.00  0.00    +0.000 C 
BRANCH  26  27
ATOM     27  C   UNL     1       7.491   6.683  18.610  0.00  0.00    +0.000 C 
BRANCH  27  28
ATOM     28  C   UNL     1       7.711   7.552  17.380  0.00  0.00    +0.000 C 
BRANCH  28  29
ATOM     29  C   UNL     1       7.736   9.028  17.777  0.00  0.00    +0.000 C 
BRANCH  29  30
ATOM     30  C   UNL     1       9.106   9.429  18.312  0.00  0.00    +0.000 C 
BRANCH  30  31
ATOM     31  C   UNL     1       9.055  10.767  19.044  0.00  0.00    +0.000 C 
BRANCH  31  32
ATOM     32  C   UNL     1      10.029  11.753  18.438  0.00  0.00    +0.000 C 
ATOM     33  O   UNL     1      10.028  12.965  18.663  0.00  0.00    +0.000 OA
ATOM     34  N   UNL     1      10.955  11.184  17.598  0.00  0.00    +0.000 N 
ATOM     35  H   UNL     1      10.863  10.262  17.187  0.00  0.00    +0.000 HD
BRANCH  34  36
ATOM     36  O   UNL     1      11.822  12.098  16.950  0.00  0.00    +0.000 OA
ATOM     37  H   UNL     1      12.489  12.280  17.651  0.00  0.00    +0.000 HD
ENDBRANCH  34  36
ENDBRANCH  31  32
ENDBRANCH  30  31
ENDBRANCH  29  30
ENDBRANCH  28  29
ENDBRANCH  27  28
ENDBRANCH  26  27
ENDBRANCH  23  26
ENDBRANCH  21  22
ENDBRANCH  20  21
ENDBRANCH   1  20
TORSDOF 20
ENDMDL
MODEL 5
REMARK VINA RESULT:      -6.0      4.842      8.638
REMARK  Name = 
REMARK  22 active torsions:
REMARK  status: ('A' for Active; 'I' for Inactive)
REMARK    1  A    between atoms: C_1  and  C_2
REMARK    2  A    between atoms: C_2  and  C_3
REMARK    3  A    between atoms: C_2  and  C_4
REMARK    4  A    between atoms: C_7  and  C_8
REMARK    5  A    between atoms: C_8  and  N_9
REMARK    6  A    between atoms: N_9  and  C_10
REMARK    7  A    between atoms: C_10  and  C_11
REMARK    8  A    between atoms: C_11  and  C_12
REMARK    9  A    between atoms: C_12  and  C_13
REMARK   10  A    between atoms: C_13  and  N_14
REMARK   11  A    between atoms: N_14  and  C_15
REMARK   12  A    between atoms: C_15  and  C_16
REMARK   13  A    between atoms: C_16  and  C_17
REMARK   14  A    between atoms: C_17  and  N_18
REMARK   15  A    between atoms: C_19  and  C_21
REMARK   16  A    between atoms: C_21  and  C_22
REMARK   17  A    between atoms: C_22  and  C_23
REMARK   18  A    between atoms: C_23  and  C_24
REMARK   19  A    between atoms: C_24  and  C_25
REMARK   20  A    between atoms: C_25  and  C_26
REMARK   21  A    between atoms: C_26  and  C_27
REMARK   22  A    between atoms: N_29  and  O_30
REMARK                            x       y       z     vdW  Elec       q    Type
REMARK                         _______ _______ _______ _____ _____    ______ ____
ROOT
ATOM      1  C   UNL     1       6.533   6.799  17.600  0.00  0.00    +0.000 C 
ENDROOT
BRANCH   1   2
ATOM      2  N   UNL     1       5.856   6.826  16.310  0.00  0.00    +0.000 NA
ATOM      3  H   UNL     1       4.916   7.205  16.401  0.00  0.00    +0.000 HD
BRANCH   2   4
ATOM      4  C   UNL     1       5.759   5.513  15.686  0.00  0.00    +0.000 C 
BRANCH   4   5
ATOM      5  C   UNL     1       5.535   4.454  16.770  0.00  0.00    +0.000 C 
BRANCH   5   6
ATOM      6  C   UNL     1       4.153   3.794  16.673  0.00  0.00    +0.000 C 
BRANCH   6   7
ATOM      7  C   UNL     1       3.391   3.911  17.992  0.00  0.00    +0.000 C 
BRANCH   7   8
ATOM      8  N   UNL     1       2.673   5.180  18.039  0.00  0.00    +0.000 NA
ATOM      9  H   UNL     1       2.784   5.698  17.168  0.00  0.00    +0.000 HD
BRANCH   8  10
ATOM     10  C   UNL     1       3.148   6.014  19.137  0.00  0.00    +0.000 C 
BRANCH  10  14
ATOM     11  C   UNL     1       1.174   9.858  19.091  0.00  0.00    +0.000 A 
ATOM     12  C   UNL     1       1.883   9.413  17.971  0.00  0.00    +0.000 A 
ATOM     13  C   UNL     1       2.499   8.164  17.980  0.00  0.00    +0.000 A 
ATOM     14  C   UNL     1       2.434   7.338  19.112  0.00  0.00    +0.000 A 
ATOM     15  C   UNL     1       1.724   7.776  20.229  0.00  0.00    +0.000 A 
ATOM     16  C   UNL     1       1.098   9.020  20.214  0.00  0.00    +0.000 A 
BRANCH  11  18
ATOM     17  C   UNL     1      -0.040  11.592  20.452  0.00  0.00    +0.000 C 
ATOM     18  C   UNL     1       0.526  11.228  19.078  0.00  0.00    +0.000 C 
ATOM     19  C   UNL     1       1.506  12.295  18.582  0.00  0.00    +0.000 C 
ENDBRANCH  11  18
ENDBRANCH  10  14
ENDBRANCH   8  10
ENDBRANCH   7   8
ENDBRANCH   6   7
ENDBRANCH   5   6
ENDBRANCH   4   5
ENDBRANCH   2   4
ENDBRANCH   1   2
BRANCH   1  20
ATOM     20  C   UNL     1       7.861   7.556  17.507  0.00  0.00    +0.000 C 
BRANCH  20  21
ATOM     21  C   UNL     1       7.682   9.046  17.801  0.00  0.00    +0.000 C 
BRANCH  21  22
ATOM     22  N   UNL     1       8.847   9.636  18.410  0.00  0.00    +0.000 N 
ATOM     23  C   UNL     1       9.136  10.967  18.239  0.00  0.00    +0.000 C 
ATOM     24  O   UNL     1       8.450  11.723  17.565  0.00  0.00    +0.000 OA
ATOM     25  H   UNL     1       9.413   9.064  19.024  0.00  0.00    +0.000 HD
BRANCH  23  26
ATOM     26  C   UNL     1      10.414  11.395  18.926  0.00  0.00    +0.000 C 
BRANCH  26  27
ATOM     27  C   UNL     1      10.200  11.414  20.433  0.00  0.00    +0.000 C 
BRANCH  27  28
ATOM     28  C   UNL     1      10.477  12.787  21.029  0.00  0.00    +0.000 C 
BRANCH  28  29
ATOM     29  C   UNL     1       9.338  13.195  21.964  0.00  0.00    +0.000 C 
BRANCH  29  30
ATOM     30  C   UNL     1       8.496  11.987  22.361  0.00  0.00    +0.000 C 
BRANCH  30  31
ATOM     31  C   UNL     1       7.786  12.210  23.693  0.00  0.00    +0.000 C 
BRANCH  31  32
ATOM     32  C   UNL     1       6.287  12.284  23.502  0.00  0.00    +0.000 C 
ATOM     33  O   UNL     1       5.489  11.432  23.898  0.00  0.00    +0.000 OA
ATOM     34  N   UNL     1       5.859  13.410  22.843  0.00  0.00    +0.000 N 
ATOM     35  H   UNL     1       6.460  14.010  22.289  0.00  0.00    +0.000 HD
BRANCH  34  36
ATOM     36  O   UNL     1       4.470  13.460  22.573  0.00  0.00    +0.000 OA
ATOM     37  H   UNL     1       4.189  12.538  22.776  0.00  0.00    +0.000 HD
ENDBRANCH  34  36
ENDBRANCH  31  32
ENDBRANCH  30  31
ENDBRANCH  29  30
ENDBRANCH  28  29
ENDBRANCH  27  28
ENDBRANCH  26  27
ENDBRANCH  23  26
ENDBRANCH  21  22
ENDBRANCH  20  21
ENDBRANCH   1  20
TORSDOF 20
ENDMDL
MODEL 6
REMARK VINA RESULT:      -6.0      3.107      9.895
REMARK  Name = 
REMARK  22 active torsions:
REMARK  status: ('A' for Active; 'I' for Inactive)
REMARK    1  A    between atoms: C_1  and  C_2
REMARK    2  A    between atoms: C_2  and  C_3
REMARK    3  A    between atoms: C_2  and  C_4
REMARK    4  A    between atoms: C_7  and  C_8
REMARK    5  A    between atoms: C_8  and  N_9
REMARK    6  A    between atoms: N_9  and  C_10
REMARK    7  A    between atoms: C_10  and  C_11
REMARK    8  A    between atoms: C_11  and  C_12
REMARK    9  A    between atoms: C_12  and  C_13
REMARK   10  A    between atoms: C_13  and  N_14
REMARK   11  A    between atoms: N_14  and  C_15
REMARK   12  A    between atoms: C_15  and  C_16
REMARK   13  A    between atoms: C_16  and  C_17
REMARK   14  A    between atoms: C_17  and  N_18
REMARK   15  A    between atoms: C_19  and  C_21
REMARK   16  A    between atoms: C_21  and  C_22
REMARK   17  A    between atoms: C_22  and  C_23
REMARK   18  A    between atoms: C_23  and  C_24
REMARK   19  A    between atoms: C_24  and  C_25
REMARK   20  A    between atoms: C_25  and  C_26
REMARK   21  A    between atoms: C_26  and  C_27
REMARK   22  A    between atoms: N_29  and  O_30
REMARK                            x       y       z     vdW  Elec       q    Type
REMARK                         _______ _______ _______ _____ _____    ______ ____
ROOT
ATOM      1  C   UNL     1       6.220   5.092  19.136  0.00  0.00    +0.000 C 
ENDROOT
BRANCH   1   2
ATOM      2  N   UNL     1       5.244   5.842  19.914  0.00  0.00    +0.000 NA
ATOM      3  H   UNL     1       5.338   5.640  20.907  0.00  0.00    +0.000 HD
BRANCH   2   4
ATOM      4  C   UNL     1       3.866   5.569  19.523  0.00  0.00    +0.000 C 
BRANCH   4   5
ATOM      5  C   UNL     1       3.383   6.672  18.575  0.00  0.00    +0.000 C 
BRANCH   5   6
ATOM      6  C   UNL     1       2.276   7.537  19.195  0.00  0.00    +0.000 C 
BRANCH   6   7
ATOM      7  C   UNL     1       1.853   8.655  18.244  0.00  0.00    +0.000 C 
BRANCH   7   8
ATOM      8  N   UNL     1       1.026   9.625  18.955  0.00  0.00    +0.000 NA
ATOM      9  H   UNL     1       1.389  10.571  18.841  0.00  0.00    +0.000 HD
BRANCH   8  10
ATOM     10  C   UNL     1       0.966   9.322  20.380  0.00  0.00    +0.000 C 
BRANCH  10  14
ATOM     11  C   UNL     1      -1.613  12.174  22.352  0.00  0.00    +0.000 A 
ATOM     12  C   UNL     1      -1.238  10.993  23.000  0.00  0.00    +0.000 A 
ATOM     13  C   UNL     1      -0.389  10.086  22.371  0.00  0.00    +0.000 A 
ATOM     14  C   UNL     1       0.093  10.330  21.076  0.00  0.00    +0.000 A 
ATOM     15  C   UNL     1      -0.275  11.509  20.429  0.00  0.00    +0.000 A 
ATOM     16  C   UNL     1      -1.114  12.421  21.064  0.00  0.00    +0.000 A 
BRANCH  11  18
ATOM     17  C   UNL     1      -3.566  12.411  23.923  0.00  0.00    +0.000 C 
ATOM     18  C   UNL     1      -2.556  13.143  23.037  0.00  0.00    +0.000 C 
ATOM     19  C   UNL     1      -1.780  14.195  23.833  0.00  0.00    +0.000 C 
ENDBRANCH  11  18
ENDBRANCH  10  14
ENDBRANCH   8  10
ENDBRANCH   7   8
ENDBRANCH   6   7
ENDBRANCH   5   6
ENDBRANCH   4   5
ENDBRANCH   2   4
ENDBRANCH   1   2
BRANCH   1  20
ATOM     20  C   UNL     1       7.549   5.852  19.097  0.00  0.00    +0.000 C 
BRANCH  20  21
ATOM     21  C   UNL     1       7.657   6.736  17.855  0.00  0.00    +0.000 C 
BRANCH  21  22
ATOM     22  N   UNL     1       6.640   6.447  16.877  0.00  0.00    +0.000 N 
ATOM     23  C   UNL     1       6.791   5.413  15.985  0.00  0.00    +0.000 C 
ATOM     24  O   UNL     1       7.779   4.692  15.951  0.00  0.00    +0.000 OA
ATOM     25  H   UNL     1       5.780   6.978  16.903  0.00  0.00    +0.000 HD
BRANCH  23  26
ATOM     26  C   UNL     1       5.637   5.286  15.016  0.00  0.00    +0.000 C 
BRANCH  26  27
ATOM     27  C   UNL     1       4.931   3.955  15.235  0.00  0.00    +0.000 C 
BRANCH  27  28
ATOM     28  C   UNL     1       4.575   3.733  16.698  0.00  0.00    +0.000 C 
BRANCH  28  29
ATOM     29  C   UNL     1       3.082   3.434  16.837  0.00  0.00    +0.000 C 
BRANCH  29  30
ATOM     30  C   UNL     1       2.833   2.367  17.897  0.00  0.00    +0.000 C 
BRANCH  30  31
ATOM     31  C   UNL     1       1.395   2.404  18.405  0.00  0.00    +0.000 C 
BRANCH  31  32
ATOM     32  C   UNL     1       1.327   2.997  19.796  0.00  0.00    +0.000 C 
ATOM     33  O   UNL     1       0.706   4.019  20.090  0.00  0.00    +0.000 OA
ATOM     34  N   UNL     1       2.021   2.285  20.744  0.00  0.00    +0.000 N 
ATOM     35  H   UNL     1       2.734   1.597  20.533  0.00  0.00    +0.000 HD
BRANCH  34  36
ATOM     36  O   UNL     1       2.046   2.868  22.035  0.00  0.00    +0.000 OA
ATOM     37  H   UNL     1       2.776   2.370  22.469  0.00  0.00    +0.000 HD
ENDBRANCH  34  36
ENDBRANCH  31  32
ENDBRANCH  30  31
ENDBRANCH  29  30
ENDBRANCH  28  29
ENDBRANCH  27  28
ENDBRANCH  26  27
ENDBRANCH  23  26
ENDBRANCH  21  22
ENDBRANCH  20  21
ENDBRANCH   1  20
TORSDOF 20
ENDMDL
MODEL 7
REMARK VINA RESULT:      -5.9      3.853      6.606
REMARK  Name = 
REMARK  22 active torsions:
REMARK  status: ('A' for Active; 'I' for Inactive)
REMARK    1  A    between atoms: C_1  and  C_2
REMARK    2  A    between atoms: C_2  and  C_3
REMARK    3  A    between atoms: C_2  and  C_4
REMARK    4  A    between atoms: C_7  and  C_8
REMARK    5  A    between atoms: C_8  and  N_9
REMARK    6  A    between atoms: N_9  and  C_10
REMARK    7  A    between atoms: C_10  and  C_11
REMARK    8  A    between atoms: C_11  and  C_12
REMARK    9  A    between atoms: C_12  and  C_13
REMARK   10  A    between atoms: C_13  and  N_14
REMARK   11  A    between atoms: N_14  and  C_15
REMARK   12  A    between atoms: C_15  and  C_16
REMARK   13  A    between atoms: C_16  and  C_17
REMARK   14  A    between atoms: C_17  and  N_18
REMARK   15  A    between atoms: C_19  and  C_21
REMARK   16  A    between atoms: C_21  and  C_22
REMARK   17  A    between atoms: C_22  and  C_23
REMARK   18  A    between atoms: C_23  and  C_24
REMARK   19  A    between atoms: C_24  and  C_25
REMARK   20  A    between atoms: C_25  and  C_26
REMARK   21  A    between atoms: C_26  and  C_27
REMARK   22  A    between atoms: N_29  and  O_30
REMARK                            x       y       z     vdW  Elec       q    Type
REMARK                         _______ _______ _______ _____ _____    ______ ____
ROOT
ATOM      1  C   UNL     1       0.620   9.124  21.776  0.00  0.00    +0.000 C 
ENDROOT
BRANCH   1   2
ATOM      2  N   UNL     1       0.124   9.452  20.446  0.00  0.00    +0.000 NA
ATOM      3  H   UNL     1      -0.258   8.628  19.986  0.00  0.00    +0.000 HD
BRANCH   2   4
ATOM      4  C   UNL     1       1.145  10.025  19.578  0.00  0.00    +0.000 C 
BRANCH   4   5
ATOM      5  C   UNL     1       0.807   9.699  18.119  0.00  0.00    +0.000 C 
BRANCH   5   6
ATOM      6  C   UNL     1       1.603   8.500  17.585  0.00  0.00    +0.000 C 
BRANCH   6   7
ATOM      7  C   UNL     1       2.620   8.010  18.615  0.00  0.00    +0.000 C 
BRANCH   7   8
ATOM      8  N   UNL     1       2.391   6.598  18.905  0.00  0.00    +0.000 NA
ATOM      9  H   UNL     1       1.753   6.484  19.694  0.00  0.00    +0.000 HD
BRANCH   8  10
ATOM     10  C   UNL     1       3.640   5.915  19.219  0.00  0.00    +0.000 C 
BRANCH  10  14
ATOM     11  C   UNL     1       5.609   4.579  15.612  0.00  0.00    +0.000 A 
ATOM     12  C   UNL     1       4.567   3.830  16.169  0.00  0.00    +0.000 A 
ATOM     13  C   UNL     1       3.920   4.274  17.318  0.00  0.00    +0.000 A 
ATOM     14  C   UNL     1       4.307   5.468  17.947  0.00  0.00    +0.000 A 
ATOM     15  C   UNL     1       5.341   6.220  17.392  0.00  0.00    +0.000 A 
ATOM     16  C   UNL     1       5.980   5.780  16.235  0.00  0.00    +0.000 A 
BRANCH  11  18
ATOM     17  C   UNL     1       5.334   3.753  13.250  0.00  0.00    +0.000 C 
ATOM     18  C   UNL     1       6.322   4.075  14.373  0.00  0.00    +0.000 C 
ATOM     19  C   UNL     1       7.385   5.073  13.907  0.00  0.00    +0.000 C 
ENDBRANCH  11  18
ENDBRANCH  10  14
ENDBRANCH   8  10
ENDBRANCH   7   8
ENDBRANCH   6   7
ENDBRANCH   5   6
ENDBRANCH   4   5
ENDBRANCH   2   4
ENDBRANCH   1   2
BRANCH   1  20
ATOM     20  C   UNL     1      -0.521   9.216  22.794  0.00  0.00    +0.000 C 
BRANCH  20  21
ATOM     21  C   UNL     1      -0.845  10.667  23.148  0.00  0.00    +0.000 C 
BRANCH  21  22
ATOM     22  N   UNL     1      -1.429  11.391  22.047  0.00  0.00    +0.000 N 
ATOM     23  C   UNL     1      -0.899  12.586  21.628  0.00  0.00    +0.000 C 
ATOM     24  O   UNL     1       0.073  13.113  22.153  0.00  0.00    +0.000 OA
ATOM     25  H   UNL     1      -2.198  10.967  21.544  0.00  0.00    +0.000 HD
BRANCH  23  26
ATOM     26  C   UNL     1      -1.666  13.212  20.484  0.00  0.00    +0.000 C 
BRANCH  26  27
ATOM     27  C   UNL     1      -2.742  12.248  20.004  0.00  0.00    +0.000 C 
BRANCH  27  28
ATOM     28  C   UNL     1      -4.123  12.887  20.011  0.00  0.00    +0.000 C 
BRANCH  28  29
ATOM     29  C   UNL     1      -4.634  13.022  21.446  0.00  0.00    +0.000 C 
BRANCH  29  30
ATOM     30  C   UNL     1      -6.042  12.454  21.582  0.00  0.00    +0.000 C 
BRANCH  30  31
ATOM     31  C   UNL     1      -6.596  11.993  20.238  0.00  0.00    +0.000 C 
BRANCH  31  32
ATOM     32  C   UNL     1      -7.224  10.621  20.353  0.00  0.00    +0.000 C 
ATOM     33  O   UNL     1      -7.739  10.172  21.379  0.00  0.00    +0.000 OA
ATOM     34  N   UNL     1      -7.190   9.888  19.193  0.00  0.00    +0.000 N 
ATOM     35  H   UNL     1      -6.582  10.090  18.407  0.00  0.00    +0.000 HD
BRANCH  34  36
ATOM     36  O   UNL     1      -7.692   8.568  19.299  0.00  0.00    +0.000 OA
ATOM     37  H   UNL     1      -7.468   8.193  18.416  0.00  0.00    +0.000 HD
ENDBRANCH  34  36
ENDBRANCH  31  32
ENDBRANCH  30  31
ENDBRANCH  29  30
ENDBRANCH  28  29
ENDBRANCH  27  28
ENDBRANCH  26  27
ENDBRANCH  23  26
ENDBRANCH  21  22
ENDBRANCH  20  21
ENDBRANCH   1  20
TORSDOF 20
ENDMDL
MODEL 8
REMARK VINA RESULT:      -5.9      1.492      1.800
REMARK  Name = 
REMARK  22 active torsions:
REMARK  status: ('A' for Active; 'I' for Inactive)
REMARK    1  A    between atoms: C_1  and  C_2
REMARK    2  A    between atoms: C_2  and  C_3
REMARK    3  A    between atoms: C_2  and  C_4
REMARK    4  A    between atoms: C_7  and  C_8
REMARK    5  A    between atoms: C_8  and  N_9
REMARK    6  A    between atoms: N_9  and  C_10
REMARK    7  A    between atoms: C_10  and  C_11
REMARK    8  A    between atoms: C_11  and  C_12
REMARK    9  A    between atoms: C_12  and  C_13
REMARK   10  A    between atoms: C_13  and  N_14
REMARK   11  A    between atoms: N_14  and  C_15
REMARK   12  A    between atoms: C_15  and  C_16
REMARK   13  A    between atoms: C_16  and  C_17
REMARK   14  A    between atoms: C_17  and  N_18
REMARK   15  A    between atoms: C_19  and  C_21
REMARK   16  A    between atoms: C_21  and  C_22
REMARK   17  A    between atoms: C_22  and  C_23
REMARK   18  A    between atoms: C_23  and  C_24
REMARK   19  A    between atoms: C_24  and  C_25
REMARK   20  A    between atoms: C_25  and  C_26
REMARK   21  A    between atoms: C_26  and  C_27
REMARK   22  A    between atoms: N_29  and  O_30
REMARK                            x       y       z     vdW  Elec       q    Type
REMARK                         _______ _______ _______ _____ _____    ______ ____
ROOT
ATOM      1  C   UNL     1       3.759   3.742  17.504  0.00  0.00    +0.000 C 
ENDROOT
BRANCH   1   2
ATOM      2  N   UNL     1       4.599   3.013  18.445  0.00  0.00    +0.000 NA
ATOM      3  H   UNL     1       4.166   2.131  18.711  0.00  0.00    +0.000 HD
BRANCH   2   4
ATOM      4  C   UNL     1       4.885   3.765  19.660  0.00  0.00    +0.000 C 
BRANCH   4   5
ATOM      5  C   UNL     1       5.446   5.140  19.282  0.00  0.00    +0.000 C 
BRANCH   5   6
ATOM      6  C   UNL     1       6.950   5.261  19.569  0.00  0.00    +0.000 C 
BRANCH   6   7
ATOM      7  C   UNL     1       7.683   5.918  18.400  0.00  0.00    +0.000 C 
BRANCH   7   8
ATOM      8  N   UNL     1       7.478   5.137  17.184  0.00  0.00    +0.000 NA
ATOM      9  H   UNL     1       8.301   4.577  16.965  0.00  0.00    +0.000 HD
BRANCH   8  10
ATOM     10  C   UNL     1       7.190   6.001  16.045  0.00  0.00    +0.000 C 
BRANCH  10  14
ATOM     11  C   UNL     1       5.973   3.668  12.617  0.00  0.00    +0.000 A 
ATOM     12  C   UNL     1       7.186   4.365  12.606  0.00  0.00    +0.000 A 
ATOM     13  C   UNL     1       7.586   5.097  13.720  0.00  0.00    +0.000 A 
ATOM     14  C   UNL     1       6.779   5.164  14.865  0.00  0.00    +0.000 A 
ATOM     15  C   UNL     1       5.571   4.467  14.883  0.00  0.00    +0.000 A 
ATOM     16  C   UNL     1       5.178   3.724  13.772  0.00  0.00    +0.000 A 
BRANCH  11  18
ATOM     17  C   UNL     1       6.053   1.452  11.426  0.00  0.00    +0.000 C 
ATOM     18  C   UNL     1       5.537   2.892  11.391  0.00  0.00    +0.000 C 
ATOM     19  C   UNL     1       4.015   2.932  11.229  0.00  0.00    +0.000 C 
ENDBRANCH  11  18
ENDBRANCH  10  14
ENDBRANCH   8  10
ENDBRANCH   7   8
ENDBRANCH   6   7
ENDBRANCH   5   6
ENDBRANCH   4   5
ENDBRANCH   2   4
ENDBRANCH   1   2
BRANCH   1  20
ATOM     20  C   UNL     1       2.480   2.946  17.226  0.00  0.00    +0.000 C 
BRANCH  20  21
ATOM     21  C   UNL     1       1.468   3.090  18.363  0.00  0.00    +0.000 C 
BRANCH  21  22
ATOM     22  N   UNL     1       1.590   4.344  19.061  0.00  0.00    +0.000 N 
ATOM     23  C   UNL     1       1.555   4.395  20.432  0.00  0.00    +0.000 C 
ATOM     24  O   UNL     1       1.409   3.407  21.140  0.00  0.00    +0.000 OA
ATOM     25  H   UNL     1       1.770   5.181  18.522  0.00  0.00    +0.000 HD
BRANCH  23  26
ATOM     26  C   UNL     1       1.664   5.800  20.981  0.00  0.00    +0.000 C 
BRANCH  26  27
ATOM     27  C   UNL     1       1.847   6.783  19.834  0.00  0.00    +0.000 C 
BRANCH  27  28
ATOM     28  C   UNL     1       1.917   8.223  20.323  0.00  0.00    +0.000 C 
BRANCH  28  29
ATOM     29  C   UNL     1       1.750   9.187  19.148  0.00  0.00    +0.000 C 
BRANCH  29  30
ATOM     30  C   UNL     1       0.321   9.711  19.067  0.00  0.00    +0.000 C 
BRANCH  30  31
ATOM     31  C   UNL     1      -0.093  10.418  20.354  0.00  0.00    +0.000 C 
BRANCH  31  32
ATOM     32  C   UNL     1       0.469  11.823  20.404  0.00  0.00    +0.000 C 
ATOM     33  O   UNL     1       1.056  12.305  21.373  0.00  0.00    +0.000 OA
ATOM     34  N   UNL     1       0.282  12.544  19.251  0.00  0.00    +0.000 N 
ATOM     35  H   UNL     1      -0.388  12.303  18.529  0.00  0.00    +0.000 HD
BRANCH  34  36
ATOM     36  O   UNL     1       0.721  13.889  19.304  0.00  0.00    +0.000 OA
ATOM     37  H   UNL     1       1.420  13.904  18.612  0.00  0.00    +0.000 HD
ENDBRANCH  34  36
ENDBRANCH  31  32
ENDBRANCH  30  31
ENDBRANCH  29  30
ENDBRANCH  28  29
ENDBRANCH  27  28
ENDBRANCH  26  27
ENDBRANCH  23  26
ENDBRANCH  21  22
ENDBRANCH  20  21
ENDBRANCH   1  20
TORSDOF 20
ENDMDL
MODEL 9
REMARK VINA RESULT:      -5.9      5.861      9.910
REMARK  Name = 
REMARK  22 active torsions:
REMARK  status: ('A' for Active; 'I' for Inactive)
REMARK    1  A    between atoms: C_1  and  C_2
REMARK    2  A    between atoms: C_2  and  C_3
REMARK    3  A    between atoms: C_2  and  C_4
REMARK    4  A    between atoms: C_7  and  C_8
REMARK    5  A    between atoms: C_8  and  N_9
REMARK    6  A    between atoms: N_9  and  C_10
REMARK    7  A    between atoms: C_10  and  C_11
REMARK    8  A    between atoms: C_11  and  C_12
REMARK    9  A    between atoms: C_12  and  C_13
REMARK   10  A    between atoms: C_13  and  N_14
REMARK   11  A    between atoms: N_14  and  C_15
REMARK   12  A    between atoms: C_15  and  C_16
REMARK   13  A    between atoms: C_16  and  C_17
REMARK   14  A    between atoms: C_17  and  N_18
REMARK   15  A    between atoms: C_19  and  C_21
REMARK   16  A    between atoms: C_21  and  C_22
REMARK   17  A    between atoms: C_22  and  C_23
REMARK   18  A    between atoms: C_23  and  C_24
REMARK   19  A    between atoms: C_24  and  C_25
REMARK   20  A    between atoms: C_25  and  C_26
REMARK   21  A    between atoms: C_26  and  C_27
REMARK   22  A    between atoms: N_29  and  O_30
REMARK                            x       y       z     vdW  Elec       q    Type
REMARK                         _______ _______ _______ _____ _____    ______ ____
ROOT
ATOM      1  C   UNL     1       7.015   7.731  17.464  0.00  0.00    +0.000 C 
ENDROOT
BRANCH   1   2
ATOM      2  N   UNL     1       8.204   8.569  17.388  0.00  0.00    +0.000 NA
ATOM      3  H   UNL     1       9.035   8.007  17.214  0.00  0.00    +0.000 HD
BRANCH   2   4
ATOM      4  C   UNL     1       8.431   9.354  18.596  0.00  0.00    +0.000 C 
BRANCH   4   5
ATOM      5  C   UNL     1       9.556  10.362  18.338  0.00  0.00    +0.000 C 
BRANCH   5   6
ATOM      6  C   UNL     1       9.026  11.744  17.931  0.00  0.00    +0.000 C 
BRANCH   6   7
ATOM      7  C   UNL     1      10.170  12.734  17.723  0.00  0.00    +0.000 C 
BRANCH   7   8
ATOM      8  N   UNL     1      10.122  13.771  18.749  0.00  0.00    +0.000 NA
ATOM      9  H   UNL     1      10.507  14.650  18.401  0.00  0.00    +0.000 HD
BRANCH   8  10
ATOM     10  C   UNL     1      10.871  13.375  19.935  0.00  0.00    +0.000 C 
BRANCH  10  14
ATOM     11  C   UNL     1       8.346  13.434  23.441  0.00  0.00    +0.000 A 
ATOM     12  C   UNL     1       8.968  14.605  22.997  0.00  0.00    +0.000 A 
ATOM     13  C   UNL     1       9.763  14.588  21.854  0.00  0.00    +0.000 A 
ATOM     14  C   UNL     1       9.967  13.399  21.137  0.00  0.00    +0.000 A 
ATOM     15  C   UNL     1       9.345  12.231  21.574  0.00  0.00    +0.000 A 
ATOM     16  C   UNL     1       8.540  12.252  22.710  0.00  0.00    +0.000 A 
BRANCH  11  18
ATOM     17  C   UNL     1       6.065  13.011  24.417  0.00  0.00    +0.000 C 
ATOM     18  C   UNL     1       7.501  13.458  24.699  0.00  0.00    +0.000 C 
ATOM     19  C   UNL     1       8.138  12.615  25.806  0.00  0.00    +0.000 C 
ENDBRANCH  11  18
ENDBRANCH  10  14
ENDBRANCH   8  10
ENDBRANCH   7   8
ENDBRANCH   6   7
ENDBRANCH   5   6
ENDBRANCH   4   5
ENDBRANCH   2   4
ENDBRANCH   1   2
BRANCH   1  20
ATOM     20  C   UNL     1       7.411   6.256  17.353  0.00  0.00    +0.000 C 
BRANCH  20  21
ATOM     21  C   UNL     1       6.607   5.383  18.316  0.00  0.00    +0.000 C 
BRANCH  21  22
ATOM     22  N   UNL     1       5.257   5.853  18.499  0.00  0.00    +0.000 N 
ATOM     23  C   UNL     1       4.237   5.404  17.697  0.00  0.00    +0.000 C 
ATOM     24  O   UNL     1       4.400   4.602  16.787  0.00  0.00    +0.000 OA
ATOM     25  H   UNL     1       5.063   6.473  19.275  0.00  0.00    +0.000 HD
BRANCH  23  26
ATOM     26  C   UNL     1       2.902   6.035  18.019  0.00  0.00    +0.000 C 
BRANCH  26  27
ATOM     27  C   UNL     1       2.680   6.021  19.525  0.00  0.00    +0.000 C 
BRANCH  27  28
ATOM     28  C   UNL     1       1.733   4.907  19.951  0.00  0.00    +0.000 C 
BRANCH  28  29
ATOM     29  C   UNL     1       2.061   4.454  21.374  0.00  0.00    +0.000 C 
BRANCH  29  30
ATOM     30  C   UNL     1       2.189   2.937  21.450  0.00  0.00    +0.000 C 
BRANCH  30  31
ATOM     31  C   UNL     1       1.979   2.284  20.087  0.00  0.00    +0.000 C 
BRANCH  31  32
ATOM     32  C   UNL     1       3.294   2.125  19.355  0.00  0.00    +0.000 C 
ATOM     33  O   UNL     1       4.400   2.131  19.898  0.00  0.00    +0.000 OA
ATOM     34  N   UNL     1       3.165   1.954  17.999  0.00  0.00    +0.000 N 
ATOM     35  H   UNL     1       2.328   2.180  17.472  0.00  0.00    +0.000 HD
BRANCH  34  36
ATOM     36  O   UNL     1       4.384   1.891  17.281  0.00  0.00    +0.000 OA
ATOM     37  H   UNL     1       4.678   2.830  17.295  0.00  0.00    +0.000 HD
ENDBRANCH  34  36
ENDBRANCH  31  32
ENDBRANCH  30  31
ENDBRANCH  29  30
ENDBRANCH  28  29
ENDBRANCH  27  28
ENDBRANCH  26  27
ENDBRANCH  23  26
ENDBRANCH  21  22
ENDBRANCH  20  21
ENDBRANCH   1  20
TORSDOF 20
ENDMDL
