MODEL 1
REMARK VINA RESULT:      -6.5      0.000      0.000
REMARK  Name = 
REMARK  9 active torsions:
REMARK  status: ('A' for Active; 'I' for Inactive)
REMARK    1  A    between atoms: C_1  and  C_2
REMARK    2  A    between atoms: C_2  and  C_3
REMARK    3  A    between atoms: C_3  and  C_4
REMARK    4  A    between atoms: C_3  and  C_5
REMARK    5  A    between atoms: C_3  and  N_6
REMARK    6  A    between atoms: N_6  and  C_7
REMARK    7  A    between atoms: N_6  and  C_8
REMARK    8  A    between atoms: C_8  and  C_9
REMARK    9  A    between atoms: C_14  and  C_15
REMARK                            x       y       z     vdW  Elec       q    Type
REMARK                         _______ _______ _______ _____ _____    ______ ____
ROOT
ATOM      1  C   UNL     1       4.006   3.600  17.428  0.00  0.00    +0.000 C 
ENDROOT
BRANCH   1   2
ATOM      2  C   UNL     1       5.309   4.318  17.726  0.00  0.00    +0.000 A 
ATOM      3  C   UNL     1       5.534   4.861  18.999  0.00  0.00    +0.000 A 
ATOM      4  C   UNL     1       6.724   5.517  19.277  0.00  0.00    +0.000 A 
ATOM      5  C   UNL     1       7.660   5.623  18.266  0.00  0.00    +0.000 A 
ATOM      6  N   UNL     1       7.480   5.135  17.023  0.00  0.00    +0.000 NA
ATOM      7  C   UNL     1       6.310   4.495  16.757  0.00  0.00    +0.000 A 
ATOM      8  C   UNL     1       6.165   3.985  15.353  0.00  0.00    +0.000 C 
ENDBRANCH   1   2
BRANCH   1   9
ATOM      9  N   UNL     1       3.330   2.975  18.594  0.00  0.00    +0.000 NA
ATOM     10  C   UNL     1       3.390   1.508  18.510  0.00  0.00    +0.000 C 
BRANCH   9  11
ATOM     11  C   UNL     1       1.938   3.502  18.818  0.00  0.00    +0.000 C 
ATOM     12  C   UNL     1       0.905   2.344  18.809  0.00  0.00    +0.000 C 
ATOM     13  C   UNL     1       1.491   4.504  17.720  0.00  0.00    +0.000 C 
BRANCH  11  15
ATOM     14  C   UNL     1       1.912   3.344  21.428  0.00  0.00    +0.000 C 
ATOM     15  C   UNL     1       1.801   4.234  20.194  0.00  0.00    +0.000 C 
ENDBRANCH  11  15
ENDBRANCH   9  11
ENDBRANCH   1   9
TORSDOF 4
ENDMDL
MODEL 2
REMARK VINA RESULT:      -6.4      1.273      2.647
REMARK  Name = 
REMARK  9 active torsions:
REMARK  status: ('A' for Active; 'I' for Inactive)
REMARK    1  A    between atoms: C_1  and  C_2
REMARK    2  A    between atoms: C_2  and  C_3
REMARK    3  A    between atoms: C_3  and  C_4
REMARK    4  A    between atoms: C_3  and  C_5
REMARK    5  A    between atoms: C_3  and  N_6
REMARK    6  A    between atoms: N_6  and  C_7
REMARK    7  A    between atoms: N_6  and  C_8
REMARK    8  A    between atoms: C_8  and  C_9
REMARK    9  A    between atoms: C_14  and  C_15
REMARK                            x       y       z     vdW  Elec       q    Type
REMARK                         _______ _______ _______ _____ _____    ______ ____
ROOT
ATOM      1  C   UNL     1       5.105   4.423  18.543  0.00  0.00    +0.000 C 
ENDROOT
BRANCH   1   2
ATOM      2  C   UNL     1       5.762   4.601  17.187  0.00  0.00    +0.000 A 
ATOM      3  C   UNL     1       5.303   3.864  16.086  0.00  0.00    +0.000 A 
ATOM      4  C   UNL     1       5.899   4.024  14.843  0.00  0.00    +0.000 A 
ATOM      5  C   UNL     1       6.950   4.914  14.736  0.00  0.00    +0.000 A 
ATOM      6  N   UNL     1       7.437   5.629  15.769  0.00  0.00    +0.000 NA
ATOM      7  C   UNL     1       6.849   5.466  16.985  0.00  0.00    +0.000 A 
ATOM      8  C   UNL     1       7.444   6.279  18.096  0.00  0.00    +0.000 C 
ENDBRANCH   1   2
BRANCH   1   9
ATOM      9  N   UNL     1       3.631   4.606  18.579  0.00  0.00    +0.000 NA
ATOM     10  C   UNL     1       3.272   5.836  19.300  0.00  0.00    +0.000 C 
BRANCH   9  11
ATOM     11  C   UNL     1       2.901   3.388  19.078  0.00  0.00    +0.000 C 
ATOM     12  C   UNL     1       3.846   2.487  19.917  0.00  0.00    +0.000 C 
ATOM     13  C   UNL     1       2.350   2.504  17.928  0.00  0.00    +0.000 C 
BRANCH  11  15
ATOM     14  C   UNL     1       1.584   2.988  21.303  0.00  0.00    +0.000 C 
ATOM     15  C   UNL     1       1.688   3.764  19.993  0.00  0.00    +0.000 C 
ENDBRANCH  11  15
ENDBRANCH   9  11
ENDBRANCH   1   9
TORSDOF 4
ENDMDL
MODEL 3
REMARK VINA RESULT:      -6.3      1.407      3.004
REMARK  Name = 
REMARK  9 active torsions:
REMARK  status: ('A' for Active; 'I' for Inactive)
REMARK    1  A    between atoms: C_1  and  C_2
REMARK    2  A    between atoms: C_2  and  C_3
REMARK    3  A    between atoms: C_3  and  C_4
REMARK    4  A    between atoms: C_3  and  C_5
REMARK    5  A    between atoms: C_3  and  N_6
REMARK    6  A    between atoms: N_6  and  C_7
REMARK    7  A    between atoms: N_6  and  C_8
REMARK    8  A    between atoms: C_8  and  C_9
REMARK    9  A    between atoms: C_14  and  C_15
REMARK                            x       y       z     vdW  Elec       q    Type
REMARK                         _______ _______ _______ _____ _____    ______ ____
ROOT
ATOM      1  C   UNL     1       4.857   5.235  18.290  0.00  0.00    +0.000 C 
ENDROOT
BRANCH   1   2
ATOM      2  C   UNL     1       5.611   5.097  16.981  0.00  0.00    +0.000 A 
ATOM      3  C   UNL     1       5.140   4.223  15.991  0.00  0.00    +0.000 A 
ATOM      4  C   UNL     1       5.826   4.093  14.791  0.00  0.00    +0.000 A 
ATOM      5  C   UNL     1       6.975   4.839  14.616  0.00  0.00    +0.000 A 
ATOM      6  N   UNL     1       7.476   5.676  15.545  0.00  0.00    +0.000 NA
ATOM      7  C   UNL     1       6.800   5.797  16.719  0.00  0.00    +0.000 A 
ATOM      8  C   UNL     1       7.414   6.734  17.717  0.00  0.00    +0.000 C 
ENDBRANCH   1   2
BRANCH   1   9
ATOM      9  N   UNL     1       3.376   5.304  18.181  0.00  0.00    +0.000 NA
ATOM     10  C   UNL     1       2.890   6.655  18.499  0.00  0.00    +0.000 C 
BRANCH   9  11
ATOM     11  C   UNL     1       2.679   4.221  18.959  0.00  0.00    +0.000 C 
ATOM     12  C   UNL     1       1.416   3.729  18.204  0.00  0.00    +0.000 C 
ATOM     13  C   UNL     1       2.204   4.696  20.358  0.00  0.00    +0.000 C 
BRANCH  11  15
ATOM     14  C   UNL     1       3.345   1.793  18.252  0.00  0.00    +0.000 C 
ATOM     15  C   UNL     1       3.598   2.975  19.183  0.00  0.00    +0.000 C 
ENDBRANCH  11  15
ENDBRANCH   9  11
ENDBRANCH   1   9
TORSDOF 4
ENDMDL
MODEL 4
REMARK VINA RESULT:      -6.3      1.613      3.101
REMARK  Name = 
REMARK  9 active torsions:
REMARK  status: ('A' for Active; 'I' for Inactive)
REMARK    1  A    between atoms: C_1  and  C_2
REMARK    2  A    between atoms: C_2  and  C_3
REMARK    3  A    between atoms: C_3  and  C_4
REMARK    4  A    between atoms: C_3  and  C_5
REMARK    5  A    between atoms: C_3  and  N_6
REMARK    6  A    between atoms: N_6  and  C_7
REMARK    7  A    between atoms: N_6  and  C_8
REMARK    8  A    between atoms: C_8  and  C_9
REMARK    9  A    between atoms: C_14  and  C_15
REMARK                            x       y       z     vdW  Elec       q    Type
REMARK                         _______ _______ _______ _____ _____    ______ ____
ROOT
ATOM      1  C   UNL     1       4.749   5.635  18.266  0.00  0.00    +0.000 C 
ENDROOT
BRANCH   1   2
ATOM      2  C   UNL     1       5.554   5.333  17.017  0.00  0.00    +0.000 A 
ATOM      3  C   UNL     1       5.123   4.334  16.132  0.00  0.00    +0.000 A 
ATOM      4  C   UNL     1       5.854   4.054  14.987  0.00  0.00    +0.000 A 
ATOM      5  C   UNL     1       7.009   4.777  14.760  0.00  0.00    +0.000 A 
ATOM      6  N   UNL     1       7.473   5.731  15.591  0.00  0.00    +0.000 NA
ATOM      7  C   UNL     1       6.752   5.999  16.713  0.00  0.00    +0.000 A 
ATOM      8  C   UNL     1       7.325   7.062  17.602  0.00  0.00    +0.000 C 
ENDBRANCH   1   2
BRANCH   1   9
ATOM      9  N   UNL     1       3.272   5.638  18.102  0.00  0.00    +0.000 NA
ATOM     10  C   UNL     1       2.733   7.001  18.227  0.00  0.00    +0.000 C 
BRANCH   9  11
ATOM     11  C   UNL     1       2.580   4.640  18.991  0.00  0.00    +0.000 C 
ATOM     12  C   UNL     1       1.983   5.340  20.241  0.00  0.00    +0.000 C 
ATOM     13  C   UNL     1       3.537   3.537  19.515  0.00  0.00    +0.000 C 
BRANCH  11  15
ATOM     14  C   UNL     1       1.141   2.478  18.688  0.00  0.00    +0.000 C 
ATOM     15  C   UNL     1       1.402   3.918  18.258  0.00  0.00    +0.000 C 
ENDBRANCH  11  15
ENDBRANCH   9  11
ENDBRANCH   1   9
TORSDOF 4
ENDMDL
MODEL 5
REMARK VINA RESULT:      -6.1      1.255      2.632
REMARK  Name = 
REMARK  9 active torsions:
REMARK  status: ('A' for Active; 'I' for Inactive)
REMARK    1  A    between atoms: C_1  and  C_2
REMARK    2  A    between atoms: C_2  and  C_3
REMARK    3  A    between atoms: C_3  and  C_4
REMARK    4  A    between atoms: C_3  and  C_5
REMARK    5  A    between atoms: C_3  and  N_6
REMARK    6  A    between atoms: N_6  and  C_7
REMARK    7  A    between atoms: N_6  and  C_8
REMARK    8  A    between atoms: C_8  and  C_9
REMARK    9  A    between atoms: C_14  and  C_15
REMARK                            x       y       z     vdW  Elec       q    Type
REMARK                         _______ _______ _______ _____ _____    ______ ____
ROOT
ATOM      1  C   UNL     1       4.757   4.239  18.330  0.00  0.00    +0.000 C 
ENDROOT
BRANCH   1   2
ATOM      2  C   UNL     1       5.553   4.422  17.052  0.00  0.00    +0.000 A 
ATOM      3  C   UNL     1       4.968   4.118  15.814  0.00  0.00    +0.000 A 
ATOM      4  C   UNL     1       5.691   4.285  14.641  0.00  0.00    +0.000 A 
ATOM      5  C   UNL     1       6.991   4.744  14.738  0.00  0.00    +0.000 A 
ATOM      6  N   UNL     1       7.600   5.030  15.906  0.00  0.00    +0.000 NA
ATOM      7  C   UNL     1       6.886   4.863  17.051  0.00  0.00    +0.000 A 
ATOM      8  C   UNL     1       7.624   5.186  18.317  0.00  0.00    +0.000 C 
ENDBRANCH   1   2
BRANCH   1   9
ATOM      9  N   UNL     1       3.378   4.794  18.320  0.00  0.00    +0.000 NA
ATOM     10  C   UNL     1       3.397   6.248  18.541  0.00  0.00    +0.000 C 
BRANCH   9  11
ATOM     11  C   UNL     1       2.445   4.062  19.247  0.00  0.00    +0.000 C 
ATOM     12  C   UNL     1       1.359   3.299  18.442  0.00  0.00    +0.000 C 
ATOM     13  C   UNL     1       1.693   5.012  20.216  0.00  0.00    +0.000 C 
BRANCH  11  15
ATOM     14  C   UNL     1       2.545   2.680  21.465  0.00  0.00    +0.000 C 
ATOM     15  C   UNL     1       3.196   3.007  20.124  0.00  0.00    +0.000 C 
ENDBRANCH  11  15
ENDBRANCH   9  11
ENDBRANCH   1   9
TORSDOF 4
ENDMDL
MODEL 6
REMARK VINA RESULT:      -6.1      1.059      2.123
REMARK  Name = 
REMARK  9 active torsions:
REMARK  status: ('A' for Active; 'I' for Inactive)
REMARK    1  A    between atoms: C_1  and  C_2
REMARK    2  A    between atoms: C_2  and  C_3
REMARK    3  A    between atoms: C_3  and  C_4
REMARK    4  A    between atoms: C_3  and  C_5
REMARK    5  A    between atoms: C_3  and  N_6
REMARK    6  A    between atoms: N_6  and  C_7
REMARK    7  A    between atoms: N_6  and  C_8
REMARK    8  A    between atoms: C_8  and  C_9
REMARK    9  A    between atoms: C_14  and  C_15
REMARK                            x       y       z     vdW  Elec       q    Type
REMARK                         _______ _______ _______ _____ _____    ______ ____
ROOT
ATOM      1  C   UNL     1       4.212   5.266  18.773  0.00  0.00    +0.000 C 
ENDROOT
BRANCH   1   2
ATOM      2  C   UNL     1       5.241   4.913  17.716  0.00  0.00    +0.000 A 
ATOM      3  C   UNL     1       4.827   4.382  16.486  0.00  0.00    +0.000 A 
ATOM      4  C   UNL     1       5.764   4.058  15.515  0.00  0.00    +0.000 A 
ATOM      5  C   UNL     1       7.099   4.265  15.806  0.00  0.00    +0.000 A 
ATOM      6  N   UNL     1       7.545   4.754  16.980  0.00  0.00    +0.000 NA
ATOM      7  C   UNL     1       6.621   5.067  17.927  0.00  0.00    +0.000 A 
ATOM      8  C   UNL     1       7.180   5.594  19.215  0.00  0.00    +0.000 C 
ENDBRANCH   1   2
BRANCH   1   9
ATOM      9  N   UNL     1       3.615   4.120  19.506  0.00  0.00    +0.000 NA
ATOM     10  C   UNL     1       4.523   2.962  19.497  0.00  0.00    +0.000 C 
BRANCH   9  11
ATOM     11  C   UNL     1       2.222   3.788  19.042  0.00  0.00    +0.000 C 
ATOM     12  C   UNL     1       2.161   2.344  18.477  0.00  0.00    +0.000 C 
ATOM     13  C   UNL     1       1.725   4.728  17.913  0.00  0.00    +0.000 C 
BRANCH  11  15
ATOM     14  C   UNL     1       1.373   2.870  21.340  0.00  0.00    +0.000 C 
ATOM     15  C   UNL     1       1.180   3.873  20.206  0.00  0.00    +0.000 C 
ENDBRANCH  11  15
ENDBRANCH   9  11
ENDBRANCH   1   9
TORSDOF 4
ENDMDL
MODEL 7
REMARK VINA RESULT:      -6.1      1.485      1.876
REMARK  Name = 
REMARK  9 active torsions:
REMARK  status: ('A' for Active; 'I' for Inactive)
REMARK    1  A    between atoms: C_1  and  C_2
REMARK    2  A    between atoms: C_2  and  C_3
REMARK    3  A    between atoms: C_3  and  C_4
REMARK    4  A    between atoms: C_3  and  C_5
REMARK    5  A    between atoms: C_3  and  N_6
REMARK    6  A    between atoms: N_6  and  C_7
REMARK    7  A    between atoms: N_6  and  C_8
REMARK    8  A    between atoms: C_8  and  C_9
REMARK    9  A    between atoms: C_14  and  C_15
REMARK                            x       y       z     vdW  Elec       q    Type
REMARK                         _______ _______ _______ _____ _____    ______ ____
ROOT
ATOM      1  C   UNL     1       5.270   4.023  17.890  0.00  0.00    +0.000 C 
ENDROOT
BRANCH   1   2
ATOM      2  C   UNL     1       6.175   5.240  17.851  0.00  0.00    +0.000 A 
ATOM      3  C   UNL     1       7.094   5.461  18.887  0.00  0.00    +0.000 A 
ATOM      4  C   UNL     1       7.926   6.571  18.856  0.00  0.00    +0.000 A 
ATOM      5  C   UNL     1       7.809   7.442  17.789  0.00  0.00    +0.000 A 
ATOM      6  N   UNL     1       6.928   7.281  16.782  0.00  0.00    +0.000 NA
ATOM      7  C   UNL     1       6.115   6.192  16.820  0.00  0.00    +0.000 A 
ATOM      8  C   UNL     1       5.149   6.075  15.678  0.00  0.00    +0.000 C 
ENDBRANCH   1   2
BRANCH   1   9
ATOM      9  N   UNL     1       4.271   3.993  18.989  0.00  0.00    +0.000 NA
ATOM     10  C   UNL     1       4.431   2.783  19.810  0.00  0.00    +0.000 C 
BRANCH   9  11
ATOM     11  C   UNL     1       2.861   4.204  18.507  0.00  0.00    +0.000 C 
ATOM     12  C   UNL     1       2.638   3.502  17.141  0.00  0.00    +0.000 C 
ATOM     13  C   UNL     1       2.514   5.702  18.300  0.00  0.00    +0.000 C 
BRANCH  11  15
ATOM     14  C   UNL     1       0.850   2.583  18.921  0.00  0.00    +0.000 C 
ATOM     15  C   UNL     1       1.806   3.620  19.504  0.00  0.00    +0.000 C 
ENDBRANCH  11  15
ENDBRANCH   9  11
ENDBRANCH   1   9
TORSDOF 4
ENDMDL
MODEL 8
REMARK VINA RESULT:      -6.0      1.216      2.965
REMARK  Name = 
REMARK  9 active torsions:
REMARK  status: ('A' for Active; 'I' for Inactive)
REMARK    1  A    between atoms: C_1  and  C_2
REMARK    2  A    between atoms: C_2  and  C_3
REMARK    3  A    between atoms: C_3  and  C_4
REMARK    4  A    between atoms: C_3  and  C_5
REMARK    5  A    between atoms: C_3  and  N_6
REMARK    6  A    between atoms: N_6  and  C_7
REMARK    7  A    between atoms: N_6  and  C_8
REMARK    8  A    between atoms: C_8  and  C_9
REMARK    9  A    between atoms: C_14  and  C_15
REMARK                            x       y       z     vdW  Elec       q    Type
REMARK                         _______ _______ _______ _____ _____    ______ ____
ROOT
ATOM      1  C   UNL     1       4.872   4.993  19.214  0.00  0.00    +0.000 C 
ENDROOT
BRANCH   1   2
ATOM      2  C   UNL     1       5.594   4.816  17.892  0.00  0.00    +0.000 A 
ATOM      3  C   UNL     1       4.900   4.321  16.778  0.00  0.00    +0.000 A 
ATOM      4  C   UNL     1       5.555   4.159  15.565  0.00  0.00    +0.000 A 
ATOM      5  C   UNL     1       6.895   4.488  15.500  0.00  0.00    +0.000 A 
ATOM      6  N   UNL     1       7.606   4.947  16.548  0.00  0.00    +0.000 NA
ATOM      7  C   UNL     1       6.959   5.102  17.734  0.00  0.00    +0.000 A 
ATOM      8  C   UNL     1       7.808   5.605  18.864  0.00  0.00    +0.000 C 
ENDBRANCH   1   2
BRANCH   1   9
ATOM      9  N   UNL     1       3.389   5.048  19.142  0.00  0.00    +0.000 NA
ATOM     10  C   UNL     1       2.888   6.341  19.630  0.00  0.00    +0.000 C 
BRANCH   9  11
ATOM     11  C   UNL     1       2.725   3.866  19.796  0.00  0.00    +0.000 C 
ATOM     12  C   UNL     1       2.081   4.278  21.147  0.00  0.00    +0.000 C 
ATOM     13  C   UNL     1       3.719   2.716  20.111  0.00  0.00    +0.000 C 
BRANCH  11  15
ATOM     14  C   UNL     1       1.333   3.984  17.586  0.00  0.00    +0.000 C 
ATOM     15  C   UNL     1       1.589   3.263  18.906  0.00  0.00    +0.000 C 
ENDBRANCH  11  15
ENDBRANCH   9  11
ENDBRANCH   1   9
TORSDOF 4
ENDMDL
MODEL 9
REMARK VINA RESULT:      -6.0      1.595      2.086
REMARK  Name = 
REMARK  9 active torsions:
REMARK  status: ('A' for Active; 'I' for Inactive)
REMARK    1  A    between atoms: C_1  and  C_2
REMARK    2  A    between atoms: C_2  and  C_3
REMARK    3  A    between atoms: C_3  and  C_4
REMARK    4  A    between atoms: C_3  and  C_5
REMARK    5  A    between atoms: C_3  and  N_6
REMARK    6  A    between atoms: N_6  and  C_7
REMARK    7  A    between atoms: N_6  and  C_8
REMARK    8  A    between atoms: C_8  and  C_9
REMARK    9  A    between atoms: C_14  and  C_15
REMARK                            x       y       z     vdW  Elec       q    Type
REMARK                         _______ _______ _______ _____ _____    ______ ____
ROOT
ATOM      1  C   UNL     1       4.863   4.018  18.117  0.00  0.00    +0.000 C 
ENDROOT
BRANCH   1   2
ATOM      2  C   UNL     1       5.917   5.106  18.022  0.00  0.00    +0.000 A 
ATOM      3  C   UNL     1       6.810   5.307  19.084  0.00  0.00    +0.000 A 
ATOM      4  C   UNL     1       7.777   6.300  19.003  0.00  0.00    +0.000 A 
ATOM      5  C   UNL     1       7.819   7.075  17.860  0.00  0.00    +0.000 A 
ATOM      6  N   UNL     1       6.969   6.930  16.824  0.00  0.00    +0.000 NA
ATOM      7  C   UNL     1       6.023   5.957  16.911  0.00  0.00    +0.000 A 
ATOM      8  C   UNL     1       5.101   5.855  15.732  0.00  0.00    +0.000 C 
ENDBRANCH   1   2
BRANCH   1   9
ATOM      9  N   UNL     1       4.030   4.027  19.347  0.00  0.00    +0.000 NA
ATOM     10  C   UNL     1       3.857   2.664  19.873  0.00  0.00    +0.000 C 
BRANCH   9  11
ATOM     11  C   UNL     1       2.732   4.768  19.172  0.00  0.00    +0.000 C 
ATOM     12  C   UNL     1       1.667   4.253  20.177  0.00  0.00    +0.000 C 
ATOM     13  C   UNL     1       2.126   4.592  17.754  0.00  0.00    +0.000 C 
BRANCH  11  15
ATOM     14  C   UNL     1       2.651   7.196  18.202  0.00  0.00    +0.000 C 
ATOM     15  C   UNL     1       2.895   6.304  19.417  0.00  0.00    +0.000 C 
ENDBRANCH  11  15
ENDBRANCH   9  11
ENDBRANCH   1   9
TORSDOF 4
ENDMDL
