MODEL 1
REMARK VINA RESULT:      -8.0      0.000      0.000
REMARK  Name = 
REMARK  5 active torsions:
REMARK  status: ('A' for Active; 'I' for Inactive)
REMARK    1  A    between atoms: C_1  and  C_2
REMARK    2  A    between atoms: C_5  and  C_6
REMARK    3  A    between atoms: C_7  and  C_8
REMARK    4  A    between atoms: N_10  and  C_11
REMARK    5  A    between atoms: C_11  and  C_12
REMARK                            x       y       z     vdW  Elec       q    Type
REMARK                         _______ _______ _______ _____ _____    ______ ____
ROOT
ATOM      1  C   UNL     1       5.059   6.120  17.027  0.00  0.00    +0.000 C 
ATOM      2  O   UNL     1       4.858   7.034  16.233  0.00  0.00    +0.000 OA
ATOM      3  N   UNL     1       4.141   5.805  18.007  0.00  0.00    +0.000 N 
ATOM      4  H   UNL     1       4.314   5.040  18.635  0.00  0.00    +0.000 HD
ENDROOT
BRANCH   1  11
ATOM      5  C   UNL     1       7.131   5.615  19.436  0.00  0.00    +0.000 C 
ATOM      6  C   UNL     1       7.190   5.097  18.047  0.00  0.00    +0.000 A 
ATOM      7  N   UNL     1       8.209   4.313  17.682  0.00  0.00    +0.000 NA
ATOM      8  O   UNL     1       7.985   4.000  16.363  0.00  0.00    +0.000 OA
ATOM      9  C   UNL     1       6.837   4.590  15.934  0.00  0.00    +0.000 A 
ATOM     10  C   UNL     1       6.514   4.314  14.519  0.00  0.00    +0.000 C 
ATOM     11  C   UNL     1       6.272   5.313  16.971  0.00  0.00    +0.000 A 
ENDBRANCH   1  11
BRANCH   3  12
ATOM     12  C   UNL     1       2.867   6.497  18.143  0.00  0.00    +0.000 C 
BRANCH  12  13
ATOM     13  C   UNL     1       1.773   5.439  18.191  0.00  0.00    +0.000 C 
ATOM     14  C   UNL     1       2.056   4.092  17.429  0.00  0.00    +0.000 C 
ATOM     15  C   UNL     1       1.969   3.420  18.765  0.00  0.00    +0.000 A 
ATOM     16  C   UNL     1       2.027   2.200  19.397  0.00  0.00    +0.000 A 
ATOM     17  C   UNL     1       1.854   2.190  20.782  0.00  0.00    +0.000 A 
ATOM     18  C   UNL     1       1.635   3.389  21.486  0.00  0.00    +0.000 A 
ATOM     19  C   UNL     1       1.583   4.615  20.812  0.00  0.00    +0.000 A 
ATOM     20  C   UNL     1       1.756   4.594  19.446  0.00  0.00    +0.000 A 
ENDBRANCH  12  13
ENDBRANCH   3  12
TORSDOF 3
ENDMDL
MODEL 2
REMARK VINA RESULT:      -8.0      1.593      2.145
REMARK  Name = 
REMARK  5 active torsions:
REMARK  status: ('A' for Active; 'I' for Inactive)
REMARK    1  A    between atoms: C_1  and  C_2
REMARK    2  A    between atoms: C_5  and  C_6
REMARK    3  A    between atoms: C_7  and  C_8
REMARK    4  A    between atoms: N_10  and  C_11
REMARK    5  A    between atoms: C_11  and  C_12
REMARK                            x       y       z     vdW  Elec       q    Type
REMARK                         _______ _______ _______ _____ _____    ______ ____
ROOT
ATOM      1  C   UNL     1       5.101   5.912  18.395  0.00  0.00    +0.000 C 
ATOM      2  O   UNL     1       5.274   5.306  19.449  0.00  0.00    +0.000 OA
ATOM      3  N   UNL     1       3.945   6.627  18.159  0.00  0.00    +0.000 N 
ATOM      4  H   UNL     1       3.831   7.133  17.299  0.00  0.00    +0.000 HD
ENDROOT
BRANCH   1  11
ATOM      5  C   UNL     1       5.382   3.775  16.007  0.00  0.00    +0.000 C 
ATOM      6  C   UNL     1       6.230   4.960  16.287  0.00  0.00    +0.000 A 
ATOM      7  N   UNL     1       7.262   5.234  15.481  0.00  0.00    +0.000 NA
ATOM      8  O   UNL     1       7.840   6.370  15.990  0.00  0.00    +0.000 OA
ATOM      9  C   UNL     1       7.162   6.782  17.095  0.00  0.00    +0.000 A 
ATOM     10  C   UNL     1       7.718   8.001  17.720  0.00  0.00    +0.000 C 
ATOM     11  C   UNL     1       6.110   5.917  17.344  0.00  0.00    +0.000 A 
ENDBRANCH   1  11
BRANCH   3  12
ATOM     12  C   UNL     1       2.879   6.746  19.143  0.00  0.00    +0.000 C 
BRANCH  12  13
ATOM     13  C   UNL     1       1.781   5.767  18.751  0.00  0.00    +0.000 C 
ATOM     14  C   UNL     1       2.097   4.788  17.560  0.00  0.00    +0.000 C 
ATOM     15  C   UNL     1       1.944   3.674  18.551  0.00  0.00    +0.000 A 
ATOM     16  C   UNL     1       1.967   2.307  18.692  0.00  0.00    +0.000 A 
ATOM     17  C   UNL     1       1.728   1.793  19.968  0.00  0.00    +0.000 A 
ATOM     18  C   UNL     1       1.478   2.655  21.052  0.00  0.00    +0.000 A 
ATOM     19  C   UNL     1       1.462   4.043  20.875  0.00  0.00    +0.000 A 
ATOM     20  C   UNL     1       1.701   4.521  19.606  0.00  0.00    +0.000 A 
ENDBRANCH  12  13
ENDBRANCH   3  12
TORSDOF 3
ENDMDL
MODEL 3
REMARK VINA RESULT:      -8.0      1.728      3.121
REMARK  Name = 
REMARK  5 active torsions:
REMARK  status: ('A' for Active; 'I' for Inactive)
REMARK    1  A    between atoms: C_1  and  C_2
REMARK    2  A    between atoms: C_5  and  C_6
REMARK    3  A    between atoms: C_7  and  C_8
REMARK    4  A    between atoms: N_10  and  C_11
REMARK    5  A    between atoms: C_11  and  C_12
REMARK                            x       y       z     vdW  Elec       q    Type
REMARK                         _______ _______ _______ _____ _____    ______ ____
ROOT
ATOM      1  C   UNL     1       5.645   3.921  17.673  0.00  0.00    +0.000 C 
ATOM      2  O   UNL     1       5.857   3.812  18.878  0.00  0.00    +0.000 OA
ATOM      3  N   UNL     1       4.618   3.235  17.060  0.00  0.00    +0.000 N 
ATOM      4  H   UNL     1       4.448   3.354  16.077  0.00  0.00    +0.000 HD
ENDROOT
BRANCH   1  11
ATOM      5  C   UNL     1       6.025   3.683  14.488  0.00  0.00    +0.000 C 
ATOM      6  C   UNL     1       6.625   4.673  15.415  0.00  0.00    +0.000 A 
ATOM      7  N   UNL     1       7.439   5.617  14.930  0.00  0.00    +0.000 NA
ATOM      8  O   UNL     1       7.825   6.369  16.013  0.00  0.00    +0.000 OA
ATOM      9  C   UNL     1       7.247   5.884  17.145  0.00  0.00    +0.000 A 
ATOM     10  C   UNL     1       7.610   6.628  18.369  0.00  0.00    +0.000 C 
ATOM     11  C   UNL     1       6.459   4.789  16.831  0.00  0.00    +0.000 A 
ENDBRANCH   1  11
BRANCH   3  12
ATOM     12  C   UNL     1       3.700   2.375  17.791  0.00  0.00    +0.000 C 
BRANCH  12  13
ATOM     13  C   UNL     1       2.355   3.087  17.855  0.00  0.00    +0.000 C 
ATOM     14  C   UNL     1       1.335   2.577  18.940  0.00  0.00    +0.000 C 
ATOM     15  C   UNL     1       1.440   3.941  19.551  0.00  0.00    +0.000 A 
ATOM     16  C   UNL     1       0.974   4.735  20.573  0.00  0.00    +0.000 A 
ATOM     17  C   UNL     1       1.470   6.039  20.644  0.00  0.00    +0.000 A 
ATOM     18  C   UNL     1       2.409   6.501  19.703  0.00  0.00    +0.000 A 
ATOM     19  C   UNL     1       2.864   5.666  18.676  0.00  0.00    +0.000 A 
ATOM     20  C   UNL     1       2.358   4.386  18.630  0.00  0.00    +0.000 A 
ENDBRANCH  12  13
ENDBRANCH   3  12
TORSDOF 3
ENDMDL
MODEL 4
REMARK VINA RESULT:      -7.8      0.497      1.860
REMARK  Name = 
REMARK  5 active torsions:
REMARK  status: ('A' for Active; 'I' for Inactive)
REMARK    1  A    between atoms: C_1  and  C_2
REMARK    2  A    between atoms: C_5  and  C_6
REMARK    3  A    between atoms: C_7  and  C_8
REMARK    4  A    between atoms: N_10  and  C_11
REMARK    5  A    between atoms: C_11  and  C_12
REMARK                            x       y       z     vdW  Elec       q    Type
REMARK                         _______ _______ _______ _____ _____    ______ ____
ROOT
ATOM      1  C   UNL     1       4.992   6.171  17.046  0.00  0.00    +0.000 C 
ATOM      2  O   UNL     1       4.714   7.019  16.202  0.00  0.00    +0.000 OA
ATOM      3  N   UNL     1       4.142   5.897  18.096  0.00  0.00    +0.000 N 
ATOM      4  H   UNL     1       4.379   5.185  18.765  0.00  0.00    +0.000 HD
ENDROOT
BRANCH   1  11
ATOM      5  C   UNL     1       5.964   4.336  14.589  0.00  0.00    +0.000 C 
ATOM      6  C   UNL     1       6.652   4.586  15.879  0.00  0.00    +0.000 A 
ATOM      7  N   UNL     1       7.832   4.005  16.117  0.00  0.00    +0.000 NA
ATOM      8  O   UNL     1       8.208   4.424  17.370  0.00  0.00    +0.000 OA
ATOM      9  C   UNL     1       7.262   5.255  17.886  0.00  0.00    +0.000 A 
ATOM     10  C   UNL     1       7.577   5.754  19.240  0.00  0.00    +0.000 C 
ATOM     11  C   UNL     1       6.229   5.403  16.975  0.00  0.00    +0.000 A 
ENDBRANCH   1  11
BRANCH   3  12
ATOM     12  C   UNL     1       2.854   6.555  18.258  0.00  0.00    +0.000 C 
BRANCH  12  13
ATOM     13  C   UNL     1       1.781   5.474  18.245  0.00  0.00    +0.000 C 
ATOM     14  C   UNL     1       2.110   4.160  17.443  0.00  0.00    +0.000 C 
ATOM     15  C   UNL     1       2.010   3.440  18.753  0.00  0.00    +0.000 A 
ATOM     16  C   UNL     1       2.081   2.200  19.342  0.00  0.00    +0.000 A 
ATOM     17  C   UNL     1       1.880   2.137  20.722  0.00  0.00    +0.000 A 
ATOM     18  C   UNL     1       1.620   3.306  21.463  0.00  0.00    +0.000 A 
ATOM     19  C   UNL     1       1.556   4.553  20.831  0.00  0.00    +0.000 A 
ATOM     20  C   UNL     1       1.758   4.585  19.470  0.00  0.00    +0.000 A 
ENDBRANCH  12  13
ENDBRANCH   3  12
TORSDOF 3
ENDMDL
MODEL 5
REMARK VINA RESULT:      -7.8      1.874      2.556
REMARK  Name = 
REMARK  5 active torsions:
REMARK  status: ('A' for Active; 'I' for Inactive)
REMARK    1  A    between atoms: C_1  and  C_2
REMARK    2  A    between atoms: C_5  and  C_6
REMARK    3  A    between atoms: C_7  and  C_8
REMARK    4  A    between atoms: N_10  and  C_11
REMARK    5  A    between atoms: C_11  and  C_12
REMARK                            x       y       z     vdW  Elec       q    Type
REMARK                         _______ _______ _______ _____ _____    ______ ____
ROOT
ATOM      1  C   UNL     1       5.318   5.870  18.594  0.00  0.00    +0.000 C 
ATOM      2  O   UNL     1       5.689   5.506  19.706  0.00  0.00    +0.000 OA
ATOM      3  N   UNL     1       4.013   6.252  18.362  0.00  0.00    +0.000 N 
ATOM      4  H   UNL     1       3.733   6.566  17.450  0.00  0.00    +0.000 HD
ENDROOT
BRANCH   1  11
ATOM      5  C   UNL     1       5.424   3.825  16.113  0.00  0.00    +0.000 C 
ATOM      6  C   UNL     1       6.279   5.011  16.366  0.00  0.00    +0.000 A 
ATOM      7  N   UNL     1       7.238   5.328  15.489  0.00  0.00    +0.000 NA
ATOM      8  O   UNL     1       7.844   6.454  15.990  0.00  0.00    +0.000 OA
ATOM      9  C   UNL     1       7.255   6.816  17.162  0.00  0.00    +0.000 A 
ATOM     10  C   UNL     1       7.846   8.019  17.784  0.00  0.00    +0.000 C 
ATOM     11  C   UNL     1       6.237   5.928  17.464  0.00  0.00    +0.000 A 
ENDBRANCH   1  11
BRANCH   3  12
ATOM     12  C   UNL     1       3.006   6.290  19.412  0.00  0.00    +0.000 C 
BRANCH  12  13
ATOM     13  C   UNL     1       2.104   5.077  19.227  0.00  0.00    +0.000 C 
ATOM     14  C   UNL     1       1.764   4.668  17.745  0.00  0.00    +0.000 C 
ATOM     15  C   UNL     1       2.473   3.379  18.032  0.00  0.00    +0.000 A 
ATOM     16  C   UNL     1       2.823   2.164  17.492  0.00  0.00    +0.000 A 
ATOM     17  C   UNL     1       3.540   1.286  18.307  0.00  0.00    +0.000 A 
ATOM     18  C   UNL     1       3.883   1.649  19.623  0.00  0.00    +0.000 A 
ATOM     19  C   UNL     1       3.512   2.895  20.142  0.00  0.00    +0.000 A 
ATOM     20  C   UNL     1       2.806   3.740  19.316  0.00  0.00    +0.000 A 
ENDBRANCH  12  13
ENDBRANCH   3  12
TORSDOF 3
ENDMDL
MODEL 6
REMARK VINA RESULT:      -7.8      2.252      5.940
REMARK  Name = 
REMARK  5 active torsions:
REMARK  status: ('A' for Active; 'I' for Inactive)
REMARK    1  A    between atoms: C_1  and  C_2
REMARK    2  A    between atoms: C_5  and  C_6
REMARK    3  A    between atoms: C_7  and  C_8
REMARK    4  A    between atoms: N_10  and  C_11
REMARK    5  A    between atoms: C_11  and  C_12
REMARK                            x       y       z     vdW  Elec       q    Type
REMARK                         _______ _______ _______ _____ _____    ______ ____
ROOT
ATOM      1  C   UNL     1       2.832   4.210  17.847  0.00  0.00    +0.000 C 
ATOM      2  O   UNL     1       2.054   3.657  17.075  0.00  0.00    +0.000 OA
ATOM      3  N   UNL     1       4.198   4.069  17.715  0.00  0.00    +0.000 N 
ATOM      4  H   UNL     1       4.818   4.545  18.346  0.00  0.00    +0.000 HD
ENDROOT
BRANCH   1  11
ATOM      5  C   UNL     1       3.114   7.408  18.055  0.00  0.00    +0.000 C 
ATOM      6  C   UNL     1       2.488   6.474  19.023  0.00  0.00    +0.000 A 
ATOM      7  N   UNL     1       1.952   6.957  20.149  0.00  0.00    +0.000 NA
ATOM      8  O   UNL     1       1.459   5.868  20.825  0.00  0.00    +0.000 OA
ATOM      9  C   UNL     1       1.694   4.733  20.112  0.00  0.00    +0.000 A 
ATOM     10  C   UNL     1       1.203   3.502  20.765  0.00  0.00    +0.000 C 
ATOM     11  C   UNL     1       2.355   5.052  18.938  0.00  0.00    +0.000 A 
ENDBRANCH   1  11
BRANCH   3  12
ATOM     12  C   UNL     1       4.808   3.298  16.642  0.00  0.00    +0.000 C 
BRANCH  12  13
ATOM     13  C   UNL     1       5.960   4.122  16.083  0.00  0.00    +0.000 C 
ATOM     14  C   UNL     1       5.599   5.537  15.496  0.00  0.00    +0.000 C 
ATOM     15  C   UNL     1       6.468   6.109  16.574  0.00  0.00    +0.000 A 
ATOM     16  C   UNL     1       6.969   7.282  17.087  0.00  0.00    +0.000 A 
ATOM     17  C   UNL     1       7.809   7.186  18.198  0.00  0.00    +0.000 A 
ATOM     18  C   UNL     1       8.115   5.931  18.758  0.00  0.00    +0.000 A 
ATOM     19  C   UNL     1       7.587   4.755  18.213  0.00  0.00    +0.000 A 
ATOM     20  C   UNL     1       6.763   4.880  17.117  0.00  0.00    +0.000 A 
ENDBRANCH  12  13
ENDBRANCH   3  12
TORSDOF 3
ENDMDL
MODEL 7
REMARK VINA RESULT:      -7.7      1.712      2.492
REMARK  Name = 
REMARK  5 active torsions:
REMARK  status: ('A' for Active; 'I' for Inactive)
REMARK    1  A    between atoms: C_1  and  C_2
REMARK    2  A    between atoms: C_5  and  C_6
REMARK    3  A    between atoms: C_7  and  C_8
REMARK    4  A    between atoms: N_10  and  C_11
REMARK    5  A    between atoms: C_11  and  C_12
REMARK                            x       y       z     vdW  Elec       q    Type
REMARK                         _______ _______ _______ _____ _____    ______ ____
ROOT
ATOM      1  C   UNL     1       4.436   6.828  17.547  0.00  0.00    +0.000 C 
ATOM      2  O   UNL     1       3.724   7.719  17.093  0.00  0.00    +0.000 OA
ATOM      3  N   UNL     1       4.065   6.112  18.665  0.00  0.00    +0.000 N 
ATOM      4  H   UNL     1       4.652   5.373  19.010  0.00  0.00    +0.000 HD
ENDROOT
BRANCH   1  11
ATOM      5  C   UNL     1       4.962   4.353  15.561  0.00  0.00    +0.000 C 
ATOM      6  C   UNL     1       5.930   5.368  16.043  0.00  0.00    +0.000 A 
ATOM      7  N   UNL     1       7.203   5.305  15.638  0.00  0.00    +0.000 NA
ATOM      8  O   UNL     1       7.839   6.362  16.242  0.00  0.00    +0.000 OA
ATOM      9  C   UNL     1       6.956   7.061  17.006  0.00  0.00    +0.000 A 
ATOM     10  C   UNL     1       7.552   8.219  17.704  0.00  0.00    +0.000 C 
ATOM     11  C   UNL     1       5.705   6.474  16.923  0.00  0.00    +0.000 A 
ENDBRANCH   1  11
BRANCH   3  12
ATOM     12  C   UNL     1       2.802   6.329  19.356  0.00  0.00    +0.000 C 
BRANCH  12  13
ATOM     13  C   UNL     1       2.004   5.035  19.271  0.00  0.00    +0.000 C 
ATOM     14  C   UNL     1       1.596   4.548  17.831  0.00  0.00    +0.000 C 
ATOM     15  C   UNL     1       2.439   3.338  18.099  0.00  0.00    +0.000 A 
ATOM     16  C   UNL     1       2.859   2.142  17.566  0.00  0.00    +0.000 A 
ATOM     17  C   UNL     1       3.711   1.359  18.349  0.00  0.00    +0.000 A 
ATOM     18  C   UNL     1       4.114   1.795  19.625  0.00  0.00    +0.000 A 
ATOM     19  C   UNL     1       3.669   3.020  20.136  0.00  0.00    +0.000 A 
ATOM     20  C   UNL     1       2.830   3.770  19.344  0.00  0.00    +0.000 A 
ENDBRANCH  12  13
ENDBRANCH   3  12
TORSDOF 3
ENDMDL
MODEL 8
REMARK VINA RESULT:      -7.7      1.923      3.585
REMARK  Name = 
REMARK  5 active torsions:
REMARK  status: ('A' for Active; 'I' for Inactive)
REMARK    1  A    between atoms: C_1  and  C_2
REMARK    2  A    between atoms: C_5  and  C_6
REMARK    3  A    between atoms: C_7  and  C_8
REMARK    4  A    between atoms: N_10  and  C_11
REMARK    5  A    between atoms: C_11  and  C_12
REMARK                            x       y       z     vdW  Elec       q    Type
REMARK                         _______ _______ _______ _____ _____    ______ ____
ROOT
ATOM      1  C   UNL     1       5.947   4.731  18.704  0.00  0.00    +0.000 C 
ATOM      2  O   UNL     1       6.446   4.825  19.822  0.00  0.00    +0.000 OA
ATOM      3  N   UNL     1       4.746   4.085  18.505  0.00  0.00    +0.000 N 
ATOM      4  H   UNL     1       4.344   4.037  17.585  0.00  0.00    +0.000 HD
ENDROOT
BRANCH   1  11
ATOM      5  C   UNL     1       5.777   3.618  15.690  0.00  0.00    +0.000 C 
ATOM      6  C   UNL     1       6.515   4.803  16.194  0.00  0.00    +0.000 A 
ATOM      7  N   UNL     1       7.221   5.549  15.338  0.00  0.00    +0.000 NA
ATOM      8  O   UNL     1       7.777   6.554  16.090  0.00  0.00    +0.000 OA
ATOM      9  C   UNL     1       7.409   6.418  17.393  0.00  0.00    +0.000 A 
ATOM     10  C   UNL     1       7.967   7.455  18.286  0.00  0.00    +0.000 C 
ATOM     11  C   UNL     1       6.593   5.307  17.531  0.00  0.00    +0.000 A 
ENDBRANCH   1  11
BRANCH   3  12
ATOM     12  C   UNL     1       3.972   3.509  19.595  0.00  0.00    +0.000 C 
BRANCH  12  13
ATOM     13  C   UNL     1       2.570   4.098  19.524  0.00  0.00    +0.000 C 
ATOM     14  C   UNL     1       1.901   4.501  20.891  0.00  0.00    +0.000 C 
ATOM     15  C   UNL     1       1.897   5.907  20.373  0.00  0.00    +0.000 A 
ATOM     16  C   UNL     1       1.527   7.197  20.674  0.00  0.00    +0.000 A 
ATOM     17  C   UNL     1       1.797   8.178  19.718  0.00  0.00    +0.000 A 
ATOM     18  C   UNL     1       2.426   7.842  18.504  0.00  0.00    +0.000 A 
ATOM     19  C   UNL     1       2.792   6.519  18.230  0.00  0.00    +0.000 A 
ATOM     20  C   UNL     1       2.513   5.573  19.190  0.00  0.00    +0.000 A 
ENDBRANCH  12  13
ENDBRANCH   3  12
TORSDOF 3
ENDMDL
MODEL 9
REMARK VINA RESULT:      -7.6      1.619      2.868
REMARK  Name = 
REMARK  5 active torsions:
REMARK  status: ('A' for Active; 'I' for Inactive)
REMARK    1  A    between atoms: C_1  and  C_2
REMARK    2  A    between atoms: C_5  and  C_6
REMARK    3  A    between atoms: C_7  and  C_8
REMARK    4  A    between atoms: N_10  and  C_11
REMARK    5  A    between atoms: C_11  and  C_12
REMARK                            x       y       z     vdW  Elec       q    Type
REMARK                         _______ _______ _______ _____ _____    ______ ____
ROOT
ATOM      1  C   UNL     1       5.305   3.912  17.960  0.00  0.00    +0.000 C 
ATOM      2  O   UNL     1       5.653   3.601  19.096  0.00  0.00    +0.000 OA
ATOM      3  N   UNL     1       4.106   3.481  17.433  0.00  0.00    +0.000 N 
ATOM      4  H   UNL     1       3.830   3.762  16.509  0.00  0.00    +0.000 HD
ENDROOT
BRANCH   1  11
ATOM      5  C   UNL     1       7.487   6.055  18.956  0.00  0.00    +0.000 C 
ATOM      6  C   UNL     1       7.102   5.713  17.566  0.00  0.00    +0.000 A 
ATOM      7  N   UNL     1       7.699   6.339  16.546  0.00  0.00    +0.000 NA
ATOM      8  O   UNL     1       7.139   5.814  15.407  0.00  0.00    +0.000 OA
ATOM      9  C   UNL     1       6.211   4.875  15.735  0.00  0.00    +0.000 A 
ATOM     10  C   UNL     1       5.547   4.256  14.570  0.00  0.00    +0.000 C 
ATOM     11  C   UNL     1       6.135   4.759  17.113  0.00  0.00    +0.000 A 
ENDBRANCH   1  11
BRANCH   3  12
ATOM     12  C   UNL     1       3.161   2.671  18.188  0.00  0.00    +0.000 C 
BRANCH  12  13
ATOM     13  C   UNL     1       1.922   3.522  18.435  0.00  0.00    +0.000 C 
ATOM     14  C   UNL     1       1.372   3.559  19.910  0.00  0.00    +0.000 C 
ATOM     15  C   UNL     1       1.674   5.026  19.892  0.00  0.00    +0.000 A 
ATOM     16  C   UNL     1       1.600   6.180  20.636  0.00  0.00    +0.000 A 
ATOM     17  C   UNL     1       2.073   7.353  20.043  0.00  0.00    +0.000 A 
ATOM     18  C   UNL     1       2.601   7.333  18.738  0.00  0.00    +0.000 A 
ATOM     19  C   UNL     1       2.663   6.140  18.009  0.00  0.00    +0.000 A 
ATOM     20  C   UNL     1       2.190   5.000  18.619  0.00  0.00    +0.000 A 
ENDBRANCH  12  13
ENDBRANCH   3  12
TORSDOF 3
ENDMDL
