MODEL 1
REMARK VINA RESULT:      -8.2      0.000      0.000
REMARK  Name = 
REMARK  1 active torsions:
REMARK  status: ('A' for Active; 'I' for Inactive)
REMARK    1  A    between atoms: C_4  and  C_5
REMARK                            x       y       z     vdW  Elec       q    Type
REMARK                         _______ _______ _______ _____ _____    ______ ____
ROOT
ATOM      1  C   UNL     1       6.247   4.391  15.327  0.00  0.00    +0.000 A 
ATOM      2  C   UNL     1       7.326   5.111  15.913  0.00  0.00    +0.000 A 
ATOM      3  C   UNL     1       7.057   5.166  17.257  0.00  0.00    +0.000 A 
ATOM      4  N   UNL     1       7.692   5.731  18.313  0.00  0.00    +0.000 NA
ATOM      5  C   UNL     1       7.106   5.596  19.465  0.00  0.00    +0.000 A 
ATOM      6  N   UNL     1       5.921   4.937  19.706  0.00  0.00    +0.000 NA
ATOM      7  C   UNL     1       5.303   4.347  18.711  0.00  0.00    +0.000 A 
ATOM      8  N   UNL     1       4.112   3.655  18.928  0.00  0.00    +0.000 N 
ATOM      9  C   UNL     1       3.661   2.504  18.151  0.00  0.00    +0.000 C 
ATOM     10  C   UNL     1       2.305   2.824  17.528  0.00  0.00    +0.000 C 
ATOM     11  C   UNL     1       1.297   3.222  18.607  0.00  0.00    +0.000 C 
ATOM     12  C   UNL     1       1.846   4.333  19.506  0.00  0.00    +0.000 C 
ATOM     13  C   UNL     1       3.235   3.987  20.050  0.00  0.00    +0.000 C 
ATOM     14  N   UNL     1       5.885   4.472  17.426  0.00  0.00    +0.000 N 
ATOM     15  N   UNL     1       5.359   4.013  16.265  0.00  0.00    +0.000 NA
ENDROOT
BRANCH   1  19
ATOM     16  C   UNL     1       5.805   3.273  11.227  0.00  0.00    +0.000 A 
ATOM     17  C   UNL     1       4.702   3.245  12.079  0.00  0.00    +0.000 A 
ATOM     18  C   UNL     1       4.837   3.639  13.414  0.00  0.00    +0.000 A 
ATOM     19  C   UNL     1       6.080   4.054  13.912  0.00  0.00    +0.000 A 
ATOM     20  C   UNL     1       7.175   4.102  13.036  0.00  0.00    +0.000 A 
ATOM     21  C   UNL     1       7.038   3.711  11.701  0.00  0.00    +0.000 A 
ENDBRANCH   1  19
TORSDOF 1
ENDMDL
MODEL 2
REMARK VINA RESULT:      -8.1      0.093      1.056
REMARK  Name = 
REMARK  1 active torsions:
REMARK  status: ('A' for Active; 'I' for Inactive)
REMARK    1  A    between atoms: C_4  and  C_5
REMARK                            x       y       z     vdW  Elec       q    Type
REMARK                         _______ _______ _______ _____ _____    ______ ____
ROOT
ATOM      1  C   UNL     1       6.312   4.366  15.362  0.00  0.00    +0.000 A 
ATOM      2  C   UNL     1       7.391   5.077  15.958  0.00  0.00    +0.000 A 
ATOM      3  C   UNL     1       7.101   5.149  17.297  0.00  0.00    +0.000 A 
ATOM      4  N   UNL     1       7.727   5.716  18.357  0.00  0.00    +0.000 NA
ATOM      5  C   UNL     1       7.120   5.600  19.501  0.00  0.00    +0.000 A 
ATOM      6  N   UNL     1       5.923   4.960  19.729  0.00  0.00    +0.000 NA
ATOM      7  C   UNL     1       5.313   4.368  18.730  0.00  0.00    +0.000 A 
ATOM      8  N   UNL     1       4.109   3.695  18.934  0.00  0.00    +0.000 N 
ATOM      9  C   UNL     1       3.655   2.543  18.161  0.00  0.00    +0.000 C 
ATOM     10  C   UNL     1       2.314   2.875  17.513  0.00  0.00    +0.000 C 
ATOM     11  C   UNL     1       1.294   3.297  18.572  0.00  0.00    +0.000 C 
ATOM     12  C   UNL     1       1.844   4.409  19.469  0.00  0.00    +0.000 C 
ATOM     13  C   UNL     1       3.219   4.051  20.039  0.00  0.00    +0.000 C 
ATOM     14  N   UNL     1       5.917   4.473  17.453  0.00  0.00    +0.000 N 
ATOM     15  N   UNL     1       5.404   4.010  16.288  0.00  0.00    +0.000 NA
ENDROOT
BRANCH   1  19
ATOM     16  C   UNL     1       5.826   3.484  11.210  0.00  0.00    +0.000 A 
ATOM     17  C   UNL     1       7.061   3.916  11.689  0.00  0.00    +0.000 A 
ATOM     18  C   UNL     1       7.232   4.175  13.052  0.00  0.00    +0.000 A 
ATOM     19  C   UNL     1       6.164   4.017  13.947  0.00  0.00    +0.000 A 
ATOM     20  C   UNL     1       4.933   3.558  13.454  0.00  0.00    +0.000 A 
ATOM     21  C   UNL     1       4.765   3.295  12.092  0.00  0.00    +0.000 A 
ENDBRANCH   1  19
TORSDOF 1
ENDMDL
MODEL 3
REMARK VINA RESULT:      -8.0      3.724      6.536
REMARK  Name = 
REMARK  1 active torsions:
REMARK  status: ('A' for Active; 'I' for Inactive)
REMARK    1  A    between atoms: C_4  and  C_5
REMARK                            x       y       z     vdW  Elec       q    Type
REMARK                         _______ _______ _______ _____ _____    ______ ____
ROOT
ATOM      1  C   UNL     1       2.328   7.816  18.475  0.00  0.00    +0.000 A 
ATOM      2  C   UNL     1       3.403   7.995  17.561  0.00  0.00    +0.000 A 
ATOM      3  C   UNL     1       3.962   6.755  17.387  0.00  0.00    +0.000 A 
ATOM      4  N   UNL     1       5.016   6.300  16.666  0.00  0.00    +0.000 NA
ATOM      5  C   UNL     1       5.269   5.029  16.774  0.00  0.00    +0.000 A 
ATOM      6  N   UNL     1       4.572   4.119  17.537  0.00  0.00    +0.000 NA
ATOM      7  C   UNL     1       3.524   4.522  18.215  0.00  0.00    +0.000 A 
ATOM      8  N   UNL     1       2.786   3.620  18.980  0.00  0.00    +0.000 N 
ATOM      9  C   UNL     1       1.357   3.734  19.258  0.00  0.00    +0.000 C 
ATOM     10  C   UNL     1       1.146   3.793  20.768  0.00  0.00    +0.000 C 
ATOM     11  C   UNL     1       1.771   2.573  21.448  0.00  0.00    +0.000 C 
ATOM     12  C   UNL     1       3.232   2.386  21.031  0.00  0.00    +0.000 C 
ATOM     13  C   UNL     1       3.393   2.399  19.509  0.00  0.00    +0.000 C 
ATOM     14  N   UNL     1       3.206   5.901  18.151  0.00  0.00    +0.000 N 
ATOM     15  N   UNL     1       2.223   6.526  18.842  0.00  0.00    +0.000 NA
ENDROOT
BRANCH   1  19
ATOM     16  C   UNL     1      -0.456  10.732  19.890  0.00  0.00    +0.000 A 
ATOM     17  C   UNL     1       0.189   9.889  20.794  0.00  0.00    +0.000 A 
ATOM     18  C   UNL     1       1.123   8.955  20.337  0.00  0.00    +0.000 A 
ATOM     19  C   UNL     1       1.412   8.846  18.969  0.00  0.00    +0.000 A 
ATOM     20  C   UNL     1       0.773   9.717  18.074  0.00  0.00    +0.000 A 
ATOM     21  C   UNL     1      -0.157  10.654  18.532  0.00  0.00    +0.000 A 
ENDBRANCH   1  19
TORSDOF 1
ENDMDL
MODEL 4
REMARK VINA RESULT:      -7.9      3.171      7.046
REMARK  Name = 
REMARK  1 active torsions:
REMARK  status: ('A' for Active; 'I' for Inactive)
REMARK    1  A    between atoms: C_4  and  C_5
REMARK                            x       y       z     vdW  Elec       q    Type
REMARK                         _______ _______ _______ _____ _____    ______ ____
ROOT
ATOM      1  C   UNL     1       2.181   6.671  19.968  0.00  0.00    +0.000 A 
ATOM      2  C   UNL     1       1.838   5.574  20.807  0.00  0.00    +0.000 A 
ATOM      3  C   UNL     1       2.631   4.530  20.406  0.00  0.00    +0.000 A 
ATOM      4  N   UNL     1       2.744   3.238  20.803  0.00  0.00    +0.000 NA
ATOM      5  C   UNL     1       3.609   2.519  20.152  0.00  0.00    +0.000 A 
ATOM      6  N   UNL     1       4.413   2.946  19.118  0.00  0.00    +0.000 NA
ATOM      7  C   UNL     1       4.355   4.199  18.738  0.00  0.00    +0.000 A 
ATOM      8  N   UNL     1       5.170   4.665  17.707  0.00  0.00    +0.000 N 
ATOM      9  C   UNL     1       5.667   6.033  17.588  0.00  0.00    +0.000 C 
ATOM     10  C   UNL     1       5.196   6.621  16.261  0.00  0.00    +0.000 C 
ATOM     11  C   UNL     1       5.645   5.740  15.093  0.00  0.00    +0.000 C 
ATOM     12  C   UNL     1       5.241   4.279  15.304  0.00  0.00    +0.000 C 
ATOM     13  C   UNL     1       5.680   3.762  16.677  0.00  0.00    +0.000 C 
ATOM     14  N   UNL     1       3.417   5.031  19.399  0.00  0.00    +0.000 N 
ATOM     15  N   UNL     1       3.144   6.322  19.096  0.00  0.00    +0.000 NA
ENDROOT
BRANCH   1  19
ATOM     16  C   UNL     1       0.412  10.560  20.041  0.00  0.00    +0.000 A 
ATOM     17  C   UNL     1       0.399   9.767  21.188  0.00  0.00    +0.000 A 
ATOM     18  C   UNL     1       1.004   8.507  21.176  0.00  0.00    +0.000 A 
ATOM     19  C   UNL     1       1.617   8.022  20.012  0.00  0.00    +0.000 A 
ATOM     20  C   UNL     1       1.645   8.840  18.873  0.00  0.00    +0.000 A 
ATOM     21  C   UNL     1       1.043  10.102  18.887  0.00  0.00    +0.000 A 
ENDBRANCH   1  19
TORSDOF 1
ENDMDL
MODEL 5
REMARK VINA RESULT:      -7.9      3.736      6.564
REMARK  Name = 
REMARK  1 active torsions:
REMARK  status: ('A' for Active; 'I' for Inactive)
REMARK    1  A    between atoms: C_4  and  C_5
REMARK                            x       y       z     vdW  Elec       q    Type
REMARK                         _______ _______ _______ _____ _____    ______ ____
ROOT
ATOM      1  C   UNL     1       2.343   7.811  18.520  0.00  0.00    +0.000 A 
ATOM      2  C   UNL     1       3.411   7.996  17.598  0.00  0.00    +0.000 A 
ATOM      3  C   UNL     1       3.971   6.757  17.417  0.00  0.00    +0.000 A 
ATOM      4  N   UNL     1       5.020   6.306  16.686  0.00  0.00    +0.000 NA
ATOM      5  C   UNL     1       5.278   5.036  16.790  0.00  0.00    +0.000 A 
ATOM      6  N   UNL     1       4.589   4.123  17.556  0.00  0.00    +0.000 NA
ATOM      7  C   UNL     1       3.545   4.521  18.244  0.00  0.00    +0.000 A 
ATOM      8  N   UNL     1       2.816   3.616  19.013  0.00  0.00    +0.000 N 
ATOM      9  C   UNL     1       1.389   3.725  19.302  0.00  0.00    +0.000 C 
ATOM     10  C   UNL     1       1.190   3.781  20.814  0.00  0.00    +0.000 C 
ATOM     11  C   UNL     1       1.823   2.562  21.487  0.00  0.00    +0.000 C 
ATOM     12  C   UNL     1       3.281   2.379  21.058  0.00  0.00    +0.000 C 
ATOM     13  C   UNL     1       3.431   2.396  19.534  0.00  0.00    +0.000 C 
ATOM     14  N   UNL     1       3.224   5.900  18.185  0.00  0.00    +0.000 N 
ATOM     15  N   UNL     1       2.244   6.520  18.885  0.00  0.00    +0.000 NA
ENDROOT
BRANCH   1  19
ATOM     16  C   UNL     1      -0.210  10.892  20.019  0.00  0.00    +0.000 A 
ATOM     17  C   UNL     1       0.055  10.811  18.653  0.00  0.00    +0.000 A 
ATOM     18  C   UNL     1       0.865   9.786  18.155  0.00  0.00    +0.000 A 
ATOM     19  C   UNL     1       1.429   8.838  19.023  0.00  0.00    +0.000 A 
ATOM     20  C   UNL     1       1.133   8.918  20.392  0.00  0.00    +0.000 A 
ATOM     21  C   UNL     1       0.320   9.941  20.887  0.00  0.00    +0.000 A 
ENDBRANCH   1  19
TORSDOF 1
ENDMDL
MODEL 6
REMARK VINA RESULT:      -7.9      3.171      6.983
REMARK  Name = 
REMARK  1 active torsions:
REMARK  status: ('A' for Active; 'I' for Inactive)
REMARK    1  A    between atoms: C_4  and  C_5
REMARK                            x       y       z     vdW  Elec       q    Type
REMARK                         _______ _______ _______ _____ _____    ______ ____
ROOT
ATOM      1  C   UNL     1       2.242   6.711  19.796  0.00  0.00    +0.000 A 
ATOM      2  C   UNL     1       1.900   5.643  20.671  0.00  0.00    +0.000 A 
ATOM      3  C   UNL     1       2.698   4.588  20.310  0.00  0.00    +0.000 A 
ATOM      4  N   UNL     1       2.813   3.311  20.752  0.00  0.00    +0.000 NA
ATOM      5  C   UNL     1       3.683   2.573  20.129  0.00  0.00    +0.000 A 
ATOM      6  N   UNL     1       4.489   2.966  19.084  0.00  0.00    +0.000 NA
ATOM      7  C   UNL     1       4.428   4.205  18.660  0.00  0.00    +0.000 A 
ATOM      8  N   UNL     1       5.246   4.638  17.617  0.00  0.00    +0.000 N 
ATOM      9  C   UNL     1       5.739   6.002  17.452  0.00  0.00    +0.000 C 
ATOM     10  C   UNL     1       5.271   6.542  16.103  0.00  0.00    +0.000 C 
ATOM     11  C   UNL     1       5.727   5.623  14.968  0.00  0.00    +0.000 C 
ATOM     12  C   UNL     1       5.327   4.169  15.228  0.00  0.00    +0.000 C 
ATOM     13  C   UNL     1       5.763   3.701  16.620  0.00  0.00    +0.000 C 
ATOM     14  N   UNL     1       3.485   5.056  19.288  0.00  0.00    +0.000 N 
ATOM     15  N   UNL     1       3.210   6.336  18.940  0.00  0.00    +0.000 NA
ENDROOT
BRANCH   1  19
ATOM     16  C   UNL     1       0.713  10.700  19.833  0.00  0.00    +0.000 A 
ATOM     17  C   UNL     1       1.244  10.169  18.659  0.00  0.00    +0.000 A 
ATOM     18  C   UNL     1       1.717   8.854  18.635  0.00  0.00    +0.000 A 
ATOM     19  C   UNL     1       1.675   8.060  19.791  0.00  0.00    +0.000 A 
ATOM     20  C   UNL     1       1.114   8.600  20.959  0.00  0.00    +0.000 A 
ATOM     21  C   UNL     1       0.638   9.914  20.980  0.00  0.00    +0.000 A 
ENDBRANCH   1  19
TORSDOF 1
ENDMDL
MODEL 7
REMARK VINA RESULT:      -7.6      3.512      6.304
REMARK  Name = 
REMARK  1 active torsions:
REMARK  status: ('A' for Active; 'I' for Inactive)
REMARK    1  A    between atoms: C_4  and  C_5
REMARK                            x       y       z     vdW  Elec       q    Type
REMARK                         _______ _______ _______ _____ _____    ______ ____
ROOT
ATOM      1  C   UNL     1       2.662   7.716  18.155  0.00  0.00    +0.000 A 
ATOM      2  C   UNL     1       3.819   8.075  17.410  0.00  0.00    +0.000 A 
ATOM      3  C   UNL     1       4.377   6.896  16.987  0.00  0.00    +0.000 A 
ATOM      4  N   UNL     1       5.488   6.594  16.271  0.00  0.00    +0.000 NA
ATOM      5  C   UNL     1       5.715   5.327  16.088  0.00  0.00    +0.000 A 
ATOM      6  N   UNL     1       4.940   4.284  16.541  0.00  0.00    +0.000 NA
ATOM      7  C   UNL     1       3.838   4.545  17.203  0.00  0.00    +0.000 A 
ATOM      8  N   UNL     1       3.022   3.510  17.658  0.00  0.00    +0.000 N 
ATOM      9  C   UNL     1       1.575   3.601  17.829  0.00  0.00    +0.000 C 
ATOM     10  C   UNL     1       1.225   3.300  19.283  0.00  0.00    +0.000 C 
ATOM     11  C   UNL     1       1.770   1.931  19.697  0.00  0.00    +0.000 C 
ATOM     12  C   UNL     1       3.261   1.801  19.375  0.00  0.00    +0.000 C 
ATOM     13  C   UNL     1       3.564   2.178  17.922  0.00  0.00    +0.000 C 
ATOM     14  N   UNL     1       3.544   5.909  17.450  0.00  0.00    +0.000 N 
ATOM     15  N   UNL     1       2.508   6.380  18.185  0.00  0.00    +0.000 NA
ENDROOT
BRANCH   1  19
ATOM     16  C   UNL     1      -0.207  10.283  20.009  0.00  0.00    +0.000 A 
ATOM     17  C   UNL     1       0.474   9.335  20.772  0.00  0.00    +0.000 A 
ATOM     18  C   UNL     1       1.436   8.515  20.174  0.00  0.00    +0.000 A 
ATOM     19  C   UNL     1       1.716   8.626  18.804  0.00  0.00    +0.000 A 
ATOM     20  C   UNL     1       1.040   9.602  18.055  0.00  0.00    +0.000 A 
ATOM     21  C   UNL     1       0.082  10.424  18.655  0.00  0.00    +0.000 A 
ENDBRANCH   1  19
TORSDOF 1
ENDMDL
MODEL 8
REMARK VINA RESULT:      -7.6      1.181      1.618
REMARK  Name = 
REMARK  1 active torsions:
REMARK  status: ('A' for Active; 'I' for Inactive)
REMARK    1  A    between atoms: C_4  and  C_5
REMARK                            x       y       z     vdW  Elec       q    Type
REMARK                         _______ _______ _______ _____ _____    ______ ____
ROOT
ATOM      1  C   UNL     1       5.928   4.200  14.277  0.00  0.00    +0.000 A 
ATOM      2  C   UNL     1       7.021   5.087  14.485  0.00  0.00    +0.000 A 
ATOM      3  C   UNL     1       6.932   5.495  15.792  0.00  0.00    +0.000 A 
ATOM      4  N   UNL     1       7.661   6.345  16.555  0.00  0.00    +0.000 NA
ATOM      5  C   UNL     1       7.246   6.508  17.776  0.00  0.00    +0.000 A 
ATOM      6  N   UNL     1       6.155   5.900  18.356  0.00  0.00    +0.000 NA
ATOM      7  C   UNL     1       5.453   5.042  17.655  0.00  0.00    +0.000 A 
ATOM      8  N   UNL     1       4.355   4.395  18.221  0.00  0.00    +0.000 N 
ATOM      9  C   UNL     1       3.888   3.063  17.850  0.00  0.00    +0.000 C 
ATOM     10  C   UNL     1       2.441   3.157  17.374  0.00  0.00    +0.000 C 
ATOM     11  C   UNL     1       1.561   3.798  18.448  0.00  0.00    +0.000 C 
ATOM     12  C   UNL     1       2.144   5.129  18.931  0.00  0.00    +0.000 C 
ATOM     13  C   UNL     1       3.615   4.990  19.333  0.00  0.00    +0.000 C 
ATOM     14  N   UNL     1       5.846   4.834  16.310  0.00  0.00    +0.000 N 
ATOM     15  N   UNL     1       5.203   4.061  15.402  0.00  0.00    +0.000 NA
ENDROOT
BRANCH   1  19
ATOM     16  C   UNL     1       5.010   2.236  10.595  0.00  0.00    +0.000 A 
ATOM     17  C   UNL     1       6.225   1.989  11.232  0.00  0.00    +0.000 A 
ATOM     18  C   UNL     1       6.516   2.606  12.452  0.00  0.00    +0.000 A 
ATOM     19  C   UNL     1       5.597   3.487  13.041  0.00  0.00    +0.000 A 
ATOM     20  C   UNL     1       4.368   3.707  12.401  0.00  0.00    +0.000 A 
ATOM     21  C   UNL     1       4.077   3.087  11.183  0.00  0.00    +0.000 A 
ENDBRANCH   1  19
TORSDOF 1
ENDMDL
MODEL 9
REMARK VINA RESULT:      -7.5      3.539      6.329
REMARK  Name = 
REMARK  1 active torsions:
REMARK  status: ('A' for Active; 'I' for Inactive)
REMARK    1  A    between atoms: C_4  and  C_5
REMARK                            x       y       z     vdW  Elec       q    Type
REMARK                         _______ _______ _______ _____ _____    ______ ____
ROOT
ATOM      1  C   UNL     1       2.653   7.722  18.162  0.00  0.00    +0.000 A 
ATOM      2  C   UNL     1       3.810   8.084  17.417  0.00  0.00    +0.000 A 
ATOM      3  C   UNL     1       4.370   6.906  16.993  0.00  0.00    +0.000 A 
ATOM      4  N   UNL     1       5.481   6.606  16.277  0.00  0.00    +0.000 NA
ATOM      5  C   UNL     1       5.710   5.340  16.092  0.00  0.00    +0.000 A 
ATOM      6  N   UNL     1       4.936   4.294  16.544  0.00  0.00    +0.000 NA
ATOM      7  C   UNL     1       3.835   4.554  17.207  0.00  0.00    +0.000 A 
ATOM      8  N   UNL     1       3.020   3.517  17.660  0.00  0.00    +0.000 N 
ATOM      9  C   UNL     1       1.573   3.606  17.832  0.00  0.00    +0.000 C 
ATOM     10  C   UNL     1       1.224   3.303  19.286  0.00  0.00    +0.000 C 
ATOM     11  C   UNL     1       1.771   1.934  19.698  0.00  0.00    +0.000 C 
ATOM     12  C   UNL     1       3.262   1.807  19.376  0.00  0.00    +0.000 C 
ATOM     13  C   UNL     1       3.564   2.185  17.924  0.00  0.00    +0.000 C 
ATOM     14  N   UNL     1       3.538   5.917  17.455  0.00  0.00    +0.000 N 
ATOM     15  N   UNL     1       2.502   6.385  18.191  0.00  0.00    +0.000 NA
ENDROOT
BRANCH   1  19
ATOM     16  C   UNL     1       0.002  10.457  20.098  0.00  0.00    +0.000 A 
ATOM     17  C   UNL     1       0.233  10.564  18.727  0.00  0.00    +0.000 A 
ATOM     18  C   UNL     1       1.076   9.652  18.085  0.00  0.00    +0.000 A 
ATOM     19  C   UNL     1       1.706   8.630  18.812  0.00  0.00    +0.000 A 
ATOM     20  C   UNL     1       1.444   8.520  20.185  0.00  0.00    +0.000 A 
ATOM     21  C   UNL     1       0.598   9.430  20.825  0.00  0.00    +0.000 A 
ENDBRANCH   1  19
TORSDOF 1
ENDMDL
