MODEL 1
REMARK VINA RESULT:      -8.1      0.000      0.000
REMARK  Name = 
REMARK  8 active torsions:
REMARK  status: ('A' for Active; 'I' for Inactive)
REMARK    1  A    between atoms: N_3  and  O_4
REMARK    2  A    between atoms: N_3  and  C_5
REMARK    3  A    between atoms: C_5  and  C_6
REMARK    4  A    between atoms: C_6  and  C_7
REMARK    5  A    between atoms: C_6  and  C_13
REMARK    6  A    between atoms: C_7  and  C_8
REMARK    7  A    between atoms: C_19  and  C_20
REMARK    8  A    between atoms: N_25  and  C_26
REMARK                            x       y       z     vdW  Elec       q    Type
REMARK                         _______ _______ _______ _____ _____    ______ ____
ROOT
ATOM      1  C   UNL     1       5.131   4.232  18.347  0.00  0.00    +0.000 C 
ATOM      2  O   UNL     1       5.886   3.456  18.933  0.00  0.00    +0.000 OA
ATOM      3  N   UNL     1       3.760   4.057  18.410  0.00  0.00    +0.000 N 
ATOM      4  C   UNL     1       3.154   2.928  19.105  0.00  0.00    +0.000 C 
ATOM      5  C   UNL     1       1.929   2.607  18.268  0.00  0.00    +0.000 C 
ATOM      6  C   UNL     1       1.463   3.968  17.764  0.00  0.00    +0.000 C 
ATOM      7  C   UNL     1       2.714   4.862  17.774  0.00  0.00    +0.000 C 
ENDROOT
BRANCH   7   8
ATOM      8  C   UNL     1       2.377   6.147  18.549  0.00  0.00    +0.000 C 
ATOM      9  O   UNL     1       1.996   6.083  19.719  0.00  0.00    +0.000 OA
ATOM     10  N   UNL     1       2.619   7.338  17.882  0.00  0.00    +0.000 N 
ATOM     11  C   UNL     1       2.074   8.550  18.206  0.00  0.00    +0.000 C 
ATOM     12  O   UNL     1       1.937   9.414  17.343  0.00  0.00    +0.000 OA
ATOM     13  N   UNL     1       1.652   8.674  19.494  0.00  0.00    +0.000 N 
ATOM     14  H   UNL     1       2.917   7.279  16.920  0.00  0.00    +0.000 HD
ATOM     15  H   UNL     1       1.852   7.883  20.103  0.00  0.00    +0.000 HD
BRANCH  13  16
ATOM     16  C   UNL     1       1.034   9.849  20.077  0.00  0.00    +0.000 C 
ATOM     17  C   UNL     1      -0.462   9.600  20.300  0.00  0.00    +0.000 C 
ATOM     18  C   UNL     1      -0.752   8.657  21.468  0.00  0.00    +0.000 C 
ATOM     19  C   UNL     1      -0.064   9.102  22.751  0.00  0.00    +0.000 C 
ATOM     20  C   UNL     1       1.430   9.344  22.558  0.00  0.00    +0.000 C 
ATOM     21  C   UNL     1       1.736  10.265  21.376  0.00  0.00    +0.000 C 
ENDBRANCH  13  16
ENDBRANCH   7   8
BRANCH   1  22
ATOM     22  C   UNL     1       5.683   5.466  17.613  0.00  0.00    +0.000 C 
BRANCH  22  23
ATOM     23  C   UNL     1       7.173   5.607  17.976  0.00  0.00    +0.000 C 
BRANCH  23  26
ATOM     24  O   UNL     1       8.007   9.131  17.608  0.00  0.00    +0.000 OA
ATOM     25  C   UNL     1       7.395   8.077  17.469  0.00  0.00    +0.000 C 
ATOM     26  N   UNL     1       7.580   6.977  18.264  0.00  0.00    +0.000 N 
BRANCH  26  27
ATOM     27  O   UNL     1       8.621   7.067  19.214  0.00  0.00    +0.000 OA
ATOM     28  H   UNL     1       8.817   8.028  19.208  0.00  0.00    +0.000 HD
ENDBRANCH  26  27
ENDBRANCH  23  26
ENDBRANCH  22  23
BRANCH  22  29
ATOM     29  C   UNL     1       5.367   5.525  16.105  0.00  0.00    +0.000 C 
BRANCH  29  30
ATOM     30  C   UNL     1       6.005   4.492  15.155  0.00  0.00    +0.000 C 
ATOM     31  C   UNL     1       5.061   3.972  14.076  0.00  0.00    +0.000 C 
ATOM     32  C   UNL     1       5.917   3.667  12.855  0.00  0.00    +0.000 C 
ATOM     33  C   UNL     1       7.226   4.422  13.023  0.00  0.00    +0.000 C 
ATOM     34  C   UNL     1       7.159   5.130  14.367  0.00  0.00    +0.000 C 
ENDBRANCH  29  30
ENDBRANCH  22  29
ENDBRANCH   1  22
TORSDOF 8
ENDMDL
MODEL 2
REMARK VINA RESULT:      -7.7      0.722      1.048
REMARK  Name = 
REMARK  8 active torsions:
REMARK  status: ('A' for Active; 'I' for Inactive)
REMARK    1  A    between atoms: N_3  and  O_4
REMARK    2  A    between atoms: N_3  and  C_5
REMARK    3  A    between atoms: C_5  and  C_6
REMARK    4  A    between atoms: C_6  and  C_7
REMARK    5  A    between atoms: C_6  and  C_13
REMARK    6  A    between atoms: C_7  and  C_8
REMARK    7  A    between atoms: C_19  and  C_20
REMARK    8  A    between atoms: N_25  and  C_26
REMARK                            x       y       z     vdW  Elec       q    Type
REMARK                         _______ _______ _______ _____ _____    ______ ____
ROOT
ATOM      1  C   UNL     1       4.754   3.589  18.941  0.00  0.00    +0.000 C 
ATOM      2  O   UNL     1       5.314   2.746  19.642  0.00  0.00    +0.000 OA
ATOM      3  N   UNL     1       3.375   3.608  18.834  0.00  0.00    +0.000 N 
ATOM      4  C   UNL     1       2.534   2.607  19.482  0.00  0.00    +0.000 C 
ATOM      5  C   UNL     1       1.387   2.418  18.506  0.00  0.00    +0.000 C 
ATOM      6  C   UNL     1       1.184   3.803  17.905  0.00  0.00    +0.000 C 
ATOM      7  C   UNL     1       2.540   4.516  18.047  0.00  0.00    +0.000 C 
ENDROOT
BRANCH   7   8
ATOM      8  C   UNL     1       2.297   5.872  18.732  0.00  0.00    +0.000 C 
ATOM      9  O   UNL     1       1.944   5.915  19.912  0.00  0.00    +0.000 OA
ATOM     10  N   UNL     1       2.589   6.995  17.974  0.00  0.00    +0.000 N 
ATOM     11  C   UNL     1       2.122   8.258  18.220  0.00  0.00    +0.000 C 
ATOM     12  O   UNL     1       2.012   9.063  17.299  0.00  0.00    +0.000 OA
ATOM     13  N   UNL     1       1.743   8.499  19.505  0.00  0.00    +0.000 N 
ATOM     14  H   UNL     1       2.858   6.850  17.012  0.00  0.00    +0.000 HD
ATOM     15  H   UNL     1       1.914   7.744  20.166  0.00  0.00    +0.000 HD
BRANCH  13  16
ATOM     16  C   UNL     1       1.209   9.747  20.013  0.00  0.00    +0.000 C 
ATOM     17  C   UNL     1      -0.323   9.694  20.033  0.00  0.00    +0.000 C 
ATOM     18  C   UNL     1      -0.885   8.803  21.141  0.00  0.00    +0.000 C 
ATOM     19  C   UNL     1      -0.323   9.164  22.509  0.00  0.00    +0.000 C 
ATOM     20  C   UNL     1       1.202   9.210  22.519  0.00  0.00    +0.000 C 
ATOM     21  C   UNL     1       1.778  10.077  21.398  0.00  0.00    +0.000 C 
ENDBRANCH  13  16
ENDBRANCH   7   8
BRANCH   1  22
ATOM     22  C   UNL     1       5.562   4.699  18.247  0.00  0.00    +0.000 C 
BRANCH  22  23
ATOM     23  C   UNL     1       6.292   5.506  19.335  0.00  0.00    +0.000 C 
BRANCH  23  26
ATOM     24  O   UNL     1       7.792   7.977  17.123  0.00  0.00    +0.000 OA
ATOM     25  C   UNL     1       6.923   7.321  17.686  0.00  0.00    +0.000 C 
ATOM     26  N   UNL     1       7.143   6.566  18.807  0.00  0.00    +0.000 N 
BRANCH  26  27
ATOM     27  O   UNL     1       8.485   6.477  19.241  0.00  0.00    +0.000 OA
ATOM     28  H   UNL     1       8.391   6.583  20.211  0.00  0.00    +0.000 HD
ENDBRANCH  26  27
ENDBRANCH  23  26
ENDBRANCH  22  23
BRANCH  22  29
ATOM     29  C   UNL     1       6.448   4.226  17.076  0.00  0.00    +0.000 C 
BRANCH  29  30
ATOM     30  C   UNL     1       6.127   4.696  15.643  0.00  0.00    +0.000 C 
ATOM     31  C   UNL     1       7.356   5.066  14.820  0.00  0.00    +0.000 C 
ATOM     32  C   UNL     1       7.030   4.729  13.372  0.00  0.00    +0.000 C 
ATOM     33  C   UNL     1       5.860   3.758  13.387  0.00  0.00    +0.000 C 
ATOM     34  C   UNL     1       5.467   3.562  14.843  0.00  0.00    +0.000 C 
ENDBRANCH  29  30
ENDBRANCH  22  29
ENDBRANCH   1  22
TORSDOF 8
ENDMDL
MODEL 3
REMARK VINA RESULT:      -7.6      1.060      1.474
REMARK  Name = 
REMARK  8 active torsions:
REMARK  status: ('A' for Active; 'I' for Inactive)
REMARK    1  A    between atoms: N_3  and  O_4
REMARK    2  A    between atoms: N_3  and  C_5
REMARK    3  A    between atoms: C_5  and  C_6
REMARK    4  A    between atoms: C_6  and  C_7
REMARK    5  A    between atoms: C_6  and  C_13
REMARK    6  A    between atoms: C_7  and  C_8
REMARK    7  A    between atoms: C_19  and  C_20
REMARK    8  A    between atoms: N_25  and  C_26
REMARK                            x       y       z     vdW  Elec       q    Type
REMARK                         _______ _______ _______ _____ _____    ______ ____
ROOT
ATOM      1  C   UNL     1       4.664   3.614  19.028  0.00  0.00    +0.000 C 
ATOM      2  O   UNL     1       5.331   2.868  19.744  0.00  0.00    +0.000 OA
ATOM      3  N   UNL     1       3.287   3.662  19.156  0.00  0.00    +0.000 N 
ATOM      4  C   UNL     1       2.565   2.798  20.082  0.00  0.00    +0.000 C 
ATOM      5  C   UNL     1       1.265   2.503  19.356  0.00  0.00    +0.000 C 
ATOM      6  C   UNL     1       0.970   3.789  18.594  0.00  0.00    +0.000 C 
ATOM      7  C   UNL     1       2.335   4.470  18.393  0.00  0.00    +0.000 C 
ENDROOT
BRANCH   7   8
ATOM      8  C   UNL     1       2.223   5.920  18.895  0.00  0.00    +0.000 C 
ATOM      9  O   UNL     1       1.753   6.155  20.009  0.00  0.00    +0.000 OA
ATOM     10  N   UNL     1       2.762   6.892  18.065  0.00  0.00    +0.000 N 
ATOM     11  C   UNL     1       2.465   8.226  18.115  0.00  0.00    +0.000 C 
ATOM     12  O   UNL     1       2.579   8.920  17.108  0.00  0.00    +0.000 OA
ATOM     13  N   UNL     1       1.987   8.673  19.309  0.00  0.00    +0.000 N 
ATOM     14  H   UNL     1       3.110   6.594  17.166  0.00  0.00    +0.000 HD
ATOM     15  H   UNL     1       1.969   7.988  20.062  0.00  0.00    +0.000 HD
BRANCH  13  16
ATOM     16  C   UNL     1       1.593  10.035  19.610  0.00  0.00    +0.000 C 
ATOM     17  C   UNL     1       0.800  10.625  18.439  0.00  0.00    +0.000 C 
ATOM     18  C   UNL     1      -0.616  10.059  18.318  0.00  0.00    +0.000 C 
ATOM     19  C   UNL     1      -1.390  10.166  19.624  0.00  0.00    +0.000 C 
ATOM     20  C   UNL     1      -0.627   9.574  20.805  0.00  0.00    +0.000 C 
ATOM     21  C   UNL     1       0.800  10.111  20.921  0.00  0.00    +0.000 C 
ENDBRANCH  13  16
ENDBRANCH   7   8
BRANCH   1  22
ATOM     22  C   UNL     1       5.346   4.581  18.045  0.00  0.00    +0.000 C 
BRANCH  22  23
ATOM     23  C   UNL     1       6.862   4.540  18.314  0.00  0.00    +0.000 C 
BRANCH  23  26
ATOM     24  O   UNL     1       8.507   7.757  18.756  0.00  0.00    +0.000 OA
ATOM     25  C   UNL     1       7.808   6.888  18.248  0.00  0.00    +0.000 C 
ATOM     26  N   UNL     1       7.385   5.764  18.908  0.00  0.00    +0.000 N 
BRANCH  26  27
ATOM     27  O   UNL     1       7.898   5.583  20.212  0.00  0.00    +0.000 OA
ATOM     28  H   UNL     1       7.156   5.121  20.658  0.00  0.00    +0.000 HD
ENDBRANCH  26  27
ENDBRANCH  23  26
ENDBRANCH  22  23
BRANCH  22  29
ATOM     29  C   UNL     1       4.938   4.406  16.568  0.00  0.00    +0.000 C 
BRANCH  29  30
ATOM     30  C   UNL     1       5.996   3.973  15.534  0.00  0.00    +0.000 C 
ATOM     31  C   UNL     1       5.412   3.499  14.207  0.00  0.00    +0.000 C 
ATOM     32  C   UNL     1       6.419   3.870  13.129  0.00  0.00    +0.000 C 
ATOM     33  C   UNL     1       7.327   4.942  13.710  0.00  0.00    +0.000 C 
ATOM     34  C   UNL     1       6.885   5.165  15.148  0.00  0.00    +0.000 C 
ENDBRANCH  29  30
ENDBRANCH  22  29
ENDBRANCH   1  22
TORSDOF 8
ENDMDL
MODEL 4
REMARK VINA RESULT:      -7.4      1.135      1.709
REMARK  Name = 
REMARK  8 active torsions:
REMARK  status: ('A' for Active; 'I' for Inactive)
REMARK    1  A    between atoms: N_3  and  O_4
REMARK    2  A    between atoms: N_3  and  C_5
REMARK    3  A    between atoms: C_5  and  C_6
REMARK    4  A    between atoms: C_6  and  C_7
REMARK    5  A    between atoms: C_6  and  C_13
REMARK    6  A    between atoms: C_7  and  C_8
REMARK    7  A    between atoms: C_19  and  C_20
REMARK    8  A    between atoms: N_25  and  C_26
REMARK                            x       y       z     vdW  Elec       q    Type
REMARK                         _______ _______ _______ _____ _____    ______ ____
ROOT
ATOM      1  C   UNL     1       4.618   3.554  18.937  0.00  0.00    +0.000 C 
ATOM      2  O   UNL     1       5.342   2.826  19.615  0.00  0.00    +0.000 OA
ATOM      3  N   UNL     1       3.254   3.593  19.162  0.00  0.00    +0.000 N 
ATOM      4  C   UNL     1       2.608   2.738  20.152  0.00  0.00    +0.000 C 
ATOM      5  C   UNL     1       1.263   2.419  19.525  0.00  0.00    +0.000 C 
ATOM      6  C   UNL     1       0.901   3.690  18.765  0.00  0.00    +0.000 C 
ATOM      7  C   UNL     1       2.242   4.379  18.456  0.00  0.00    +0.000 C 
ENDROOT
BRANCH   7   8
ATOM      8  C   UNL     1       2.152   5.836  18.940  0.00  0.00    +0.000 C 
ATOM      9  O   UNL     1       1.664   6.093  20.042  0.00  0.00    +0.000 OA
ATOM     10  N   UNL     1       2.729   6.787  18.112  0.00  0.00    +0.000 N 
ATOM     11  C   UNL     1       2.461   8.128  18.142  0.00  0.00    +0.000 C 
ATOM     12  O   UNL     1       2.611   8.808  17.130  0.00  0.00    +0.000 OA
ATOM     13  N   UNL     1       1.969   8.598  19.321  0.00  0.00    +0.000 N 
ATOM     14  H   UNL     1       3.089   6.471  17.223  0.00  0.00    +0.000 HD
ATOM     15  H   UNL     1       1.920   7.922  20.080  0.00  0.00    +0.000 HD
BRANCH  13  16
ATOM     16  C   UNL     1       1.598   9.972  19.600  0.00  0.00    +0.000 C 
ATOM     17  C   UNL     1       0.794  10.547  18.429  0.00  0.00    +0.000 C 
ATOM     18  C   UNL     1      -0.631  10.000  18.344  0.00  0.00    +0.000 C 
ATOM     19  C   UNL     1      -1.382  10.146  19.661  0.00  0.00    +0.000 C 
ATOM     20  C   UNL     1      -0.607   9.567  20.841  0.00  0.00    +0.000 C 
ATOM     21  C   UNL     1       0.829  10.086  20.921  0.00  0.00    +0.000 C 
ENDBRANCH  13  16
ENDBRANCH   7   8
BRANCH   1  22
ATOM     22  C   UNL     1       5.220   4.509  17.892  0.00  0.00    +0.000 C 
BRANCH  22  23
ATOM     23  C   UNL     1       6.063   5.559  18.637  0.00  0.00    +0.000 C 
BRANCH  23  26
ATOM     24  O   UNL     1       7.939   8.398  17.345  0.00  0.00    +0.000 OA
ATOM     25  C   UNL     1       7.722   7.311  17.867  0.00  0.00    +0.000 C 
ATOM     26  N   UNL     1       6.523   6.653  17.789  0.00  0.00    +0.000 N 
BRANCH  26  27
ATOM     27  O   UNL     1       5.472   7.352  17.156  0.00  0.00    +0.000 OA
ATOM     28  H   UNL     1       5.516   8.227  17.598  0.00  0.00    +0.000 HD
ENDBRANCH  26  27
ENDBRANCH  23  26
ENDBRANCH  22  23
BRANCH  22  29
ATOM     29  C   UNL     1       5.929   3.819  16.708  0.00  0.00    +0.000 C 
BRANCH  29  30
ATOM     30  C   UNL     1       5.900   4.481  15.316  0.00  0.00    +0.000 C 
ATOM     31  C   UNL     1       7.266   4.945  14.820  0.00  0.00    +0.000 C 
ATOM     32  C   UNL     1       7.249   4.809  13.304  0.00  0.00    +0.000 C 
ATOM     33  C   UNL     1       6.119   3.856  12.949  0.00  0.00    +0.000 C 
ATOM     34  C   UNL     1       5.438   3.472  14.254  0.00  0.00    +0.000 C 
ENDBRANCH  29  30
ENDBRANCH  22  29
ENDBRANCH   1  22
TORSDOF 8
ENDMDL
MODEL 5
REMARK VINA RESULT:      -7.4      1.162      1.800
REMARK  Name = 
REMARK  8 active torsions:
REMARK  status: ('A' for Active; 'I' for Inactive)
REMARK    1  A    between atoms: N_3  and  O_4
REMARK    2  A    between atoms: N_3  and  C_5
REMARK    3  A    between atoms: C_5  and  C_6
REMARK    4  A    between atoms: C_6  and  C_7
REMARK    5  A    between atoms: C_6  and  C_13
REMARK    6  A    between atoms: C_7  and  C_8
REMARK    7  A    between atoms: C_19  and  C_20
REMARK    8  A    between atoms: N_25  and  C_26
REMARK                            x       y       z     vdW  Elec       q    Type
REMARK                         _______ _______ _______ _____ _____    ______ ____
ROOT
ATOM      1  C   UNL     1       5.721   4.855  18.058  0.00  0.00    +0.000 C 
ATOM      2  O   UNL     1       6.651   4.412  18.729  0.00  0.00    +0.000 OA
ATOM      3  N   UNL     1       4.420   4.460  18.315  0.00  0.00    +0.000 N 
ATOM      4  C   UNL     1       4.100   3.466  19.332  0.00  0.00    +0.000 C 
ATOM      5  C   UNL     1       2.916   2.720  18.743  0.00  0.00    +0.000 C 
ATOM      6  C   UNL     1       2.153   3.791  17.972  0.00  0.00    +0.000 C 
ATOM      7  C   UNL     1       3.196   4.866  17.621  0.00  0.00    +0.000 C 
ENDROOT
BRANCH   7   8
ATOM      8  C   UNL     1       2.653   6.228  18.085  0.00  0.00    +0.000 C 
ATOM      9  O   UNL     1       2.685   7.198  17.326  0.00  0.00    +0.000 OA
ATOM     10  N   UNL     1       2.062   6.249  19.338  0.00  0.00    +0.000 N 
ATOM     11  C   UNL     1       1.849   7.371  20.093  0.00  0.00    +0.000 C 
ATOM     12  O   UNL     1       1.784   7.286  21.316  0.00  0.00    +0.000 OA
ATOM     13  N   UNL     1       1.792   8.539  19.397  0.00  0.00    +0.000 N 
ATOM     14  H   UNL     1       2.102   5.402  19.885  0.00  0.00    +0.000 HD
ATOM     15  H   UNL     1       1.839   8.453  18.383  0.00  0.00    +0.000 HD
BRANCH  13  16
ATOM     16  C   UNL     1       1.588   9.858  19.964  0.00  0.00    +0.000 C 
ATOM     17  C   UNL     1       1.343  10.879  18.848  0.00  0.00    +0.000 C 
ATOM     18  C   UNL     1      -0.038  10.755  18.204  0.00  0.00    +0.000 C 
ATOM     19  C   UNL     1      -1.157  10.778  19.236  0.00  0.00    +0.000 C 
ATOM     20  C   UNL     1      -0.943   9.760  20.352  0.00  0.00    +0.000 C 
ATOM     21  C   UNL     1       0.445   9.856  20.986  0.00  0.00    +0.000 C 
ENDBRANCH  13  16
ENDBRANCH   7   8
BRANCH   1  22
ATOM     22  C   UNL     1       5.966   5.929  16.984  0.00  0.00    +0.000 C 
BRANCH  22  23
ATOM     23  C   UNL     1       7.458   6.305  17.020  0.00  0.00    +0.000 C 
BRANCH  23  26
ATOM     24  O   UNL     1       8.464   9.487  18.472  0.00  0.00    +0.000 OA
ATOM     25  C   UNL     1       7.912   8.697  17.715  0.00  0.00    +0.000 C 
ATOM     26  N   UNL     1       7.776   7.359  17.976  0.00  0.00    +0.000 N 
BRANCH  26  27
ATOM     27  O   UNL     1       8.419   6.886  19.141  0.00  0.00    +0.000 OA
ATOM     28  H   UNL     1       8.969   7.658  19.395  0.00  0.00    +0.000 HD
ENDBRANCH  26  27
ENDBRANCH  23  26
ENDBRANCH  22  23
BRANCH  22  29
ATOM     29  C   UNL     1       5.407   5.594  15.586  0.00  0.00    +0.000 C 
BRANCH  29  30
ATOM     30  C   UNL     1       6.095   4.510  14.733  0.00  0.00    +0.000 C 
ATOM     31  C   UNL     1       5.166   3.813  13.745  0.00  0.00    +0.000 C 
ATOM     32  C   UNL     1       6.014   3.437  12.538  0.00  0.00    +0.000 C 
ATOM     33  C   UNL     1       7.269   4.293  12.585  0.00  0.00    +0.000 C 
ATOM     34  C   UNL     1       7.183   5.138  13.847  0.00  0.00    +0.000 C 
ENDBRANCH  29  30
ENDBRANCH  22  29
ENDBRANCH   1  22
TORSDOF 8
ENDMDL
MODEL 6
REMARK VINA RESULT:      -7.3      1.416      1.877
REMARK  Name = 
REMARK  8 active torsions:
REMARK  status: ('A' for Active; 'I' for Inactive)
REMARK    1  A    between atoms: N_3  and  O_4
REMARK    2  A    between atoms: N_3  and  C_5
REMARK    3  A    between atoms: C_5  and  C_6
REMARK    4  A    between atoms: C_6  and  C_7
REMARK    5  A    between atoms: C_6  and  C_13
REMARK    6  A    between atoms: C_7  and  C_8
REMARK    7  A    between atoms: C_19  and  C_20
REMARK    8  A    between atoms: N_25  and  C_26
REMARK                            x       y       z     vdW  Elec       q    Type
REMARK                         _______ _______ _______ _____ _____    ______ ____
ROOT
ATOM      1  C   UNL     1       4.466   3.692  19.654  0.00  0.00    +0.000 C 
ATOM      2  O   UNL     1       5.288   3.098  20.350  0.00  0.00    +0.000 OA
ATOM      3  N   UNL     1       3.149   3.803  20.064  0.00  0.00    +0.000 N 
ATOM      4  C   UNL     1       2.664   3.174  21.287  0.00  0.00    +0.000 C 
ATOM      5  C   UNL     1       1.243   2.766  20.940  0.00  0.00    +0.000 C 
ATOM      6  C   UNL     1       0.763   3.869  20.004  0.00  0.00    +0.000 C 
ATOM      7  C   UNL     1       2.037   4.455  19.372  0.00  0.00    +0.000 C 
ENDROOT
BRANCH   7   8
ATOM      8  C   UNL     1       2.007   5.981  19.565  0.00  0.00    +0.000 C 
ATOM      9  O   UNL     1       1.577   6.463  20.614  0.00  0.00    +0.000 OA
ATOM     10  N   UNL     1       2.569   6.733  18.546  0.00  0.00    +0.000 N 
ATOM     11  C   UNL     1       2.337   8.063  18.324  0.00  0.00    +0.000 C 
ATOM     12  O   UNL     1       2.458   8.529  17.193  0.00  0.00    +0.000 OA
ATOM     13  N   UNL     1       1.911   8.769  19.407  0.00  0.00    +0.000 N 
ATOM     14  H   UNL     1       2.880   6.239  17.722  0.00  0.00    +0.000 HD
ATOM     15  H   UNL     1       1.880   8.255  20.285  0.00  0.00    +0.000 HD
BRANCH  13  16
ATOM     16  C   UNL     1       1.589  10.182  19.427  0.00  0.00    +0.000 C 
ATOM     17  C   UNL     1       0.457  10.478  18.438  0.00  0.00    +0.000 C 
ATOM     18  C   UNL     1      -0.910   9.984  18.914  0.00  0.00    +0.000 C 
ATOM     19  C   UNL     1      -1.246  10.486  20.312  0.00  0.00    +0.000 C 
ATOM     20  C   UNL     1      -0.139  10.191  21.320  0.00  0.00    +0.000 C 
ATOM     21  C   UNL     1       1.238  10.656  20.843  0.00  0.00    +0.000 C 
ENDBRANCH  13  16
ENDBRANCH   7   8
BRANCH   1  22
ATOM     22  C   UNL     1       4.898   4.410  18.364  0.00  0.00    +0.000 C 
BRANCH  22  23
ATOM     23  C   UNL     1       6.437   4.415  18.316  0.00  0.00    +0.000 C 
BRANCH  23  26
ATOM     24  O   UNL     1       8.325   7.509  18.653  0.00  0.00    +0.000 OA
ATOM     25  C   UNL     1       7.575   6.671  18.163  0.00  0.00    +0.000 C 
ATOM     26  N   UNL     1       7.038   5.624  18.864  0.00  0.00    +0.000 N 
BRANCH  26  27
ATOM     27  O   UNL     1       7.487   5.475  20.195  0.00  0.00    +0.000 OA
ATOM     28  H   UNL     1       6.686   5.124  20.640  0.00  0.00    +0.000 HD
ENDBRANCH  26  27
ENDBRANCH  23  26
ENDBRANCH  22  23
BRANCH  22  29
ATOM     29  C   UNL     1       4.203   3.917  17.078  0.00  0.00    +0.000 C 
BRANCH  29  30
ATOM     30  C   UNL     1       4.722   4.390  15.706  0.00  0.00    +0.000 C 
ATOM     31  C   UNL     1       5.193   5.840  15.684  0.00  0.00    +0.000 C 
ATOM     32  C   UNL     1       6.320   5.918  14.665  0.00  0.00    +0.000 C 
ATOM     33  C   UNL     1       6.829   4.502  14.446  0.00  0.00    +0.000 C 
ATOM     34  C   UNL     1       5.966   3.585  15.298  0.00  0.00    +0.000 C 
ENDBRANCH  29  30
ENDBRANCH  22  29
ENDBRANCH   1  22
TORSDOF 8
ENDMDL
MODEL 7
REMARK VINA RESULT:      -7.2      1.518      2.001
REMARK  Name = 
REMARK  8 active torsions:
REMARK  status: ('A' for Active; 'I' for Inactive)
REMARK    1  A    between atoms: N_3  and  O_4
REMARK    2  A    between atoms: N_3  and  C_5
REMARK    3  A    between atoms: C_5  and  C_6
REMARK    4  A    between atoms: C_6  and  C_7
REMARK    5  A    between atoms: C_6  and  C_13
REMARK    6  A    between atoms: C_7  and  C_8
REMARK    7  A    between atoms: C_19  and  C_20
REMARK    8  A    between atoms: N_25  and  C_26
REMARK                            x       y       z     vdW  Elec       q    Type
REMARK                         _______ _______ _______ _____ _____    ______ ____
ROOT
ATOM      1  C   UNL     1       4.525   3.752  18.846  0.00  0.00    +0.000 C 
ATOM      2  O   UNL     1       5.430   3.109  19.376  0.00  0.00    +0.000 OA
ATOM      3  N   UNL     1       3.266   3.794  19.418  0.00  0.00    +0.000 N 
ATOM      4  C   UNL     1       2.936   3.038  20.620  0.00  0.00    +0.000 C 
ATOM      5  C   UNL     1       1.488   2.636  20.404  0.00  0.00    +0.000 C 
ATOM      6  C   UNL     1       0.889   3.815  19.647  0.00  0.00    +0.000 C 
ATOM      7  C   UNL     1       2.073   4.488  18.930  0.00  0.00    +0.000 C 
ENDROOT
BRANCH   7   8
ATOM      8  C   UNL     1       2.052   5.986  19.278  0.00  0.00    +0.000 C 
ATOM      9  O   UNL     1       1.683   6.358  20.394  0.00  0.00    +0.000 OA
ATOM     10  N   UNL     1       2.554   6.841  18.309  0.00  0.00    +0.000 N 
ATOM     11  C   UNL     1       2.308   8.185  18.236  0.00  0.00    +0.000 C 
ATOM     12  O   UNL     1       2.363   8.762  17.153  0.00  0.00    +0.000 OA
ATOM     13  N   UNL     1       1.945   8.775  19.407  0.00  0.00    +0.000 N 
ATOM     14  H   UNL     1       2.817   6.435  17.423  0.00  0.00    +0.000 HD
ATOM     15  H   UNL     1       1.965   8.175  20.230  0.00  0.00    +0.000 HD
BRANCH  13  16
ATOM     16  C   UNL     1       1.623  10.177  19.588  0.00  0.00    +0.000 C 
ATOM     17  C   UNL     1       0.703  10.656  18.459  0.00  0.00    +0.000 C 
ATOM     18  C   UNL     1      -0.729  10.134  18.580  0.00  0.00    +0.000 C 
ATOM     19  C   UNL     1      -1.331  10.422  19.949  0.00  0.00    +0.000 C 
ATOM     20  C   UNL     1      -0.440   9.943  21.091  0.00  0.00    +0.000 C 
ATOM     21  C   UNL     1       1.003  10.435  20.967  0.00  0.00    +0.000 C 
ENDBRANCH  13  16
ENDBRANCH   7   8
BRANCH   1  22
ATOM     22  C   UNL     1       4.793   4.602  17.592  0.00  0.00    +0.000 C 
BRANCH  22  23
ATOM     23  C   UNL     1       5.864   5.649  17.948  0.00  0.00    +0.000 C 
BRANCH  23  26
ATOM     24  O   UNL     1       8.669   5.320  20.244  0.00  0.00    +0.000 OA
ATOM     25  C   UNL     1       7.562   5.638  19.827  0.00  0.00    +0.000 C 
ATOM     26  N   UNL     1       6.987   5.107  18.702  0.00  0.00    +0.000 N 
BRANCH  26  27
ATOM     27  O   UNL     1       7.798   4.228  17.950  0.00  0.00    +0.000 OA
ATOM     28  H   UNL     1       7.906   3.474  18.568  0.00  0.00    +0.000 HD
ENDBRANCH  26  27
ENDBRANCH  23  26
ENDBRANCH  22  23
BRANCH  22  29
ATOM     29  C   UNL     1       5.066   3.798  16.304  0.00  0.00    +0.000 C 
BRANCH  29  30
ATOM     30  C   UNL     1       5.504   4.539  15.025  0.00  0.00    +0.000 C 
ATOM     31  C   UNL     1       6.993   4.865  14.975  0.00  0.00    +0.000 C 
ATOM     32  C   UNL     1       7.401   4.821  13.509  0.00  0.00    +0.000 C 
ATOM     33  C   UNL     1       6.333   4.032  12.768  0.00  0.00    +0.000 C 
ATOM     34  C   UNL     1       5.272   3.656  13.790  0.00  0.00    +0.000 C 
ENDBRANCH  29  30
ENDBRANCH  22  29
ENDBRANCH   1  22
TORSDOF 8
ENDMDL
MODEL 8
REMARK VINA RESULT:      -7.0      6.988     10.574
REMARK  Name = 
REMARK  8 active torsions:
REMARK  status: ('A' for Active; 'I' for Inactive)
REMARK    1  A    between atoms: N_3  and  O_4
REMARK    2  A    between atoms: N_3  and  C_5
REMARK    3  A    between atoms: C_5  and  C_6
REMARK    4  A    between atoms: C_6  and  C_7
REMARK    5  A    between atoms: C_6  and  C_13
REMARK    6  A    between atoms: C_7  and  C_8
REMARK    7  A    between atoms: C_19  and  C_20
REMARK    8  A    between atoms: N_25  and  C_26
REMARK                            x       y       z     vdW  Elec       q    Type
REMARK                         _______ _______ _______ _____ _____    ______ ____
ROOT
ATOM      1  C   UNL     1      -0.413  11.842  21.932  0.00  0.00    +0.000 C 
ATOM      2  O   UNL     1      -0.264  11.252  23.001  0.00  0.00    +0.000 OA
ATOM      3  N   UNL     1      -0.369  11.149  20.735  0.00  0.00    +0.000 N 
ATOM      4  C   UNL     1      -0.080   9.721  20.678  0.00  0.00    +0.000 C 
ATOM      5  C   UNL     1       0.709   9.567  19.391  0.00  0.00    +0.000 C 
ATOM      6  C   UNL     1       0.096  10.604  18.458  0.00  0.00    +0.000 C 
ATOM      7  C   UNL     1      -0.511  11.677  19.377  0.00  0.00    +0.000 C 
ENDROOT
BRANCH   7   8
ATOM      8  C   UNL     1      -1.975  11.894  18.956  0.00  0.00    +0.000 C 
ATOM      9  O   UNL     1      -2.823  12.191  19.799  0.00  0.00    +0.000 OA
ATOM     10  N   UNL     1      -2.230  11.829  17.595  0.00  0.00    +0.000 N 
ATOM     11  C   UNL     1      -3.460  11.626  17.031  0.00  0.00    +0.000 C 
ATOM     12  O   UNL     1      -3.549  11.112  15.919  0.00  0.00    +0.000 OA
ATOM     13  N   UNL     1      -4.522  11.964  17.812  0.00  0.00    +0.000 N 
ATOM     14  H   UNL     1      -1.465  11.564  16.992  0.00  0.00    +0.000 HD
ATOM     15  H   UNL     1      -4.295  12.401  18.703  0.00  0.00    +0.000 HD
BRANCH  13  16
ATOM     16  C   UNL     1      -5.920  11.835  17.448  0.00  0.00    +0.000 C 
ATOM     17  C   UNL     1      -6.658  10.986  18.489  0.00  0.00    +0.000 C 
ATOM     18  C   UNL     1      -6.893  11.717  19.812  0.00  0.00    +0.000 C 
ATOM     19  C   UNL     1      -7.570  13.066  19.611  0.00  0.00    +0.000 C 
ATOM     20  C   UNL     1      -6.845  13.935  18.588  0.00  0.00    +0.000 C 
ATOM     21  C   UNL     1      -6.580  13.207  17.269  0.00  0.00    +0.000 C 
ENDBRANCH  13  16
ENDBRANCH   7   8
BRANCH   1  22
ATOM     22  C   UNL     1      -0.751  13.343  21.902  0.00  0.00    +0.000 C 
BRANCH  22  23
ATOM     23  C   UNL     1      -1.606  13.663  23.141  0.00  0.00    +0.000 C 
BRANCH  23  26
ATOM     24  O   UNL     1      -5.037  12.487  22.830  0.00  0.00    +0.000 OA
ATOM     25  C   UNL     1      -3.918  12.644  23.307  0.00  0.00    +0.000 C 
ATOM     26  N   UNL     1      -3.041  13.612  22.893  0.00  0.00    +0.000 N 
BRANCH  26  27
ATOM     27  O   UNL     1      -3.446  14.378  21.777  0.00  0.00    +0.000 OA
ATOM     28  H   UNL     1      -2.678  14.280  21.175  0.00  0.00    +0.000 HD
ENDBRANCH  26  27
ENDBRANCH  23  26
ENDBRANCH  22  23
BRANCH  22  29
ATOM     29  C   UNL     1       0.455  14.279  21.678  0.00  0.00    +0.000 C 
BRANCH  29  30
ATOM     30  C   UNL     1       0.265  15.586  20.884  0.00  0.00    +0.000 C 
ATOM     31  C   UNL     1       1.535  16.099  20.215  0.00  0.00    +0.000 C 
ATOM     32  C   UNL     1       1.102  16.806  18.939  0.00  0.00    +0.000 C 
ATOM     33  C   UNL     1      -0.300  16.321  18.608  0.00  0.00    +0.000 C 
ATOM     34  C   UNL     1      -0.711  15.366  19.718  0.00  0.00    +0.000 C 
ENDBRANCH  29  30
ENDBRANCH  22  29
ENDBRANCH   1  22
TORSDOF 8
ENDMDL
MODEL 9
REMARK VINA RESULT:      -6.9      3.538      8.603
REMARK  Name = 
REMARK  8 active torsions:
REMARK  status: ('A' for Active; 'I' for Inactive)
REMARK    1  A    between atoms: N_3  and  O_4
REMARK    2  A    between atoms: N_3  and  C_5
REMARK    3  A    between atoms: C_5  and  C_6
REMARK    4  A    between atoms: C_6  and  C_7
REMARK    5  A    between atoms: C_6  and  C_13
REMARK    6  A    between atoms: C_7  and  C_8
REMARK    7  A    between atoms: C_19  and  C_20
REMARK    8  A    between atoms: N_25  and  C_26
REMARK                            x       y       z     vdW  Elec       q    Type
REMARK                         _______ _______ _______ _____ _____    ______ ____
ROOT
ATOM      1  C   UNL     1       0.019  12.353  20.330  0.00  0.00    +0.000 C 
ATOM      2  O   UNL     1       0.047  13.153  21.265  0.00  0.00    +0.000 OA
ATOM      3  N   UNL     1       1.132  12.171  19.529  0.00  0.00    +0.000 N 
ATOM      4  C   UNL     1       2.351  12.952  19.708  0.00  0.00    +0.000 C 
ATOM      5  C   UNL     1       2.873  13.128  18.294  0.00  0.00    +0.000 C 
ATOM      6  C   UNL     1       2.492  11.827  17.597  0.00  0.00    +0.000 C 
ATOM      7  C   UNL     1       1.281  11.283  18.375  0.00  0.00    +0.000 C 
ENDROOT
BRANCH   7   8
ATOM      8  C   UNL     1       1.578   9.824  18.760  0.00  0.00    +0.000 C 
ATOM      9  O   UNL     1       1.219   9.388  19.855  0.00  0.00    +0.000 OA
ATOM     10  N   UNL     1       2.171   9.046  17.778  0.00  0.00    +0.000 N 
ATOM     11  C   UNL     1       2.843   7.875  17.996  0.00  0.00    +0.000 C 
ATOM     12  O   UNL     1       3.716   7.511  17.212  0.00  0.00    +0.000 OA
ATOM     13  N   UNL     1       2.518   7.221  19.145  0.00  0.00    +0.000 N 
ATOM     14  H   UNL     1       2.439   9.506  16.920  0.00  0.00    +0.000 HD
ATOM     15  H   UNL     1       1.758   7.630  19.686  0.00  0.00    +0.000 HD
BRANCH  13  16
ATOM     16  C   UNL     1       3.094   5.973  19.605  0.00  0.00    +0.000 C 
ATOM     17  C   UNL     1       2.281   5.421  20.781  0.00  0.00    +0.000 C 
ATOM     18  C   UNL     1       0.928   4.843  20.367  0.00  0.00    +0.000 C 
ATOM     19  C   UNL     1       1.059   3.816  19.250  0.00  0.00    +0.000 C 
ATOM     20  C   UNL     1       1.853   4.346  18.060  0.00  0.00    +0.000 C 
ATOM     21  C   UNL     1       3.198   4.952  18.465  0.00  0.00    +0.000 C 
ENDBRANCH  13  16
ENDBRANCH   7   8
BRANCH   1  22
ATOM     22  C   UNL     1      -1.216  11.468  20.088  0.00  0.00    +0.000 C 
BRANCH  22  23
ATOM     23  C   UNL     1      -1.888  11.208  21.448  0.00  0.00    +0.000 C 
BRANCH  23  26
ATOM     24  O   UNL     1       0.221   9.617  23.953  0.00  0.00    +0.000 OA
ATOM     25  C   UNL     1      -0.319   9.820  22.871  0.00  0.00    +0.000 C 
ATOM     26  N   UNL     1      -0.943  10.993  22.538  0.00  0.00    +0.000 N 
BRANCH  26  27
ATOM     27  O   UNL     1      -1.044  11.955  23.567  0.00  0.00    +0.000 OA
ATOM     28  H   UNL     1      -0.101  12.155  23.750  0.00  0.00    +0.000 HD
ENDBRANCH  26  27
ENDBRANCH  23  26
ENDBRANCH  22  23
BRANCH  22  29
ATOM     29  C   UNL     1      -2.162  11.958  18.972  0.00  0.00    +0.000 C 
BRANCH  29  30
ATOM     30  C   UNL     1      -2.907  10.927  18.102  0.00  0.00    +0.000 C 
ATOM     31  C   UNL     1      -3.929  11.539  17.150  0.00  0.00    +0.000 C 
ATOM     32  C   UNL     1      -3.967  10.648  15.917  0.00  0.00    +0.000 C 
ATOM     33  C   UNL     1      -2.688   9.825  15.916  0.00  0.00    +0.000 C 
ATOM     34  C   UNL     1      -1.922  10.197  17.176  0.00  0.00    +0.000 C 
ENDBRANCH  29  30
ENDBRANCH  22  29
ENDBRANCH   1  22
TORSDOF 8
ENDMDL
