MODEL 1
REMARK VINA RESULT:      -7.8      0.000      0.000
REMARK  Name = 
REMARK  5 active torsions:
REMARK  status: ('A' for Active; 'I' for Inactive)
REMARK    1  A    between atoms: C_1  and  O_2
REMARK    2  A    between atoms: O_2  and  C_3
REMARK    3  A    between atoms: C_8  and  N_9
REMARK    4  A    between atoms: C_12  and  C_13
REMARK    5  A    between atoms: C_17  and  N_18
REMARK                            x       y       z     vdW  Elec       q    Type
REMARK                         _______ _______ _______ _____ _____    ______ ____
ROOT
ATOM      1  N   UNL     1       4.491   3.342  17.692  0.00  0.00    +0.000 N 
ATOM      2  C   UNL     1       3.723   4.128  18.498  0.00  0.00    +0.000 A 
ATOM      3  N   UNL     1       3.269   5.330  18.211  0.00  0.00    +0.000 NA
ATOM      4  C   UNL     1       2.683   5.937  19.298  0.00  0.00    +0.000 A 
ATOM      5  C   UNL     1       2.611   5.145  20.423  0.00  0.00    +0.000 A 
ATOM      6  S   UNL     1       3.288   3.600  20.088  0.00  0.00    +0.000 S 
ATOM      7  H   UNL     1       4.849   2.479  18.092  0.00  0.00    +0.000 HD
ENDROOT
BRANCH   1  13
ATOM      8  C   UNL     1       6.605   4.478  17.143  0.00  0.00    +0.000 A 
ATOM      9  C   UNL     1       7.410   5.140  16.204  0.00  0.00    +0.000 A 
ATOM     10  C   UNL     1       7.073   5.143  14.853  0.00  0.00    +0.000 A 
ATOM     11  C   UNL     1       5.949   4.454  14.424  0.00  0.00    +0.000 A 
ATOM     12  C   UNL     1       5.134   3.812  15.352  0.00  0.00    +0.000 A 
ATOM     13  C   UNL     1       5.397   3.866  16.729  0.00  0.00    +0.000 A 
BRANCH   8  15
ATOM     14  C   UNL     1       7.667   5.541  18.965  0.00  0.00    +0.000 C 
ATOM     15  O   UNL     1       6.907   4.427  18.488  0.00  0.00    +0.000 OA
ENDBRANCH   8  15
ENDBRANCH   1  13
BRANCH   4  16
ATOM     16  C   UNL     1       2.168   7.296  19.192  0.00  0.00    +0.000 A 
ATOM     17  C   UNL     1       2.232   8.021  17.992  0.00  0.00    +0.000 A 
ATOM     18  C   UNL     1       1.754   9.335  17.925  0.00  0.00    +0.000 A 
ATOM     19  C   UNL     1       1.207   9.941  19.056  0.00  0.00    +0.000 A 
ATOM     20  C   UNL     1       1.116   9.213  20.249  0.00  0.00    +0.000 A 
ATOM     21  C   UNL     1       1.580   7.893  20.318  0.00  0.00    +0.000 A 
BRANCH  20  22
ATOM     22  N   UNL     1       0.547   9.849  21.444  0.00  0.00    +0.000 N 
ATOM     23  O   UNL     1       0.855  11.028  21.671  0.00  0.00    +0.000 OA
ATOM     24  O   UNL     1      -0.202   9.170  22.160  0.00  0.00    +0.000 OA
ENDBRANCH  20  22
ENDBRANCH   4  16
TORSDOF 4
ENDMDL
MODEL 2
REMARK VINA RESULT:      -7.4      3.341      5.172
REMARK  Name = 
REMARK  5 active torsions:
REMARK  status: ('A' for Active; 'I' for Inactive)
REMARK    1  A    between atoms: C_1  and  O_2
REMARK    2  A    between atoms: O_2  and  C_3
REMARK    3  A    between atoms: C_8  and  N_9
REMARK    4  A    between atoms: C_12  and  C_13
REMARK    5  A    between atoms: C_17  and  N_18
REMARK                            x       y       z     vdW  Elec       q    Type
REMARK                         _______ _______ _______ _____ _____    ______ ____
ROOT
ATOM      1  N   UNL     1       2.919   6.050  18.925  0.00  0.00    +0.000 N 
ATOM      2  C   UNL     1       2.386   7.295  19.080  0.00  0.00    +0.000 A 
ATOM      3  N   UNL     1       1.784   7.755  20.157  0.00  0.00    +0.000 NA
ATOM      4  C   UNL     1       1.193   8.978  19.939  0.00  0.00    +0.000 A 
ATOM      5  C   UNL     1       1.421   9.507  18.687  0.00  0.00    +0.000 A 
ATOM      6  S   UNL     1       2.414   8.435  17.779  0.00  0.00    +0.000 S 
ATOM      7  H   UNL     1       3.262   5.807  17.999  0.00  0.00    +0.000 HD
ENDROOT
BRANCH   1  13
ATOM      8  C   UNL     1       1.713   3.904  18.884  0.00  0.00    +0.000 A 
ATOM      9  C   UNL     1       1.081   2.862  19.579  0.00  0.00    +0.000 A 
ATOM     10  C   UNL     1       1.203   2.752  20.962  0.00  0.00    +0.000 A 
ATOM     11  C   UNL     1       1.987   3.662  21.656  0.00  0.00    +0.000 A 
ATOM     12  C   UNL     1       2.599   4.710  20.977  0.00  0.00    +0.000 A 
ATOM     13  C   UNL     1       2.422   4.901  19.598  0.00  0.00    +0.000 A 
BRANCH   8  15
ATOM     14  C   UNL     1       2.625   3.299  16.791  0.00  0.00    +0.000 C 
ATOM     15  O   UNL     1       1.641   4.045  17.514  0.00  0.00    +0.000 OA
ENDBRANCH   8  15
ENDBRANCH   1  13
BRANCH   4  16
ATOM     16  C   UNL     1       0.431   9.626  20.998  0.00  0.00    +0.000 A 
ATOM     17  C   UNL     1       0.413   9.127  22.309  0.00  0.00    +0.000 A 
ATOM     18  C   UNL     1      -0.349   9.753  23.302  0.00  0.00    +0.000 A 
ATOM     19  C   UNL     1      -1.104  10.886  22.997  0.00  0.00    +0.000 A 
ATOM     20  C   UNL     1      -1.069  11.405  21.696  0.00  0.00    +0.000 A 
ATOM     21  C   UNL     1      -0.296  10.789  20.702  0.00  0.00    +0.000 A 
BRANCH  20  22
ATOM     22  N   UNL     1      -1.867  12.593  21.368  0.00  0.00    +0.000 N 
ATOM     23  O   UNL     1      -2.411  13.197  22.304  0.00  0.00    +0.000 OA
ATOM     24  O   UNL     1      -1.956  12.920  20.177  0.00  0.00    +0.000 OA
ENDBRANCH  20  22
ENDBRANCH   4  16
TORSDOF 4
ENDMDL
MODEL 3
REMARK VINA RESULT:      -7.3      3.056      4.617
REMARK  Name = 
REMARK  5 active torsions:
REMARK  status: ('A' for Active; 'I' for Inactive)
REMARK    1  A    between atoms: C_1  and  O_2
REMARK    2  A    between atoms: O_2  and  C_3
REMARK    3  A    between atoms: C_8  and  N_9
REMARK    4  A    between atoms: C_12  and  C_13
REMARK    5  A    between atoms: C_17  and  N_18
REMARK                            x       y       z     vdW  Elec       q    Type
REMARK                         _______ _______ _______ _____ _____    ______ ____
ROOT
ATOM      1  N   UNL     1       3.548   5.465  19.083  0.00  0.00    +0.000 N 
ATOM      2  C   UNL     1       3.099   6.721  18.805  0.00  0.00    +0.000 A 
ATOM      3  N   UNL     1       2.217   7.404  19.503  0.00  0.00    +0.000 NA
ATOM      4  C   UNL     1       1.834   8.562  18.865  0.00  0.00    +0.000 A 
ATOM      5  C   UNL     1       2.506   8.813  17.689  0.00  0.00    +0.000 A 
ATOM      6  S   UNL     1       3.650   7.562  17.396  0.00  0.00    +0.000 S 
ATOM      7  H   UNL     1       4.156   5.028  18.395  0.00  0.00    +0.000 HD
ENDROOT
BRANCH   1  13
ATOM      8  C   UNL     1       1.811   3.720  19.042  0.00  0.00    +0.000 A 
ATOM      9  C   UNL     1       0.925   2.883  19.737  0.00  0.00    +0.000 A 
ATOM     10  C   UNL     1       1.017   2.740  21.119  0.00  0.00    +0.000 A 
ATOM     11  C   UNL     1       2.018   3.405  21.813  0.00  0.00    +0.000 A 
ATOM     12  C   UNL     1       2.886   4.253  21.134  0.00  0.00    +0.000 A 
ATOM     13  C   UNL     1       2.763   4.488  19.756  0.00  0.00    +0.000 A 
BRANCH   8  15
ATOM     14  C   UNL     1       2.655   3.007  16.954  0.00  0.00    +0.000 C 
ATOM     15  O   UNL     1       1.776   3.879  17.672  0.00  0.00    +0.000 OA
ENDBRANCH   8  15
ENDBRANCH   1  13
BRANCH   4  16
ATOM     16  C   UNL     1       0.822   9.427  19.457  0.00  0.00    +0.000 A 
ATOM     17  C   UNL     1      -0.044  10.200  18.670  0.00  0.00    +0.000 A 
ATOM     18  C   UNL     1      -0.990  11.043  19.266  0.00  0.00    +0.000 A 
ATOM     19  C   UNL     1      -1.080  11.125  20.655  0.00  0.00    +0.000 A 
ATOM     20  C   UNL     1      -0.236  10.336  21.446  0.00  0.00    +0.000 A 
ATOM     21  C   UNL     1       0.703   9.479  20.855  0.00  0.00    +0.000 A 
BRANCH  20  22
ATOM     22  N   UNL     1      -0.323  10.423  22.909  0.00  0.00    +0.000 N 
ATOM     23  O   UNL     1      -1.129  11.232  23.391  0.00  0.00    +0.000 OA
ATOM     24  O   UNL     1       0.419   9.689  23.578  0.00  0.00    +0.000 OA
ENDBRANCH  20  22
ENDBRANCH   4  16
TORSDOF 4
ENDMDL
MODEL 4
REMARK VINA RESULT:      -7.3      3.350      7.763
REMARK  Name = 
REMARK  5 active torsions:
REMARK  status: ('A' for Active; 'I' for Inactive)
REMARK    1  A    between atoms: C_1  and  O_2
REMARK    2  A    between atoms: O_2  and  C_3
REMARK    3  A    between atoms: C_8  and  N_9
REMARK    4  A    between atoms: C_12  and  C_13
REMARK    5  A    between atoms: C_17  and  N_18
REMARK                            x       y       z     vdW  Elec       q    Type
REMARK                         _______ _______ _______ _____ _____    ______ ____
ROOT
ATOM      1  N   UNL     1       4.621   4.772  18.856  0.00  0.00    +0.000 N 
ATOM      2  C   UNL     1       5.639   4.919  17.962  0.00  0.00    +0.000 A 
ATOM      3  N   UNL     1       5.545   4.824  16.653  0.00  0.00    +0.000 NA
ATOM      4  C   UNL     1       6.779   4.839  16.041  0.00  0.00    +0.000 A 
ATOM      5  C   UNL     1       7.838   5.035  16.900  0.00  0.00    +0.000 A 
ATOM      6  S   UNL     1       7.254   5.217  18.508  0.00  0.00    +0.000 S 
ATOM      7  H   UNL     1       4.868   4.773  19.843  0.00  0.00    +0.000 HD
ENDROOT
BRANCH   1  13
ATOM      8  C   UNL     1       2.181   4.444  18.810  0.00  0.00    +0.000 A 
ATOM      9  C   UNL     1       1.082   3.576  18.739  0.00  0.00    +0.000 A 
ATOM     10  C   UNL     1       1.255   2.234  18.410  0.00  0.00    +0.000 A 
ATOM     11  C   UNL     1       2.523   1.757  18.114  0.00  0.00    +0.000 A 
ATOM     12  C   UNL     1       3.621   2.608  18.202  0.00  0.00    +0.000 A 
ATOM     13  C   UNL     1       3.491   3.941  18.619  0.00  0.00    +0.000 A 
BRANCH   8  15
ATOM     14  C   UNL     1       1.836   6.062  20.496  0.00  0.00    +0.000 C 
ATOM     15  O   UNL     1       2.061   5.785  19.110  0.00  0.00    +0.000 OA
ENDBRANCH   8  15
ENDBRANCH   1  13
BRANCH   4  16
ATOM     16  C   UNL     1       6.884   4.689  14.596  0.00  0.00    +0.000 A 
ATOM     17  C   UNL     1       7.816   5.417  13.842  0.00  0.00    +0.000 A 
ATOM     18  C   UNL     1       7.877   5.274  12.450  0.00  0.00    +0.000 A 
ATOM     19  C   UNL     1       7.007   4.402  11.796  0.00  0.00    +0.000 A 
ATOM     20  C   UNL     1       6.092   3.653  12.547  0.00  0.00    +0.000 A 
ATOM     21  C   UNL     1       6.037   3.782  13.941  0.00  0.00    +0.000 A 
BRANCH  20  22
ATOM     22  N   UNL     1       5.170   2.738  11.862  0.00  0.00    +0.000 N 
ATOM     23  O   UNL     1       5.615   1.641  11.493  0.00  0.00    +0.000 OA
ATOM     24  O   UNL     1       4.004   3.117  11.685  0.00  0.00    +0.000 OA
ENDBRANCH  20  22
ENDBRANCH   4  16
TORSDOF 4
ENDMDL
MODEL 5
REMARK VINA RESULT:      -7.2      1.614      2.055
REMARK  Name = 
REMARK  5 active torsions:
REMARK  status: ('A' for Active; 'I' for Inactive)
REMARK    1  A    between atoms: C_1  and  O_2
REMARK    2  A    between atoms: O_2  and  C_3
REMARK    3  A    between atoms: C_8  and  N_9
REMARK    4  A    between atoms: C_12  and  C_13
REMARK    5  A    between atoms: C_17  and  N_18
REMARK                            x       y       z     vdW  Elec       q    Type
REMARK                         _______ _______ _______ _____ _____    ______ ____
ROOT
ATOM      1  N   UNL     1       4.355   3.219  17.882  0.00  0.00    +0.000 N 
ATOM      2  C   UNL     1       3.570   3.808  18.827  0.00  0.00    +0.000 A 
ATOM      3  N   UNL     1       3.084   5.031  18.783  0.00  0.00    +0.000 NA
ATOM      4  C   UNL     1       2.487   5.395  19.969  0.00  0.00    +0.000 A 
ATOM      5  C   UNL     1       2.440   4.394  20.914  0.00  0.00    +0.000 A 
ATOM      6  S   UNL     1       3.157   2.964  20.280  0.00  0.00    +0.000 S 
ATOM      7  H   UNL     1       4.737   2.303  18.103  0.00  0.00    +0.000 HD
ENDROOT
BRANCH   1  13
ATOM      8  C   UNL     1       6.328   4.665  17.601  0.00  0.00    +0.000 A 
ATOM      9  C   UNL     1       7.095   5.515  16.790  0.00  0.00    +0.000 A 
ATOM     10  C   UNL     1       6.849   5.608  15.423  0.00  0.00    +0.000 A 
ATOM     11  C   UNL     1       5.858   4.825  14.849  0.00  0.00    +0.000 A 
ATOM     12  C   UNL     1       5.080   3.996  15.649  0.00  0.00    +0.000 A 
ATOM     13  C   UNL     1       5.242   3.947  17.042  0.00  0.00    +0.000 A 
BRANCH   8  15
ATOM     14  C   UNL     1       7.306   5.578  19.547  0.00  0.00    +0.000 C 
ATOM     15  O   UNL     1       6.545   4.521  18.955  0.00  0.00    +0.000 OA
ENDBRANCH   8  15
ENDBRANCH   1  13
BRANCH   4  16
ATOM     16  C   UNL     1       1.936   6.734  20.133  0.00  0.00    +0.000 A 
ATOM     17  C   UNL     1       1.178   7.090  21.258  0.00  0.00    +0.000 A 
ATOM     18  C   UNL     1       0.638   8.376  21.378  0.00  0.00    +0.000 A 
ATOM     19  C   UNL     1       0.848   9.321  20.374  0.00  0.00    +0.000 A 
ATOM     20  C   UNL     1       1.626   8.979  19.261  0.00  0.00    +0.000 A 
ATOM     21  C   UNL     1       2.181   7.698  19.143  0.00  0.00    +0.000 A 
BRANCH  20  22
ATOM     22  N   UNL     1       1.844   9.969  18.198  0.00  0.00    +0.000 N 
ATOM     23  O   UNL     1       2.302   9.564  17.120  0.00  0.00    +0.000 OA
ATOM     24  O   UNL     1       1.566  11.151  18.442  0.00  0.00    +0.000 OA
ENDBRANCH  20  22
ENDBRANCH   4  16
TORSDOF 4
ENDMDL
MODEL 6
REMARK VINA RESULT:      -7.2      2.063      7.348
REMARK  Name = 
REMARK  5 active torsions:
REMARK  status: ('A' for Active; 'I' for Inactive)
REMARK    1  A    between atoms: C_1  and  O_2
REMARK    2  A    between atoms: O_2  and  C_3
REMARK    3  A    between atoms: C_8  and  N_9
REMARK    4  A    between atoms: C_12  and  C_13
REMARK    5  A    between atoms: C_17  and  N_18
REMARK                            x       y       z     vdW  Elec       q    Type
REMARK                         _______ _______ _______ _____ _____    ______ ____
ROOT
ATOM      1  N   UNL     1       1.456   6.888  20.804  0.00  0.00    +0.000 N 
ATOM      2  C   UNL     1       2.257   5.913  20.291  0.00  0.00    +0.000 A 
ATOM      3  N   UNL     1       3.415   6.093  19.690  0.00  0.00    +0.000 NA
ATOM      4  C   UNL     1       3.890   4.934  19.120  0.00  0.00    +0.000 A 
ATOM      5  C   UNL     1       3.117   3.820  19.365  0.00  0.00    +0.000 A 
ATOM      6  S   UNL     1       1.771   4.253  20.346  0.00  0.00    +0.000 S 
ATOM      7  H   UNL     1       0.543   6.603  21.149  0.00  0.00    +0.000 HD
ENDROOT
BRANCH   1  13
ATOM      8  C   UNL     1       1.049   9.296  21.121  0.00  0.00    +0.000 A 
ATOM      9  C   UNL     1       0.839  10.567  20.565  0.00  0.00    +0.000 A 
ATOM     10  C   UNL     1       1.052  10.795  19.208  0.00  0.00    +0.000 A 
ATOM     11  C   UNL     1       1.510   9.763  18.402  0.00  0.00    +0.000 A 
ATOM     12  C   UNL     1       1.700   8.495  18.941  0.00  0.00    +0.000 A 
ATOM     13  C   UNL     1       1.408   8.211  20.284  0.00  0.00    +0.000 A 
BRANCH   8  15
ATOM     14  C   UNL     1      -0.226   9.713  23.065  0.00  0.00    +0.000 C 
ATOM     15  O   UNL     1       0.873   9.023  22.461  0.00  0.00    +0.000 OA
ENDBRANCH   8  15
ENDBRANCH   1  13
BRANCH   4  16
ATOM     16  C   UNL     1       5.134   4.944  18.362  0.00  0.00    +0.000 A 
ATOM     17  C   UNL     1       6.383   5.065  18.990  0.00  0.00    +0.000 A 
ATOM     18  C   UNL     1       7.561   5.099  18.235  0.00  0.00    +0.000 A 
ATOM     19  C   UNL     1       7.507   5.013  16.844  0.00  0.00    +0.000 A 
ATOM     20  C   UNL     1       6.265   4.864  16.214  0.00  0.00    +0.000 A 
ATOM     21  C   UNL     1       5.083   4.816  16.966  0.00  0.00    +0.000 A 
BRANCH  20  22
ATOM     22  N   UNL     1       6.201   4.780  14.749  0.00  0.00    +0.000 N 
ATOM     23  O   UNL     1       5.238   4.182  14.249  0.00  0.00    +0.000 OA
ATOM     24  O   UNL     1       7.116   5.303  14.099  0.00  0.00    +0.000 OA
ENDBRANCH  20  22
ENDBRANCH   4  16
TORSDOF 4
ENDMDL
MODEL 7
REMARK VINA RESULT:      -7.2      4.097      7.596
REMARK  Name = 
REMARK  5 active torsions:
REMARK  status: ('A' for Active; 'I' for Inactive)
REMARK    1  A    between atoms: C_1  and  O_2
REMARK    2  A    between atoms: O_2  and  C_3
REMARK    3  A    between atoms: C_8  and  N_9
REMARK    4  A    between atoms: C_12  and  C_13
REMARK    5  A    between atoms: C_17  and  N_18
REMARK                            x       y       z     vdW  Elec       q    Type
REMARK                         _______ _______ _______ _____ _____    ______ ____
ROOT
ATOM      1  N   UNL     1       4.567   5.183  18.818  0.00  0.00    +0.000 N 
ATOM      2  C   UNL     1       5.586   5.322  17.924  0.00  0.00    +0.000 A 
ATOM      3  N   UNL     1       5.517   5.114  16.626  0.00  0.00    +0.000 NA
ATOM      4  C   UNL     1       6.756   5.157  16.027  0.00  0.00    +0.000 A 
ATOM      5  C   UNL     1       7.788   5.491  16.876  0.00  0.00    +0.000 A 
ATOM      6  S   UNL     1       7.171   5.766  18.458  0.00  0.00    +0.000 S 
ATOM      7  H   UNL     1       4.798   5.282  19.803  0.00  0.00    +0.000 HD
ENDROOT
BRANCH   1  13
ATOM      8  C   UNL     1       3.653   2.904  18.997  0.00  0.00    +0.000 A 
ATOM      9  C   UNL     1       2.657   1.974  18.664  0.00  0.00    +0.000 A 
ATOM     10  C   UNL     1       1.477   2.384  18.048  0.00  0.00    +0.000 A 
ATOM     11  C   UNL     1       1.268   3.731  17.793  0.00  0.00    +0.000 A 
ATOM     12  C   UNL     1       2.260   4.657  18.102  0.00  0.00    +0.000 A 
ATOM     13  C   UNL     1       3.495   4.265  18.640  0.00  0.00    +0.000 A 
BRANCH   8  15
ATOM     14  C   UNL     1       4.652   1.768  20.811  0.00  0.00    +0.000 C 
ATOM     15  O   UNL     1       4.828   2.553  19.628  0.00  0.00    +0.000 OA
ENDBRANCH   8  15
ENDBRANCH   1  13
BRANCH   4  16
ATOM     16  C   UNL     1       6.891   4.897  14.600  0.00  0.00    +0.000 A 
ATOM     17  C   UNL     1       7.874   5.526  13.822  0.00  0.00    +0.000 A 
ATOM     18  C   UNL     1       7.965   5.277  12.447  0.00  0.00    +0.000 A 
ATOM     19  C   UNL     1       7.073   4.398  11.833  0.00  0.00    +0.000 A 
ATOM     20  C   UNL     1       6.107   3.747  12.610  0.00  0.00    +0.000 A 
ATOM     21  C   UNL     1       6.021   3.981  13.989  0.00  0.00    +0.000 A 
BRANCH  20  22
ATOM     22  N   UNL     1       5.162   2.824  11.967  0.00  0.00    +0.000 N 
ATOM     23  O   UNL     1       4.000   3.220  11.792  0.00  0.00    +0.000 OA
ATOM     24  O   UNL     1       5.577   1.703  11.643  0.00  0.00    +0.000 OA
ENDBRANCH  20  22
ENDBRANCH   4  16
TORSDOF 4
ENDMDL
MODEL 8
REMARK VINA RESULT:      -7.0      1.996      7.082
REMARK  Name = 
REMARK  5 active torsions:
REMARK  status: ('A' for Active; 'I' for Inactive)
REMARK    1  A    between atoms: C_1  and  O_2
REMARK    2  A    between atoms: O_2  and  C_3
REMARK    3  A    between atoms: C_8  and  N_9
REMARK    4  A    between atoms: C_12  and  C_13
REMARK    5  A    between atoms: C_17  and  N_18
REMARK                            x       y       z     vdW  Elec       q    Type
REMARK                         _______ _______ _______ _____ _____    ______ ____
ROOT
ATOM      1  N   UNL     1       1.224   6.984  20.980  0.00  0.00    +0.000 N 
ATOM      2  C   UNL     1       1.887   5.965  20.365  0.00  0.00    +0.000 A 
ATOM      3  N   UNL     1       2.980   6.075  19.639  0.00  0.00    +0.000 NA
ATOM      4  C   UNL     1       3.300   4.897  19.001  0.00  0.00    +0.000 A 
ATOM      5  C   UNL     1       2.478   3.837  19.316  0.00  0.00    +0.000 A 
ATOM      6  S   UNL     1       1.288   4.344  20.450  0.00  0.00    +0.000 S 
ATOM      7  H   UNL     1       0.336   6.757  21.423  0.00  0.00    +0.000 HD
ENDROOT
BRANCH   1  13
ATOM      8  C   UNL     1       0.779   9.382  21.315  0.00  0.00    +0.000 A 
ATOM      9  C   UNL     1       0.615  10.666  20.773  0.00  0.00    +0.000 A 
ATOM     10  C   UNL     1       0.948  10.926  19.446  0.00  0.00    +0.000 A 
ATOM     11  C   UNL     1       1.481   9.915  18.661  0.00  0.00    +0.000 A 
ATOM     12  C   UNL     1       1.627   8.635  19.185  0.00  0.00    +0.000 A 
ATOM     13  C   UNL     1       1.217   8.318  20.489  0.00  0.00    +0.000 A 
BRANCH   8  15
ATOM     14  C   UNL     1      -0.507   9.921  23.222  0.00  0.00    +0.000 C 
ATOM     15  O   UNL     1       0.485   9.078  22.628  0.00  0.00    +0.000 OA
ENDBRANCH   8  15
ENDBRANCH   1  13
BRANCH   4  16
ATOM     16  C   UNL     1       4.449   4.835  18.108  0.00  0.00    +0.000 A 
ATOM     17  C   UNL     1       4.556   3.859  17.106  0.00  0.00    +0.000 A 
ATOM     18  C   UNL     1       5.684   3.805  16.278  0.00  0.00    +0.000 A 
ATOM     19  C   UNL     1       6.719   4.725  16.442  0.00  0.00    +0.000 A 
ATOM     20  C   UNL     1       6.606   5.719  17.423  0.00  0.00    +0.000 A 
ATOM     21  C   UNL     1       5.472   5.786  18.245  0.00  0.00    +0.000 A 
BRANCH  20  22
ATOM     22  N   UNL     1       7.696   6.686  17.604  0.00  0.00    +0.000 N 
ATOM     23  O   UNL     1       7.960   7.439  16.656  0.00  0.00    +0.000 OA
ATOM     24  O   UNL     1       8.293   6.689  18.690  0.00  0.00    +0.000 OA
ENDBRANCH  20  22
ENDBRANCH   4  16
TORSDOF 4
ENDMDL
MODEL 9
REMARK VINA RESULT:      -7.0      1.476      2.430
REMARK  Name = 
REMARK  5 active torsions:
REMARK  status: ('A' for Active; 'I' for Inactive)
REMARK    1  A    between atoms: C_1  and  O_2
REMARK    2  A    between atoms: O_2  and  C_3
REMARK    3  A    between atoms: C_8  and  N_9
REMARK    4  A    between atoms: C_12  and  C_13
REMARK    5  A    between atoms: C_17  and  N_18
REMARK                            x       y       z     vdW  Elec       q    Type
REMARK                         _______ _______ _______ _____ _____    ______ ____
ROOT
ATOM      1  N   UNL     1       4.351   4.372  18.635  0.00  0.00    +0.000 N 
ATOM      2  C   UNL     1       3.285   4.930  19.275  0.00  0.00    +0.000 A 
ATOM      3  N   UNL     1       2.932   6.198  19.238  0.00  0.00    +0.000 NA
ATOM      4  C   UNL     1       1.926   6.483  20.134  0.00  0.00    +0.000 A 
ATOM      5  C   UNL     1       1.440   5.387  20.812  0.00  0.00    +0.000 A 
ATOM      6  S   UNL     1       2.267   3.971  20.293  0.00  0.00    +0.000 S 
ATOM      7  H   UNL     1       4.555   3.397  18.840  0.00  0.00    +0.000 HD
ENDROOT
BRANCH   1  13
ATOM      8  C   UNL     1       5.867   5.419  17.002  0.00  0.00    +0.000 A 
ATOM      9  C   UNL     1       7.121   5.972  16.702  0.00  0.00    +0.000 A 
ATOM     10  C   UNL     1       8.029   6.268  17.715  0.00  0.00    +0.000 A 
ATOM     11  C   UNL     1       7.678   6.048  19.038  0.00  0.00    +0.000 A 
ATOM     12  C   UNL     1       6.444   5.480  19.342  0.00  0.00    +0.000 A 
ATOM     13  C   UNL     1       5.544   5.087  18.340  0.00  0.00    +0.000 A 
BRANCH   8  15
ATOM     14  C   UNL     1       5.468   4.633  14.810  0.00  0.00    +0.000 C 
ATOM     15  O   UNL     1       4.924   5.128  16.038  0.00  0.00    +0.000 OA
ENDBRANCH   8  15
ENDBRANCH   1  13
BRANCH   4  16
ATOM     16  C   UNL     1       1.436   7.847  20.278  0.00  0.00    +0.000 A 
ATOM     17  C   UNL     1       1.512   8.777  19.230  0.00  0.00    +0.000 A 
ATOM     18  C   UNL     1       1.057  10.089  19.405  0.00  0.00    +0.000 A 
ATOM     19  C   UNL     1       0.523  10.489  20.630  0.00  0.00    +0.000 A 
ATOM     20  C   UNL     1       0.420   9.558  21.671  0.00  0.00    +0.000 A 
ATOM     21  C   UNL     1       0.860   8.239  21.497  0.00  0.00    +0.000 A 
BRANCH  20  22
ATOM     22  N   UNL     1      -0.136   9.976  22.965  0.00  0.00    +0.000 N 
ATOM     23  O   UNL     1      -1.183  10.641  22.953  0.00  0.00    +0.000 OA
ATOM     24  O   UNL     1       0.475   9.648  23.991  0.00  0.00    +0.000 OA
ENDBRANCH  20  22
ENDBRANCH   4  16
TORSDOF 4
ENDMDL
