MODEL 1
REMARK VINA RESULT:      -7.8      0.000      0.000
REMARK  Name = 
REMARK  5 active torsions:
REMARK  status: ('A' for Active; 'I' for Inactive)
REMARK    1  A    between atoms: C_2  and  C_4
REMARK    2  A    between atoms: N_6  and  C_7
REMARK    3  A    between atoms: C_10  and  S_11
REMARK    4  A    between atoms: S_11  and  N_12
REMARK    5  A    between atoms: C_18  and  C_19
REMARK                            x       y       z     vdW  Elec       q    Type
REMARK                         _______ _______ _______ _____ _____    ______ ____
ROOT
ATOM      1  C   UNL     1       3.453   4.680  19.137  0.00  0.00    +0.000 A 
ATOM      2  C   UNL     1       2.615   5.418  19.948  0.00  0.00    +0.000 A 
ATOM      3  N   UNL     1       2.561   6.692  19.440  0.00  0.00    +0.000 N 
ATOM      4  N   UNL     1       3.295   6.803  18.310  0.00  0.00    +0.000 NA
ATOM      5  C   UNL     1       3.876   5.604  18.136  0.00  0.00    +0.000 A 
ENDROOT
BRANCH   5   6
ATOM      6  C   UNL     1       4.826   5.394  17.038  0.00  0.00    +0.000 A 
ATOM      7  C   UNL     1       4.553   4.470  16.019  0.00  0.00    +0.000 A 
ATOM      8  C   UNL     1       5.434   4.304  14.949  0.00  0.00    +0.000 A 
ATOM      9  C   UNL     1       6.614   5.037  14.910  0.00  0.00    +0.000 A 
ATOM     10 CL   UNL     1       7.698   4.836  13.588  0.00  0.00    +0.000 Cl
ATOM     11  C   UNL     1       6.924   5.930  15.933  0.00  0.00    +0.000 A 
ATOM     12  C   UNL     1       6.031   6.108  16.997  0.00  0.00    +0.000 A 
ENDBRANCH   5   6
BRANCH   3  13
ATOM     13  C   UNL     1       1.857   7.806  19.981  0.00  0.00    +0.000 A 
ATOM     14  C   UNL     1       1.530   8.904  19.170  0.00  0.00    +0.000 A 
ATOM     15  C   UNL     1       0.833   9.988  19.703  0.00  0.00    +0.000 A 
ATOM     16  C   UNL     1       0.462   9.978  21.049  0.00  0.00    +0.000 A 
ATOM     17  C   UNL     1       0.787   8.897  21.871  0.00  0.00    +0.000 A 
ATOM     18  C   UNL     1       1.477   7.805  21.334  0.00  0.00    +0.000 A 
BRANCH  16  19
ATOM     19  S   UNL     1      -0.381  11.383  21.714  0.00  0.00    +0.000 S 
ATOM     20  O   UNL     1      -1.492  11.724  20.856  0.00  0.00    +0.000 OA
ATOM     21  O   UNL     1      -0.525  11.216  23.141  0.00  0.00    +0.000 OA
BRANCH  19  22
ATOM     22  N   UNL     1       0.760  12.595  21.504  0.00  0.00    +0.000 NA
ATOM     23  H   UNL     1       0.294  13.468  21.257  0.00  0.00    +0.000 HD
ATOM     24  H   UNL     1       1.353  12.661  22.331  0.00  0.00    +0.000 HD
ENDBRANCH  19  22
ENDBRANCH  16  19
ENDBRANCH   3  13
BRANCH   1  26
ATOM     25  N   UNL     1       5.092   2.990  19.498  0.00  0.00    +0.000 N 
ATOM     26  C   UNL     1       3.772   3.273  19.292  0.00  0.00    +0.000 C 
ATOM     27  O   UNL     1       2.953   2.367  19.228  0.00  0.00    +0.000 OA
ATOM     28  H   UNL     1       5.348   2.013  19.555  0.00  0.00    +0.000 HD
ATOM     29  H   UNL     1       5.819   3.688  19.494  0.00  0.00    +0.000 HD
ENDBRANCH   1  26
TORSDOF 5
ENDMDL
MODEL 2
REMARK VINA RESULT:      -7.8      0.809      1.366
REMARK  Name = 
REMARK  5 active torsions:
REMARK  status: ('A' for Active; 'I' for Inactive)
REMARK    1  A    between atoms: C_2  and  C_4
REMARK    2  A    between atoms: N_6  and  C_7
REMARK    3  A    between atoms: C_10  and  S_11
REMARK    4  A    between atoms: S_11  and  N_12
REMARK    5  A    between atoms: C_18  and  C_19
REMARK                            x       y       z     vdW  Elec       q    Type
REMARK                         _______ _______ _______ _____ _____    ______ ____
ROOT
ATOM      1  C   UNL     1       3.565   4.586  18.763  0.00  0.00    +0.000 A 
ATOM      2  C   UNL     1       2.749   5.319  19.601  0.00  0.00    +0.000 A 
ATOM      3  N   UNL     1       2.705   6.603  19.120  0.00  0.00    +0.000 N 
ATOM      4  N   UNL     1       3.424   6.728  17.982  0.00  0.00    +0.000 NA
ATOM      5  C   UNL     1       3.986   5.525  17.775  0.00  0.00    +0.000 A 
ENDROOT
BRANCH   5   6
ATOM      6  C   UNL     1       4.917   5.324  16.659  0.00  0.00    +0.000 A 
ATOM      7  C   UNL     1       4.616   4.426  15.625  0.00  0.00    +0.000 A 
ATOM      8  C   UNL     1       5.479   4.271  14.538  0.00  0.00    +0.000 A 
ATOM      9  C   UNL     1       6.670   4.987  14.498  0.00  0.00    +0.000 A 
ATOM     10 CL   UNL     1       7.731   4.799  13.157  0.00  0.00    +0.000 Cl
ATOM     11  C   UNL     1       7.007   5.853  15.535  0.00  0.00    +0.000 A 
ATOM     12  C   UNL     1       6.132   6.022  16.615  0.00  0.00    +0.000 A 
ENDBRANCH   5   6
BRANCH   3  13
ATOM     13  C   UNL     1       2.025   7.715  19.693  0.00  0.00    +0.000 A 
ATOM     14  C   UNL     1       1.662   7.706  21.049  0.00  0.00    +0.000 A 
ATOM     15  C   UNL     1       1.003   8.802  21.607  0.00  0.00    +0.000 A 
ATOM     16  C   UNL     1       0.705   9.909  20.812  0.00  0.00    +0.000 A 
ATOM     17  C   UNL     1       1.052   9.931  19.459  0.00  0.00    +0.000 A 
ATOM     18  C   UNL     1       1.722   8.836  18.902  0.00  0.00    +0.000 A 
BRANCH  16  19
ATOM     19  S   UNL     1      -0.170  11.267  21.529  0.00  0.00    +0.000 S 
ATOM     20  O   UNL     1       0.725  12.393  21.669  0.00  0.00    +0.000 OA
ATOM     21  O   UNL     1      -1.466  11.380  20.902  0.00  0.00    +0.000 OA
BRANCH  19  22
ATOM     22  N   UNL     1      -0.457  10.704  23.084  0.00  0.00    +0.000 NA
ATOM     23  H   UNL     1       0.038   9.823  23.228  0.00  0.00    +0.000 HD
ATOM     24  H   UNL     1      -0.223  11.426  23.764  0.00  0.00    +0.000 HD
ENDBRANCH  19  22
ENDBRANCH  16  19
ENDBRANCH   3  13
BRANCH   1  26
ATOM     25  N   UNL     1       5.043   2.875  19.510  0.00  0.00    +0.000 N 
ATOM     26  C   UNL     1       3.867   3.172  18.884  0.00  0.00    +0.000 C 
ATOM     27  O   UNL     1       3.157   2.274  18.452  0.00  0.00    +0.000 OA
ATOM     28  H   UNL     1       5.302   1.898  19.559  0.00  0.00    +0.000 HD
ATOM     29  H   UNL     1       5.697   3.572  19.828  0.00  0.00    +0.000 HD
ENDBRANCH   1  26
TORSDOF 5
ENDMDL
MODEL 3
REMARK VINA RESULT:      -7.7      0.832      1.279
REMARK  Name = 
REMARK  5 active torsions:
REMARK  status: ('A' for Active; 'I' for Inactive)
REMARK    1  A    between atoms: C_2  and  C_4
REMARK    2  A    between atoms: N_6  and  C_7
REMARK    3  A    between atoms: C_10  and  S_11
REMARK    4  A    between atoms: S_11  and  N_12
REMARK    5  A    between atoms: C_18  and  C_19
REMARK                            x       y       z     vdW  Elec       q    Type
REMARK                         _______ _______ _______ _____ _____    ______ ____
ROOT
ATOM      1  C   UNL     1       3.409   4.628  19.214  0.00  0.00    +0.000 A 
ATOM      2  C   UNL     1       2.642   5.410  20.054  0.00  0.00    +0.000 A 
ATOM      3  N   UNL     1       2.489   6.636  19.457  0.00  0.00    +0.000 N 
ATOM      4  N   UNL     1       3.089   6.673  18.246  0.00  0.00    +0.000 NA
ATOM      5  C   UNL     1       3.687   5.478  18.102  0.00  0.00    +0.000 A 
ENDROOT
BRANCH   5   6
ATOM      6  C   UNL     1       4.515   5.202  16.923  0.00  0.00    +0.000 A 
ATOM      7  C   UNL     1       4.846   3.886  16.570  0.00  0.00    +0.000 A 
ATOM      8  C   UNL     1       5.594   3.619  15.422  0.00  0.00    +0.000 A 
ATOM      9  C   UNL     1       6.048   4.673  14.637  0.00  0.00    +0.000 A 
ATOM     10 CL   UNL     1       6.965   4.345  13.219  0.00  0.00    +0.000 Cl
ATOM     11  C   UNL     1       5.766   5.989  14.992  0.00  0.00    +0.000 A 
ATOM     12  C   UNL     1       5.000   6.254  16.135  0.00  0.00    +0.000 A 
ENDBRANCH   5   6
BRANCH   3  13
ATOM     13  C   UNL     1       1.813   7.773  19.985  0.00  0.00    +0.000 A 
ATOM     14  C   UNL     1       1.364   7.781  21.315  0.00  0.00    +0.000 A 
ATOM     15  C   UNL     1       0.709   8.900  21.829  0.00  0.00    +0.000 A 
ATOM     16  C   UNL     1       0.502  10.015  21.014  0.00  0.00    +0.000 A 
ATOM     17  C   UNL     1       0.936  10.021  19.687  0.00  0.00    +0.000 A 
ATOM     18  C   UNL     1       1.601   8.901  19.174  0.00  0.00    +0.000 A 
BRANCH  16  19
ATOM     19  S   UNL     1      -0.369  11.405  21.674  0.00  0.00    +0.000 S 
ATOM     20  O   UNL     1      -1.473  11.735  20.802  0.00  0.00    +0.000 OA
ATOM     21  O   UNL     1      -0.530  11.231  23.098  0.00  0.00    +0.000 OA
BRANCH  19  22
ATOM     22  N   UNL     1       0.759  12.634  21.484  0.00  0.00    +0.000 NA
ATOM     23  H   UNL     1       1.422  12.616  22.259  0.00  0.00    +0.000 HD
ATOM     24  H   UNL     1       1.195  12.566  20.565  0.00  0.00    +0.000 HD
ENDBRANCH  19  22
ENDBRANCH  16  19
ENDBRANCH   3  13
BRANCH   1  26
ATOM     25  N   UNL     1       2.828   2.319  19.163  0.00  0.00    +0.000 N 
ATOM     26  C   UNL     1       3.790   3.247  19.441  0.00  0.00    +0.000 C 
ATOM     27  O   UNL     1       4.879   2.892  19.872  0.00  0.00    +0.000 OA
ATOM     28  H   UNL     1       3.051   1.353  19.364  0.00  0.00    +0.000 HD
ATOM     29  H   UNL     1       1.894   2.556  18.869  0.00  0.00    +0.000 HD
ENDBRANCH   1  26
TORSDOF 5
ENDMDL
MODEL 4
REMARK VINA RESULT:      -7.7      0.467      1.370
REMARK  Name = 
REMARK  5 active torsions:
REMARK  status: ('A' for Active; 'I' for Inactive)
REMARK    1  A    between atoms: C_2  and  C_4
REMARK    2  A    between atoms: N_6  and  C_7
REMARK    3  A    between atoms: C_10  and  S_11
REMARK    4  A    between atoms: S_11  and  N_12
REMARK    5  A    between atoms: C_18  and  C_19
REMARK                            x       y       z     vdW  Elec       q    Type
REMARK                         _______ _______ _______ _____ _____    ______ ____
ROOT
ATOM      1  C   UNL     1       3.429   4.727  19.191  0.00  0.00    +0.000 A 
ATOM      2  C   UNL     1       2.669   5.499  20.045  0.00  0.00    +0.000 A 
ATOM      3  N   UNL     1       2.486   6.722  19.448  0.00  0.00    +0.000 N 
ATOM      4  N   UNL     1       3.061   6.764  18.225  0.00  0.00    +0.000 NA
ATOM      5  C   UNL     1       3.673   5.577  18.072  0.00  0.00    +0.000 A 
ENDROOT
BRANCH   5   6
ATOM      6  C   UNL     1       4.481   5.310  16.878  0.00  0.00    +0.000 A 
ATOM      7  C   UNL     1       5.140   6.350  16.208  0.00  0.00    +0.000 A 
ATOM      8  C   UNL     1       5.949   6.089  15.099  0.00  0.00    +0.000 A 
ATOM      9  C   UNL     1       6.074   4.786  14.631  0.00  0.00    +0.000 A 
ATOM     10 CL   UNL     1       7.074   4.464  13.269  0.00  0.00    +0.000 Cl
ATOM     11  C   UNL     1       5.395   3.744  15.257  0.00  0.00    +0.000 A 
ATOM     12  C   UNL     1       4.599   4.005  16.379  0.00  0.00    +0.000 A 
ENDBRANCH   5   6
BRANCH   3  13
ATOM     13  C   UNL     1       1.805   7.850  19.987  0.00  0.00    +0.000 A 
ATOM     14  C   UNL     1       1.431   7.878  21.340  0.00  0.00    +0.000 A 
ATOM     15  C   UNL     1       0.771   8.989  21.864  0.00  0.00    +0.000 A 
ATOM     16  C   UNL     1       0.484  10.077  21.038  0.00  0.00    +0.000 A 
ATOM     17  C   UNL     1       0.842  10.062  19.687  0.00  0.00    +0.000 A 
ATOM     18  C   UNL     1       1.512   8.952  19.164  0.00  0.00    +0.000 A 
BRANCH  16  19
ATOM     19  S   UNL     1      -0.393  11.456  21.713  0.00  0.00    +0.000 S 
ATOM     20  O   UNL     1      -1.497  11.793  20.844  0.00  0.00    +0.000 OA
ATOM     21  O   UNL     1      -0.555  11.263  23.134  0.00  0.00    +0.000 OA
BRANCH  19  22
ATOM     22  N   UNL     1       0.731  12.690  21.540  0.00  0.00    +0.000 NA
ATOM     23  H   UNL     1       0.709  13.294  22.362  0.00  0.00    +0.000 HD
ATOM     24  H   UNL     1       1.650  12.298  21.339  0.00  0.00    +0.000 HD
ENDBRANCH  19  22
ENDBRANCH  16  19
ENDBRANCH   3  13
BRANCH   1  26
ATOM     25  N   UNL     1       5.171   3.159  19.615  0.00  0.00    +0.000 N 
ATOM     26  C   UNL     1       3.835   3.352  19.414  0.00  0.00    +0.000 C 
ATOM     27  O   UNL     1       3.070   2.396  19.409  0.00  0.00    +0.000 OA
ATOM     28  H   UNL     1       5.486   2.203  19.719  0.00  0.00    +0.000 HD
ATOM     29  H   UNL     1       5.855   3.898  19.564  0.00  0.00    +0.000 HD
ENDBRANCH   1  26
TORSDOF 5
ENDMDL
MODEL 5
REMARK VINA RESULT:      -7.7      1.015      1.080
REMARK  Name = 
REMARK  5 active torsions:
REMARK  status: ('A' for Active; 'I' for Inactive)
REMARK    1  A    between atoms: C_2  and  C_4
REMARK    2  A    between atoms: N_6  and  C_7
REMARK    3  A    between atoms: C_10  and  S_11
REMARK    4  A    between atoms: S_11  and  N_12
REMARK    5  A    between atoms: C_18  and  C_19
REMARK                            x       y       z     vdW  Elec       q    Type
REMARK                         _______ _______ _______ _____ _____    ______ ____
ROOT
ATOM      1  C   UNL     1       3.735   4.349  18.531  0.00  0.00    +0.000 A 
ATOM      2  C   UNL     1       2.914   5.061  19.381  0.00  0.00    +0.000 A 
ATOM      3  N   UNL     1       2.834   6.345  18.904  0.00  0.00    +0.000 N 
ATOM      4  N   UNL     1       3.535   6.489  17.757  0.00  0.00    +0.000 NA
ATOM      5  C   UNL     1       4.121   5.299  17.539  0.00  0.00    +0.000 A 
ENDROOT
BRANCH   5   6
ATOM      6  C   UNL     1       5.041   5.122  16.411  0.00  0.00    +0.000 A 
ATOM      7  C   UNL     1       4.661   4.381  15.283  0.00  0.00    +0.000 A 
ATOM      8  C   UNL     1       5.519   4.252  14.188  0.00  0.00    +0.000 A 
ATOM      9  C   UNL     1       6.780   4.836  14.231  0.00  0.00    +0.000 A 
ATOM     10 CL   UNL     1       7.835   4.682  12.880  0.00  0.00    +0.000 Cl
ATOM     11  C   UNL     1       7.193   5.541  15.358  0.00  0.00    +0.000 A 
ATOM     12  C   UNL     1       6.325   5.684  16.448  0.00  0.00    +0.000 A 
ENDBRANCH   5   6
BRANCH   3  13
ATOM     13  C   UNL     1       2.136   7.440  19.489  0.00  0.00    +0.000 A 
ATOM     14  C   UNL     1       1.813   8.571  18.723  0.00  0.00    +0.000 A 
ATOM     15  C   UNL     1       1.123   9.637  19.300  0.00  0.00    +0.000 A 
ATOM     16  C   UNL     1       0.752   9.575  20.644  0.00  0.00    +0.000 A 
ATOM     17  C   UNL     1       1.073   8.460  21.423  0.00  0.00    +0.000 A 
ATOM     18  C   UNL     1       1.757   7.387  20.841  0.00  0.00    +0.000 A 
BRANCH  16  19
ATOM     19  S   UNL     1      -0.083  10.956  21.365  0.00  0.00    +0.000 S 
ATOM     20  O   UNL     1      -0.897  10.499  22.469  0.00  0.00    +0.000 OA
ATOM     21  O   UNL     1       0.842  12.058  21.488  0.00  0.00    +0.000 OA
BRANCH  19  22
ATOM     22  N   UNL     1      -1.151  11.383  20.144  0.00  0.00    +0.000 NA
ATOM     23  H   UNL     1      -0.926  10.868  19.292  0.00  0.00    +0.000 HD
ATOM     24  H   UNL     1      -2.111  11.256  20.462  0.00  0.00    +0.000 HD
ENDBRANCH  19  22
ENDBRANCH  16  19
ENDBRANCH   3  13
BRANCH   1  26
ATOM     25  N   UNL     1       4.970   2.630  19.623  0.00  0.00    +0.000 N 
ATOM     26  C   UNL     1       4.070   2.942  18.644  0.00  0.00    +0.000 C 
ATOM     27  O   UNL     1       3.620   2.063  17.922  0.00  0.00    +0.000 OA
ATOM     28  H   UNL     1       5.261   1.663  19.687  0.00  0.00    +0.000 HD
ATOM     29  H   UNL     1       5.422   3.318  20.203  0.00  0.00    +0.000 HD
ENDBRANCH   1  26
TORSDOF 5
ENDMDL
MODEL 6
REMARK VINA RESULT:      -7.6      4.134      8.461
REMARK  Name = 
REMARK  5 active torsions:
REMARK  status: ('A' for Active; 'I' for Inactive)
REMARK    1  A    between atoms: C_2  and  C_4
REMARK    2  A    between atoms: N_6  and  C_7
REMARK    3  A    between atoms: C_10  and  S_11
REMARK    4  A    between atoms: S_11  and  N_12
REMARK    5  A    between atoms: C_18  and  C_19
REMARK                            x       y       z     vdW  Elec       q    Type
REMARK                         _______ _______ _______ _____ _____    ______ ____
ROOT
ATOM      1  C   UNL     1       0.476   9.661  21.473  0.00  0.00    +0.000 A 
ATOM      2  C   UNL     1       0.932   8.363  21.374  0.00  0.00    +0.000 A 
ATOM      3  N   UNL     1       1.564   8.235  20.163  0.00  0.00    +0.000 N 
ATOM      4  N   UNL     1       1.574   9.406  19.487  0.00  0.00    +0.000 NA
ATOM      5  C   UNL     1       0.882  10.270  20.248  0.00  0.00    +0.000 A 
ENDROOT
BRANCH   5   6
ATOM      6  C   UNL     1       0.617  11.631  19.771  0.00  0.00    +0.000 A 
ATOM      7  C   UNL     1      -0.494  11.904  18.961  0.00  0.00    +0.000 A 
ATOM      8  C   UNL     1      -0.774  13.208  18.545  0.00  0.00    +0.000 A 
ATOM      9  C   UNL     1       0.079  14.244  18.910  0.00  0.00    +0.000 A 
ATOM     10 CL   UNL     1      -0.269  15.851  18.403  0.00  0.00    +0.000 Cl
ATOM     11  C   UNL     1       1.211  13.987  19.680  0.00  0.00    +0.000 A 
ATOM     12  C   UNL     1       1.480  12.682  20.110  0.00  0.00    +0.000 A 
ENDBRANCH   5   6
BRANCH   3  13
ATOM     13  C   UNL     1       2.146   7.057  19.614  0.00  0.00    +0.000 A 
ATOM     14  C   UNL     1       2.037   5.829  20.286  0.00  0.00    +0.000 A 
ATOM     15  C   UNL     1       2.602   4.677  19.740  0.00  0.00    +0.000 A 
ATOM     16  C   UNL     1       3.277   4.748  18.520  0.00  0.00    +0.000 A 
ATOM     17  C   UNL     1       3.402   5.963  17.842  0.00  0.00    +0.000 A 
ATOM     18  C   UNL     1       2.826   7.117  18.386  0.00  0.00    +0.000 A 
BRANCH  16  19
ATOM     19  S   UNL     1       4.024   3.284  17.869  0.00  0.00    +0.000 S 
ATOM     20  O   UNL     1       3.053   2.213  17.867  0.00  0.00    +0.000 OA
ATOM     21  O   UNL     1       4.801   3.627  16.702  0.00  0.00    +0.000 OA
BRANCH  19  22
ATOM     22  N   UNL     1       5.134   2.905  19.069  0.00  0.00    +0.000 NA
ATOM     23  H   UNL     1       5.190   1.893  19.180  0.00  0.00    +0.000 HD
ATOM     24  H   UNL     1       6.029   3.349  18.865  0.00  0.00    +0.000 HD
ENDBRANCH  19  22
ENDBRANCH  16  19
ENDBRANCH   3  13
BRANCH   1  26
ATOM     25  N   UNL     1      -0.836   9.342  23.436  0.00  0.00    +0.000 N 
ATOM     26  C   UNL     1      -0.225  10.238  22.605  0.00  0.00    +0.000 C 
ATOM     27  O   UNL     1      -0.307  11.438  22.829  0.00  0.00    +0.000 OA
ATOM     28  H   UNL     1      -1.376   9.722  24.202  0.00  0.00    +0.000 HD
ATOM     29  H   UNL     1      -0.857   8.349  23.265  0.00  0.00    +0.000 HD
ENDBRANCH   1  26
TORSDOF 5
ENDMDL
MODEL 7
REMARK VINA RESULT:      -7.5      1.371      1.815
REMARK  Name = 
REMARK  5 active torsions:
REMARK  status: ('A' for Active; 'I' for Inactive)
REMARK    1  A    between atoms: C_2  and  C_4
REMARK    2  A    between atoms: N_6  and  C_7
REMARK    3  A    between atoms: C_10  and  S_11
REMARK    4  A    between atoms: S_11  and  N_12
REMARK    5  A    between atoms: C_18  and  C_19
REMARK                            x       y       z     vdW  Elec       q    Type
REMARK                         _______ _______ _______ _____ _____    ______ ____
ROOT
ATOM      1  C   UNL     1       2.519   5.031  19.728  0.00  0.00    +0.000 A 
ATOM      2  C   UNL     1       1.792   5.895  20.521  0.00  0.00    +0.000 A 
ATOM      3  N   UNL     1       1.872   7.144  19.957  0.00  0.00    +0.000 N 
ATOM      4  N   UNL     1       2.587   7.122  18.810  0.00  0.00    +0.000 NA
ATOM      5  C   UNL     1       3.022   5.857  18.679  0.00  0.00    +0.000 A 
ENDROOT
BRANCH   5   6
ATOM      6  C   UNL     1       3.914   5.492  17.574  0.00  0.00    +0.000 A 
ATOM      7  C   UNL     1       4.041   4.156  17.165  0.00  0.00    +0.000 A 
ATOM      8  C   UNL     1       4.853   3.814  16.081  0.00  0.00    +0.000 A 
ATOM      9  C   UNL     1       5.574   4.803  15.423  0.00  0.00    +0.000 A 
ATOM     10 CL   UNL     1       6.571   4.383  14.085  0.00  0.00    +0.000 Cl
ATOM     11  C   UNL     1       5.494   6.130  15.839  0.00  0.00    +0.000 A 
ATOM     12  C   UNL     1       4.665   6.474  16.914  0.00  0.00    +0.000 A 
ENDBRANCH   5   6
BRANCH   3  13
ATOM     13  C   UNL     1       1.315   8.354  20.461  0.00  0.00    +0.000 A 
ATOM     14  C   UNL     1       1.035   8.494  21.829  0.00  0.00    +0.000 A 
ATOM     15  C   UNL     1       0.496   9.685  22.318  0.00  0.00    +0.000 A 
ATOM     16  C   UNL     1       0.236  10.738  21.440  0.00  0.00    +0.000 A 
ATOM     17  C   UNL     1       0.501  10.612  20.075  0.00  0.00    +0.000 A 
ATOM     18  C   UNL     1       1.051   9.422  19.586  0.00  0.00    +0.000 A 
BRANCH  16  19
ATOM     19  S   UNL     1      -0.487  12.221  22.075  0.00  0.00    +0.000 S 
ATOM     20  O   UNL     1      -1.138  11.935  23.333  0.00  0.00    +0.000 OA
ATOM     21  O   UNL     1       0.447  13.310  21.915  0.00  0.00    +0.000 OA
BRANCH  19  22
ATOM     22  N   UNL     1      -1.716  12.501  20.967  0.00  0.00    +0.000 NA
ATOM     23  H   UNL     1      -2.572  12.041  21.278  0.00  0.00    +0.000 HD
ATOM     24  H   UNL     1      -1.820  13.503  20.809  0.00  0.00    +0.000 HD
ENDBRANCH  19  22
ENDBRANCH  16  19
ENDBRANCH   3  13
BRANCH   1  26
ATOM     25  N   UNL     1       1.613   2.834  19.570  0.00  0.00    +0.000 N 
ATOM     26  C   UNL     1       2.678   3.605  19.939  0.00  0.00    +0.000 C 
ATOM     27  O   UNL     1       3.671   3.085  20.431  0.00  0.00    +0.000 OA
ATOM     28  H   UNL     1       1.678   1.842  19.757  0.00  0.00    +0.000 HD
ATOM     29  H   UNL     1       0.746   3.212  19.222  0.00  0.00    +0.000 HD
ENDBRANCH   1  26
TORSDOF 5
ENDMDL
MODEL 8
REMARK VINA RESULT:      -7.5      1.254      1.362
REMARK  Name = 
REMARK  5 active torsions:
REMARK  status: ('A' for Active; 'I' for Inactive)
REMARK    1  A    between atoms: C_2  and  C_4
REMARK    2  A    between atoms: N_6  and  C_7
REMARK    3  A    between atoms: C_10  and  S_11
REMARK    4  A    between atoms: S_11  and  N_12
REMARK    5  A    between atoms: C_18  and  C_19
REMARK                            x       y       z     vdW  Elec       q    Type
REMARK                         _______ _______ _______ _____ _____    ______ ____
ROOT
ATOM      1  C   UNL     1       2.799   4.898  19.563  0.00  0.00    +0.000 A 
ATOM      2  C   UNL     1       2.058   5.729  20.377  0.00  0.00    +0.000 A 
ATOM      3  N   UNL     1       2.064   6.979  19.810  0.00  0.00    +0.000 N 
ATOM      4  N   UNL     1       2.743   6.987  18.641  0.00  0.00    +0.000 NA
ATOM      5  C   UNL     1       3.231   5.743  18.498  0.00  0.00    +0.000 A 
ENDROOT
BRANCH   5   6
ATOM      6  C   UNL     1       4.104   5.416  17.365  0.00  0.00    +0.000 A 
ATOM      7  C   UNL     1       4.274   4.088  16.950  0.00  0.00    +0.000 A 
ATOM      8  C   UNL     1       5.067   3.781  15.842  0.00  0.00    +0.000 A 
ATOM      9  C   UNL     1       5.726   4.800  15.164  0.00  0.00    +0.000 A 
ATOM     10 CL   UNL     1       6.699   4.422  13.796  0.00  0.00    +0.000 Cl
ATOM     11  C   UNL     1       5.602   6.122  15.585  0.00  0.00    +0.000 A 
ATOM     12  C   UNL     1       4.793   6.430  16.685  0.00  0.00    +0.000 A 
ENDBRANCH   5   6
BRANCH   3  13
ATOM     13  C   UNL     1       1.468   8.163  20.330  0.00  0.00    +0.000 A 
ATOM     14  C   UNL     1       1.210   9.259  19.492  0.00  0.00    +0.000 A 
ATOM     15  C   UNL     1       0.619  10.414  20.005  0.00  0.00    +0.000 A 
ATOM     16  C   UNL     1       0.282  10.476  21.358  0.00  0.00    +0.000 A 
ATOM     17  C   UNL     1       0.539   9.397  22.208  0.00  0.00    +0.000 A 
ATOM     18  C   UNL     1       1.123   8.236  21.691  0.00  0.00    +0.000 A 
BRANCH  16  19
ATOM     19  S   UNL     1      -0.425  11.965  21.996  0.00  0.00    +0.000 S 
ATOM     20  O   UNL     1      -1.016  11.698  23.287  0.00  0.00    +0.000 OA
ATOM     21  O   UNL     1       0.491  13.058  21.773  0.00  0.00    +0.000 OA
BRANCH  19  22
ATOM     22  N   UNL     1      -1.705  12.212  20.939  0.00  0.00    +0.000 NA
ATOM     23  H   UNL     1      -1.360  12.241  19.980  0.00  0.00    +0.000 HD
ATOM     24  H   UNL     1      -2.428  11.510  21.098  0.00  0.00    +0.000 HD
ENDBRANCH  19  22
ENDBRANCH  16  19
ENDBRANCH   3  13
BRANCH   1  26
ATOM     25  N   UNL     1       1.960   2.669  19.523  0.00  0.00    +0.000 N 
ATOM     26  C   UNL     1       3.030   3.481  19.770  0.00  0.00    +0.000 C 
ATOM     27  O   UNL     1       4.086   3.001  20.160  0.00  0.00    +0.000 OA
ATOM     28  H   UNL     1       2.079   1.682  19.711  0.00  0.00    +0.000 HD
ATOM     29  H   UNL     1       1.048   3.013  19.264  0.00  0.00    +0.000 HD
ENDBRANCH   1  26
TORSDOF 5
ENDMDL
MODEL 9
REMARK VINA RESULT:      -7.5      0.839      1.244
REMARK  Name = 
REMARK  5 active torsions:
REMARK  status: ('A' for Active; 'I' for Inactive)
REMARK    1  A    between atoms: C_2  and  C_4
REMARK    2  A    between atoms: N_6  and  C_7
REMARK    3  A    between atoms: C_10  and  S_11
REMARK    4  A    between atoms: S_11  and  N_12
REMARK    5  A    between atoms: C_18  and  C_19
REMARK                            x       y       z     vdW  Elec       q    Type
REMARK                         _______ _______ _______ _____ _____    ______ ____
ROOT
ATOM      1  C   UNL     1       3.403   4.713  19.172  0.00  0.00    +0.000 A 
ATOM      2  C   UNL     1       2.638   5.481  20.026  0.00  0.00    +0.000 A 
ATOM      3  N   UNL     1       2.480   6.715  19.447  0.00  0.00    +0.000 N 
ATOM      4  N   UNL     1       3.075   6.770  18.234  0.00  0.00    +0.000 NA
ATOM      5  C   UNL     1       3.676   5.579  18.071  0.00  0.00    +0.000 A 
ENDROOT
BRANCH   5   6
ATOM      6  C   UNL     1       4.500   5.321  16.886  0.00  0.00    +0.000 A 
ATOM      7  C   UNL     1       5.071   6.379  16.164  0.00  0.00    +0.000 A 
ATOM      8  C   UNL     1       5.896   6.132  15.064  0.00  0.00    +0.000 A 
ATOM      9  C   UNL     1       6.126   4.822  14.658  0.00  0.00    +0.000 A 
ATOM     10 CL   UNL     1       7.146   4.517  13.306  0.00  0.00    +0.000 Cl
ATOM     11  C   UNL     1       5.536   3.759  15.336  0.00  0.00    +0.000 A 
ATOM     12  C   UNL     1       4.723   4.008  16.450  0.00  0.00    +0.000 A 
ENDBRANCH   5   6
BRANCH   3  13
ATOM     13  C   UNL     1       1.803   7.843  19.993  0.00  0.00    +0.000 A 
ATOM     14  C   UNL     1       1.494   8.948  19.186  0.00  0.00    +0.000 A 
ATOM     15  C   UNL     1       0.824  10.047  19.724  0.00  0.00    +0.000 A 
ATOM     16  C   UNL     1       0.460  10.043  21.072  0.00  0.00    +0.000 A 
ATOM     17  C   UNL     1       0.767   8.954  21.891  0.00  0.00    +0.000 A 
ATOM     18  C   UNL     1       1.430   7.848  21.348  0.00  0.00    +0.000 A 
BRANCH  16  19
ATOM     19  S   UNL     1      -0.349  11.464  21.744  0.00  0.00    +0.000 S 
ATOM     20  O   UNL     1      -1.081  11.081  22.930  0.00  0.00    +0.000 OA
ATOM     21  O   UNL     1       0.564  12.582  21.723  0.00  0.00    +0.000 OA
BRANCH  19  22
ATOM     22  N   UNL     1      -1.501  11.787  20.568  0.00  0.00    +0.000 NA
ATOM     23  H   UNL     1      -1.339  12.712  20.171  0.00  0.00    +0.000 HD
ATOM     24  H   UNL     1      -1.512  11.037  19.877  0.00  0.00    +0.000 HD
ENDBRANCH  19  22
ENDBRANCH  16  19
ENDBRANCH   3  13
BRANCH   1  26
ATOM     25  N   UNL     1       5.105   3.125  19.676  0.00  0.00    +0.000 N 
ATOM     26  C   UNL     1       3.788   3.330  19.379  0.00  0.00    +0.000 C 
ATOM     27  O   UNL     1       3.025   2.378  19.282  0.00  0.00    +0.000 OA
ATOM     28  H   UNL     1       5.410   2.165  19.771  0.00  0.00    +0.000 HD
ATOM     29  H   UNL     1       5.791   3.863  19.704  0.00  0.00    +0.000 HD
ENDBRANCH   1  26
TORSDOF 5
ENDMDL
