MODEL 1
REMARK VINA RESULT:      -8.1      0.000      0.000
REMARK  Name = 
REMARK  4 active torsions:
REMARK  status: ('A' for Active; 'I' for Inactive)
REMARK    1  A    between atoms: C_2  and  C_3
REMARK    2  A    between atoms: C_3  and  C_4
REMARK    3  A    between atoms: C_4  and  C_5
REMARK    4  A    between atoms: N_17  and  C_18
REMARK                            x       y       z     vdW  Elec       q    Type
REMARK                         _______ _______ _______ _____ _____    ______ ____
ROOT
ATOM      1  C   UNL     1       6.953   6.241  17.646  0.00  0.00    +0.000 C 
ENDROOT
BRANCH   1   2
ATOM      2  C   UNL     1       6.013   5.405  18.500  0.00  0.00    +0.000 C 
ATOM      3  O   UNL     1       6.508   4.647  19.335  0.00  0.00    +0.000 OA
ATOM      4  N   UNL     1       4.634   5.633  18.356  0.00  0.00    +0.000 N 
ATOM      5  C   UNL     1       4.033   6.531  17.358  0.00  0.00    +0.000 C 
ATOM      6  C   UNL     1       3.425   7.765  17.992  0.00  0.00    +0.000 C 
ATOM      7  S   UNL     1       2.001   7.328  19.024  0.00  0.00    +0.000 S 
ATOM      8  C   UNL     1       2.471   5.685  19.582  0.00  0.00    +0.000 A 
ATOM      9  C   UNL     1       1.549   5.064  20.443  0.00  0.00    +0.000 A 
ATOM     10  C   UNL     1       1.793   3.793  20.957  0.00  0.00    +0.000 A 
ATOM     11  C   UNL     1       2.964   3.131  20.619  0.00  0.00    +0.000 A 
ATOM     12  C   UNL     1       3.898   3.742  19.778  0.00  0.00    +0.000 A 
ATOM     13  C   UNL     1       3.676   5.023  19.246  0.00  0.00    +0.000 A 
ENDBRANCH   1   2
BRANCH   1  14
ATOM     14  C   UNL     1       8.091   6.839  18.475  0.00  0.00    +0.000 C 
BRANCH  14  16
ATOM     15  O   UNL     1       7.551   8.896  17.369  0.00  0.00    +0.000 OA
ATOM     16  C   UNL     1       8.184   8.336  18.258  0.00  0.00    +0.000 C 
ATOM     17  N   UNL     1       9.066   8.940  19.141  0.00  0.00    +0.000 N 
ATOM     18  H   UNL     1       9.647   8.327  19.699  0.00  0.00    +0.000 HD
BRANCH  17  19
ATOM     19  C   UNL     1       9.334  10.324  19.232  0.00  0.00    +0.000 A 
ATOM     20  C   UNL     1       9.263  11.045  20.429  0.00  0.00    +0.000 A 
ATOM     21  C   UNL     1       9.509  12.420  20.456  0.00  0.00    +0.000 A 
ATOM     22  C   UNL     1       9.832  13.091  19.280  0.00  0.00    +0.000 A 
ATOM     23  C   UNL     1       9.929  12.370  18.095  0.00  0.00    +0.000 A 
ATOM     24  F   UNL     1      10.243  13.011  16.962  0.00  0.00    +0.000 F 
ATOM     25  C   UNL     1       9.697  10.996  18.062  0.00  0.00    +0.000 A 
ENDBRANCH  17  19
ENDBRANCH  14  16
ENDBRANCH   1  14
TORSDOF 4
ENDMDL
MODEL 2
REMARK VINA RESULT:      -8.0      1.526      1.836
REMARK  Name = 
REMARK  4 active torsions:
REMARK  status: ('A' for Active; 'I' for Inactive)
REMARK    1  A    between atoms: C_2  and  C_3
REMARK    2  A    between atoms: C_3  and  C_4
REMARK    3  A    between atoms: C_4  and  C_5
REMARK    4  A    between atoms: N_17  and  C_18
REMARK                            x       y       z     vdW  Elec       q    Type
REMARK                         _______ _______ _______ _____ _____    ______ ____
ROOT
ATOM      1  C   UNL     1       7.364   6.363  17.210  0.00  0.00    +0.000 C 
ENDROOT
BRANCH   1   2
ATOM      2  C   UNL     1       6.373   5.266  17.563  0.00  0.00    +0.000 C 
ATOM      3  O   UNL     1       6.802   4.255  18.119  0.00  0.00    +0.000 OA
ATOM      4  N   UNL     1       5.012   5.525  17.330  0.00  0.00    +0.000 N 
ATOM      5  C   UNL     1       4.490   6.726  16.661  0.00  0.00    +0.000 C 
ATOM      6  C   UNL     1       3.744   7.634  17.616  0.00  0.00    +0.000 C 
ATOM      7  S   UNL     1       2.230   6.838  18.214  0.00  0.00    +0.000 S 
ATOM      8  C   UNL     1       2.715   5.108  18.188  0.00  0.00    +0.000 A 
ATOM      9  C   UNL     1       1.730   4.208  18.629  0.00  0.00    +0.000 A 
ATOM     10  C   UNL     1       1.977   2.837  18.668  0.00  0.00    +0.000 A 
ATOM     11  C   UNL     1       3.215   2.354  18.271  0.00  0.00    +0.000 A 
ATOM     12  C   UNL     1       4.210   3.238  17.846  0.00  0.00    +0.000 A 
ATOM     13  C   UNL     1       3.986   4.624  17.797  0.00  0.00    +0.000 A 
ENDBRANCH   1   2
BRANCH   1  14
ATOM     14  C   UNL     1       7.996   6.981  18.459  0.00  0.00    +0.000 C 
BRANCH  14  16
ATOM     15  O   UNL     1       7.504   9.105  17.464  0.00  0.00    +0.000 OA
ATOM     16  C   UNL     1       8.148   8.479  18.299  0.00  0.00    +0.000 C 
ATOM     17  N   UNL     1       9.095   9.006  19.164  0.00  0.00    +0.000 N 
ATOM     18  H   UNL     1       9.672   8.345  19.670  0.00  0.00    +0.000 HD
BRANCH  17  19
ATOM     19  C   UNL     1       9.432  10.371  19.299  0.00  0.00    +0.000 A 
ATOM     20  C   UNL     1       9.757  11.195  18.215  0.00  0.00    +0.000 A 
ATOM     21  C   UNL     1      10.113  12.532  18.409  0.00  0.00    +0.000 A 
ATOM     22  C   UNL     1      10.144  13.062  19.696  0.00  0.00    +0.000 A 
ATOM     23  C   UNL     1       9.795  12.252  20.770  0.00  0.00    +0.000 A 
ATOM     24  F   UNL     1       9.821  12.759  22.009  0.00  0.00    +0.000 F 
ATOM     25  C   UNL     1       9.427  10.920  20.583  0.00  0.00    +0.000 A 
ENDBRANCH  17  19
ENDBRANCH  14  16
ENDBRANCH   1  14
TORSDOF 4
ENDMDL
MODEL 3
REMARK VINA RESULT:      -7.9      1.044      1.377
REMARK  Name = 
REMARK  4 active torsions:
REMARK  status: ('A' for Active; 'I' for Inactive)
REMARK    1  A    between atoms: C_2  and  C_3
REMARK    2  A    between atoms: C_3  and  C_4
REMARK    3  A    between atoms: C_4  and  C_5
REMARK    4  A    between atoms: N_17  and  C_18
REMARK                            x       y       z     vdW  Elec       q    Type
REMARK                         _______ _______ _______ _____ _____    ______ ____
ROOT
ATOM      1  C   UNL     1       6.995   5.563  17.618  0.00  0.00    +0.000 C 
ENDROOT
BRANCH   1   2
ATOM      2  C   UNL     1       5.887   4.910  18.428  0.00  0.00    +0.000 C 
ATOM      3  O   UNL     1       6.205   4.080  19.281  0.00  0.00    +0.000 OA
ATOM      4  N   UNL     1       4.578   5.375  18.225  0.00  0.00    +0.000 N 
ATOM      5  C   UNL     1       4.188   6.361  17.204  0.00  0.00    +0.000 C 
ATOM      6  C   UNL     1       3.779   7.686  17.815  0.00  0.00    +0.000 C 
ATOM      7  S   UNL     1       2.257   7.509  18.782  0.00  0.00    +0.000 S 
ATOM      8  C   UNL     1       2.406   5.812  19.355  0.00  0.00    +0.000 A 
ATOM      9  C   UNL     1       1.353   5.367  20.172  0.00  0.00    +0.000 A 
ATOM     10  C   UNL     1       1.346   4.075  20.693  0.00  0.00    +0.000 A 
ATOM     11  C   UNL     1       2.397   3.216  20.405  0.00  0.00    +0.000 A 
ATOM     12  C   UNL     1       3.459   3.650  19.607  0.00  0.00    +0.000 A 
ATOM     13  C   UNL     1       3.489   4.948  19.070  0.00  0.00    +0.000 A 
ENDBRANCH   1   2
BRANCH   1  14
ATOM     14  C   UNL     1       7.989   6.307  18.514  0.00  0.00    +0.000 C 
BRANCH  14  16
ATOM     15  O   UNL     1       7.648   8.162  17.034  0.00  0.00    +0.000 OA
ATOM     16  C   UNL     1       8.098   7.761  18.102  0.00  0.00    +0.000 C 
ATOM     17  N   UNL     1       8.775   8.523  19.042  0.00  0.00    +0.000 N 
ATOM     18  H   UNL     1       9.242   8.022  19.788  0.00  0.00    +0.000 HD
BRANCH  17  19
ATOM     19  C   UNL     1       8.997   9.917  18.980  0.00  0.00    +0.000 A 
ATOM     20  C   UNL     1       8.662  10.701  17.870  0.00  0.00    +0.000 A 
ATOM     21  C   UNL     1       8.933  12.072  17.850  0.00  0.00    +0.000 A 
ATOM     22  C   UNL     1       9.542  12.675  18.947  0.00  0.00    +0.000 A 
ATOM     23  C   UNL     1       9.849  11.901  20.060  0.00  0.00    +0.000 A 
ATOM     24  F   UNL     1      10.432  12.479  21.119  0.00  0.00    +0.000 F 
ATOM     25  C   UNL     1       9.571  10.535  20.093  0.00  0.00    +0.000 A 
ENDBRANCH  17  19
ENDBRANCH  14  16
ENDBRANCH   1  14
TORSDOF 4
ENDMDL
MODEL 4
REMARK VINA RESULT:      -7.9      3.900      9.341
REMARK  Name = 
REMARK  4 active torsions:
REMARK  status: ('A' for Active; 'I' for Inactive)
REMARK    1  A    between atoms: C_2  and  C_3
REMARK    2  A    between atoms: C_3  and  C_4
REMARK    3  A    between atoms: C_4  and  C_5
REMARK    4  A    between atoms: N_17  and  C_18
REMARK                            x       y       z     vdW  Elec       q    Type
REMARK                         _______ _______ _______ _____ _____    ______ ____
ROOT
ATOM      1  C   UNL     1       9.134   9.766  19.123  0.00  0.00    +0.000 C 
ENDROOT
BRANCH   1   2
ATOM      2  C   UNL     1       9.946  11.034  18.911  0.00  0.00    +0.000 C 
ATOM      3  O   UNL     1      10.316  11.301  17.767  0.00  0.00    +0.000 OA
ATOM      4  N   UNL     1      10.128  11.877  20.020  0.00  0.00    +0.000 N 
ATOM      5  C   UNL     1       9.695  11.564  21.390  0.00  0.00    +0.000 C 
ATOM      6  C   UNL     1       8.544  12.440  21.841  0.00  0.00    +0.000 C 
ATOM      7  S   UNL     1       9.066  14.169  21.987  0.00  0.00    +0.000 S 
ATOM      8  C   UNL     1      10.338  14.255  20.719  0.00  0.00    +0.000 A 
ATOM      9  C   UNL     1      10.942  15.515  20.568  0.00  0.00    +0.000 A 
ATOM     10  C   UNL     1      11.937  15.723  19.615  0.00  0.00    +0.000 A 
ATOM     11  C   UNL     1      12.333  14.674  18.799  0.00  0.00    +0.000 A 
ATOM     12  C   UNL     1      11.729  13.420  18.927  0.00  0.00    +0.000 A 
ATOM     13  C   UNL     1      10.724  13.184  19.879  0.00  0.00    +0.000 A 
ENDBRANCH   1   2
BRANCH   1  14
ATOM     14  C   UNL     1       8.297   9.417  17.890  0.00  0.00    +0.000 C 
BRANCH  14  16
ATOM     15  O   UNL     1       8.330   7.178  18.745  0.00  0.00    +0.000 OA
ATOM     16  C   UNL     1       7.860   7.967  17.932  0.00  0.00    +0.000 C 
ATOM     17  N   UNL     1       6.928   7.671  16.950  0.00  0.00    +0.000 N 
ATOM     18  H   UNL     1       6.769   8.378  16.241  0.00  0.00    +0.000 HD
BRANCH  17  19
ATOM     19  C   UNL     1       6.287   6.427  16.757  0.00  0.00    +0.000 A 
ATOM     20  C   UNL     1       6.879   5.351  16.085  0.00  0.00    +0.000 A 
ATOM     21  C   UNL     1       6.187   4.153  15.897  0.00  0.00    +0.000 A 
ATOM     22  C   UNL     1       4.889   4.016  16.383  0.00  0.00    +0.000 A 
ATOM     23  C   UNL     1       4.311   5.074  17.074  0.00  0.00    +0.000 A 
ATOM     24  F   UNL     1       3.065   4.946  17.547  0.00  0.00    +0.000 F 
ATOM     25  C   UNL     1       5.000   6.270  17.277  0.00  0.00    +0.000 A 
ENDBRANCH  17  19
ENDBRANCH  14  16
ENDBRANCH   1  14
TORSDOF 4
ENDMDL
MODEL 5
REMARK VINA RESULT:      -7.8      5.709      8.601
REMARK  Name = 
REMARK  4 active torsions:
REMARK  status: ('A' for Active; 'I' for Inactive)
REMARK    1  A    between atoms: C_2  and  C_3
REMARK    2  A    between atoms: C_3  and  C_4
REMARK    3  A    between atoms: C_4  and  C_5
REMARK    4  A    between atoms: N_17  and  C_18
REMARK                            x       y       z     vdW  Elec       q    Type
REMARK                         _______ _______ _______ _____ _____    ______ ____
ROOT
ATOM      1  C   UNL     1       1.586   8.687  17.891  0.00  0.00    +0.000 C 
ENDROOT
BRANCH   1   2
ATOM      2  C   UNL     1       1.103   8.996  19.298  0.00  0.00    +0.000 C 
ATOM      3  O   UNL     1       1.778   8.589  20.245  0.00  0.00    +0.000 OA
ATOM      4  N   UNL     1      -0.026   9.821  19.427  0.00  0.00    +0.000 N 
ATOM      5  C   UNL     1      -0.842  10.307  18.304  0.00  0.00    +0.000 C 
ATOM      6  C   UNL     1      -0.687  11.798  18.087  0.00  0.00    +0.000 C 
ATOM      7  S   UNL     1      -1.366  12.729  19.486  0.00  0.00    +0.000 S 
ATOM      8  C   UNL     1      -1.074  11.581  20.838  0.00  0.00    +0.000 A 
ATOM      9  C   UNL     1      -1.488  12.035  22.102  0.00  0.00    +0.000 A 
ATOM     10  C   UNL     1      -1.313  11.250  23.239  0.00  0.00    +0.000 A 
ATOM     11  C   UNL     1      -0.717  10.002  23.124  0.00  0.00    +0.000 A 
ATOM     12  C   UNL     1      -0.286   9.544  21.875  0.00  0.00    +0.000 A 
ATOM     13  C   UNL     1      -0.450  10.317  20.714  0.00  0.00    +0.000 A 
ENDBRANCH   1   2
BRANCH   1  14
ATOM     14  C   UNL     1       3.075   8.332  17.867  0.00  0.00    +0.000 C 
BRANCH  14  16
ATOM     15  O   UNL     1       4.332   6.304  17.644  0.00  0.00    +0.000 OA
ATOM     16  C   UNL     1       3.270   6.833  17.956  0.00  0.00    +0.000 C 
ATOM     17  N   UNL     1       2.125   6.179  18.385  0.00  0.00    +0.000 N 
ATOM     18  H   UNL     1       1.275   6.727  18.433  0.00  0.00    +0.000 HD
BRANCH  17  19
ATOM     19  C   UNL     1       1.998   4.792  18.620  0.00  0.00    +0.000 A 
ATOM     20  C   UNL     1       2.288   3.817  17.659  0.00  0.00    +0.000 A 
ATOM     21  C   UNL     1       2.115   2.459  17.937  0.00  0.00    +0.000 A 
ATOM     22  C   UNL     1       1.648   2.060  19.186  0.00  0.00    +0.000 A 
ATOM     23  C   UNL     1       1.385   3.026  20.149  0.00  0.00    +0.000 A 
ATOM     24  F   UNL     1       0.938   2.646  21.354  0.00  0.00    +0.000 F 
ATOM     25  C   UNL     1       1.567   4.383  19.885  0.00  0.00    +0.000 A 
ENDBRANCH  17  19
ENDBRANCH  14  16
ENDBRANCH   1  14
TORSDOF 4
ENDMDL
MODEL 6
REMARK VINA RESULT:      -7.8      4.048      5.775
REMARK  Name = 
REMARK  4 active torsions:
REMARK  status: ('A' for Active; 'I' for Inactive)
REMARK    1  A    between atoms: C_2  and  C_3
REMARK    2  A    between atoms: C_3  and  C_4
REMARK    3  A    between atoms: C_4  and  C_5
REMARK    4  A    between atoms: N_17  and  C_18
REMARK                            x       y       z     vdW  Elec       q    Type
REMARK                         _______ _______ _______ _____ _____    ______ ____
ROOT
ATOM      1  C   UNL     1       6.429   5.985  19.207  0.00  0.00    +0.000 C 
ENDROOT
BRANCH   1   2
ATOM      2  C   UNL     1       5.519   4.797  18.939  0.00  0.00    +0.000 C 
ATOM      3  O   UNL     1       6.029   3.677  18.884  0.00  0.00    +0.000 OA
ATOM      4  N   UNL     1       4.138   5.042  18.880  0.00  0.00    +0.000 N 
ATOM      5  C   UNL     1       3.520   6.376  18.939  0.00  0.00    +0.000 C 
ATOM      6  C   UNL     1       2.760   6.598  20.231  0.00  0.00    +0.000 C 
ATOM      7  S   UNL     1       1.321   5.502  20.331  0.00  0.00    +0.000 S 
ATOM      8  C   UNL     1       1.905   4.078  19.403  0.00  0.00    +0.000 A 
ATOM      9  C   UNL     1       0.993   3.013  19.313  0.00  0.00    +0.000 A 
ATOM     10  C   UNL     1       1.320   1.844  18.630  0.00  0.00    +0.000 A 
ATOM     11  C   UNL     1       2.568   1.727  18.034  0.00  0.00    +0.000 A 
ATOM     12  C   UNL     1       3.492   2.771  18.130  0.00  0.00    +0.000 A 
ATOM     13  C   UNL     1       3.186   3.960  18.812  0.00  0.00    +0.000 A 
ENDBRANCH   1   2
BRANCH   1  14
ATOM     14  C   UNL     1       7.512   6.122  18.135  0.00  0.00    +0.000 C 
BRANCH  14  16
ATOM     15  O   UNL     1       6.135   6.924  16.345  0.00  0.00    +0.000 OA
ATOM     16  C   UNL     1       6.905   6.060  16.748  0.00  0.00    +0.000 C 
ATOM     17  N   UNL     1       7.300   4.927  16.053  0.00  0.00    +0.000 N 
ATOM     18  H   UNL     1       7.795   4.216  16.578  0.00  0.00    +0.000 HD
BRANCH  17  19
ATOM     19  C   UNL     1       6.952   4.604  14.723  0.00  0.00    +0.000 A 
ATOM     20  C   UNL     1       5.965   3.669  14.390  0.00  0.00    +0.000 A 
ATOM     21  C   UNL     1       5.683   3.364  13.056  0.00  0.00    +0.000 A 
ATOM     22  C   UNL     1       6.388   3.997  12.035  0.00  0.00    +0.000 A 
ATOM     23  C   UNL     1       7.350   4.944  12.365  0.00  0.00    +0.000 A 
ATOM     24  F   UNL     1       8.028   5.558  11.386  0.00  0.00    +0.000 F 
ATOM     25  C   UNL     1       7.629   5.263  13.694  0.00  0.00    +0.000 A 
ENDBRANCH  17  19
ENDBRANCH  14  16
ENDBRANCH   1  14
TORSDOF 4
ENDMDL
MODEL 7
REMARK VINA RESULT:      -7.7      5.717      9.081
REMARK  Name = 
REMARK  4 active torsions:
REMARK  status: ('A' for Active; 'I' for Inactive)
REMARK    1  A    between atoms: C_2  and  C_3
REMARK    2  A    between atoms: C_3  and  C_4
REMARK    3  A    between atoms: C_4  and  C_5
REMARK    4  A    between atoms: N_17  and  C_18
REMARK                            x       y       z     vdW  Elec       q    Type
REMARK                         _______ _______ _______ _____ _____    ______ ____
ROOT
ATOM      1  C   UNL     1       1.796   8.620  17.927  0.00  0.00    +0.000 C 
ENDROOT
BRANCH   1   2
ATOM      2  C   UNL     1       1.925  10.127  18.076  0.00  0.00    +0.000 C 
ATOM      3  O   UNL     1       2.846  10.691  17.485  0.00  0.00    +0.000 OA
ATOM      4  N   UNL     1       0.918  10.793  18.794  0.00  0.00    +0.000 N 
ATOM      5  C   UNL     1      -0.182  10.127  19.509  0.00  0.00    +0.000 C 
ATOM      6  C   UNL     1      -1.522  10.362  18.844  0.00  0.00    +0.000 C 
ATOM      7  S   UNL     1      -1.997  12.108  18.945  0.00  0.00    +0.000 S 
ATOM      8  C   UNL     1      -0.387  12.906  18.928  0.00  0.00    +0.000 A 
ATOM      9  C   UNL     1      -0.420  14.310  18.979  0.00  0.00    +0.000 A 
ATOM     10  C   UNL     1       0.756  15.056  18.962  0.00  0.00    +0.000 A 
ATOM     11  C   UNL     1       1.979  14.404  18.890  0.00  0.00    +0.000 A 
ATOM     12  C   UNL     1       2.026  13.008  18.822  0.00  0.00    +0.000 A 
ATOM     13  C   UNL     1       0.855  12.234  18.837  0.00  0.00    +0.000 A 
ENDBRANCH   1   2
BRANCH   1  14
ATOM     14  C   UNL     1       3.150   7.959  17.659  0.00  0.00    +0.000 C 
BRANCH  14  16
ATOM     15  O   UNL     1       3.818   5.664  17.471  0.00  0.00    +0.000 OA
ATOM     16  C   UNL     1       3.116   6.493  18.041  0.00  0.00    +0.000 C 
ATOM     17  N   UNL     1       2.201   6.235  19.050  0.00  0.00    +0.000 N 
ATOM     18  H   UNL     1       1.569   6.986  19.298  0.00  0.00    +0.000 HD
BRANCH  17  19
ATOM     19  C   UNL     1       1.970   4.984  19.664  0.00  0.00    +0.000 A 
ATOM     20  C   UNL     1       2.307   4.703  20.993  0.00  0.00    +0.000 A 
ATOM     21  C   UNL     1       2.084   3.438  21.540  0.00  0.00    +0.000 A 
ATOM     22  C   UNL     1       1.515   2.434  20.759  0.00  0.00    +0.000 A 
ATOM     23  C   UNL     1       1.156   2.720  19.448  0.00  0.00    +0.000 A 
ATOM     24  F   UNL     1       0.606   1.759  18.694  0.00  0.00    +0.000 F 
ATOM     25  C   UNL     1       1.365   3.985  18.898  0.00  0.00    +0.000 A 
ENDBRANCH  17  19
ENDBRANCH  14  16
ENDBRANCH   1  14
TORSDOF 4
ENDMDL
MODEL 8
REMARK VINA RESULT:      -7.7      1.643      1.832
REMARK  Name = 
REMARK  4 active torsions:
REMARK  status: ('A' for Active; 'I' for Inactive)
REMARK    1  A    between atoms: C_2  and  C_3
REMARK    2  A    between atoms: C_3  and  C_4
REMARK    3  A    between atoms: C_4  and  C_5
REMARK    4  A    between atoms: N_17  and  C_18
REMARK                            x       y       z     vdW  Elec       q    Type
REMARK                         _______ _______ _______ _____ _____    ______ ____
ROOT
ATOM      1  C   UNL     1       5.548   7.067  17.319  0.00  0.00    +0.000 C 
ENDROOT
BRANCH   1   2
ATOM      2  C   UNL     1       4.856   5.717  17.410  0.00  0.00    +0.000 C 
ATOM      3  O   UNL     1       5.501   4.714  17.103  0.00  0.00    +0.000 OA
ATOM      4  N   UNL     1       3.556   5.691  17.942  0.00  0.00    +0.000 N 
ATOM      5  C   UNL     1       2.776   6.884  18.305  0.00  0.00    +0.000 C 
ATOM      6  C   UNL     1       2.596   7.016  19.803  0.00  0.00    +0.000 C 
ATOM      7  S   UNL     1       1.569   5.671  20.453  0.00  0.00    +0.000 S 
ATOM      8  C   UNL     1       1.976   4.344  19.310  0.00  0.00    +0.000 A 
ATOM      9  C   UNL     1       1.332   3.122  19.568  0.00  0.00    +0.000 A 
ATOM     10  C   UNL     1       1.563   2.007  18.766  0.00  0.00    +0.000 A 
ATOM     11  C   UNL     1       2.446   2.102  17.700  0.00  0.00    +0.000 A 
ATOM     12  C   UNL     1       3.106   3.307  17.442  0.00  0.00    +0.000 A 
ATOM     13  C   UNL     1       2.890   4.445  18.236  0.00  0.00    +0.000 A 
ENDBRANCH   1   2
BRANCH   1  14
ATOM     14  C   UNL     1       7.037   6.921  16.998  0.00  0.00    +0.000 C 
BRANCH  14  16
ATOM     15  O   UNL     1       8.435   7.219  18.923  0.00  0.00    +0.000 OA
ATOM     16  C   UNL     1       7.876   7.736  17.961  0.00  0.00    +0.000 C 
ATOM     17  N   UNL     1       7.890   9.083  17.634  0.00  0.00    +0.000 N 
ATOM     18  H   UNL     1       7.239   9.388  16.920  0.00  0.00    +0.000 HD
BRANCH  17  19
ATOM     19  C   UNL     1       8.618  10.094  18.300  0.00  0.00    +0.000 A 
ATOM     20  C   UNL     1       9.196   9.922  19.563  0.00  0.00    +0.000 A 
ATOM     21  C   UNL     1       9.880  10.966  20.190  0.00  0.00    +0.000 A 
ATOM     22  C   UNL     1       9.995  12.200  19.555  0.00  0.00    +0.000 A 
ATOM     23  C   UNL     1       9.444  12.363  18.290  0.00  0.00    +0.000 A 
ATOM     24  F   UNL     1       9.556  13.547  17.674  0.00  0.00    +0.000 F 
ATOM     25  C   UNL     1       8.771  11.322  17.652  0.00  0.00    +0.000 A 
ENDBRANCH  17  19
ENDBRANCH  14  16
ENDBRANCH   1  14
TORSDOF 4
ENDMDL
MODEL 9
REMARK VINA RESULT:      -7.6      4.748      6.415
REMARK  Name = 
REMARK  4 active torsions:
REMARK  status: ('A' for Active; 'I' for Inactive)
REMARK    1  A    between atoms: C_2  and  C_3
REMARK    2  A    between atoms: C_3  and  C_4
REMARK    3  A    between atoms: C_4  and  C_5
REMARK    4  A    between atoms: N_17  and  C_18
REMARK                            x       y       z     vdW  Elec       q    Type
REMARK                         _______ _______ _______ _____ _____    ______ ____
ROOT
ATOM      1  C   UNL     1       5.038   6.558  17.139  0.00  0.00    +0.000 C 
ENDROOT
BRANCH   1   2
ATOM      2  C   UNL     1       4.199   5.333  17.463  0.00  0.00    +0.000 C 
ATOM      3  O   UNL     1       4.664   4.225  17.194  0.00  0.00    +0.000 OA
ATOM      4  N   UNL     1       2.990   5.540  18.147  0.00  0.00    +0.000 N 
ATOM      5  C   UNL     1       2.423   6.860  18.466  0.00  0.00    +0.000 C 
ATOM      6  C   UNL     1       2.465   7.157  19.951  0.00  0.00    +0.000 C 
ATOM      7  S   UNL     1       1.372   6.037  20.865  0.00  0.00    +0.000 S 
ATOM      8  C   UNL     1       1.449   4.564  19.838  0.00  0.00    +0.000 A 
ATOM      9  C   UNL     1       0.696   3.474  20.306  0.00  0.00    +0.000 A 
ATOM     10  C   UNL     1       0.674   2.266  19.611  0.00  0.00    +0.000 A 
ATOM     11  C   UNL     1       1.410   2.136  18.443  0.00  0.00    +0.000 A 
ATOM     12  C   UNL     1       2.177   3.207  17.974  0.00  0.00    +0.000 A 
ATOM     13  C   UNL     1       2.216   4.434  18.656  0.00  0.00    +0.000 A 
ENDBRANCH   1   2
BRANCH   1  14
ATOM     14  C   UNL     1       6.533   6.287  17.325  0.00  0.00    +0.000 C 
BRANCH  14  16
ATOM     15  O   UNL     1       7.944   4.564  16.437  0.00  0.00    +0.000 OA
ATOM     16  C   UNL     1       7.054   5.382  16.227  0.00  0.00    +0.000 C 
ATOM     17  N   UNL     1       6.435   5.623  15.010  0.00  0.00    +0.000 N 
ATOM     18  H   UNL     1       5.848   6.447  14.950  0.00  0.00    +0.000 HD
BRANCH  17  19
ATOM     19  C   UNL     1       6.658   4.915  13.808  0.00  0.00    +0.000 A 
ATOM     20  C   UNL     1       7.697   5.214  12.920  0.00  0.00    +0.000 A 
ATOM     21  C   UNL     1       7.852   4.500  11.729  0.00  0.00    +0.000 A 
ATOM     22  C   UNL     1       6.966   3.474  11.414  0.00  0.00    +0.000 A 
ATOM     23  C   UNL     1       5.950   3.160  12.309  0.00  0.00    +0.000 A 
ATOM     24  F   UNL     1       5.097   2.171  12.011  0.00  0.00    +0.000 F 
ATOM     25  C   UNL     1       5.796   3.859  13.505  0.00  0.00    +0.000 A 
ENDBRANCH  17  19
ENDBRANCH  14  16
ENDBRANCH   1  14
TORSDOF 4
ENDMDL
