MODEL 1
REMARK VINA RESULT:      -7.8      0.000      0.000
REMARK  Name = 
REMARK  6 active torsions:
REMARK  status: ('A' for Active; 'I' for Inactive)
REMARK    1  A    between atoms: C_1  and  O_2
REMARK    2  A    between atoms: O_2  and  C_3
REMARK    3  A    between atoms: C_3  and  C_5
REMARK    4  A    between atoms: C_10  and  N_11
REMARK    5  A    between atoms: C_12  and  C_14
REMARK    6  A    between atoms: C_15  and  C_16
REMARK                            x       y       z     vdW  Elec       q    Type
REMARK                         _______ _______ _______ _____ _____    ______ ____
ROOT
ATOM      1  N   UNL     1       6.614   7.017  17.106  0.00  0.00    +0.000 N 
ATOM      2  C   UNL     1       7.664   7.400  17.907  0.00  0.00    +0.000 C 
ATOM      3  O   UNL     1       8.173   6.677  18.759  0.00  0.00    +0.000 OA
ATOM      4  H   UNL     1       6.186   7.703  16.495  0.00  0.00    +0.000 HD
ENDROOT
BRANCH   1  10
ATOM      5  C   UNL     1       5.282   5.198  16.060  0.00  0.00    +0.000 C 
ATOM      6  C   UNL     1       4.438   3.946  16.332  0.00  0.00    +0.000 C 
ATOM      7  C   UNL     1       3.351   4.227  17.363  0.00  0.00    +0.000 C 
ATOM      8  C   UNL     1       3.952   4.759  18.658  0.00  0.00    +0.000 C 
ATOM      9  C   UNL     1       4.812   5.996  18.412  0.00  0.00    +0.000 C 
ATOM     10  C   UNL     1       5.902   5.760  17.346  0.00  0.00    +0.000 C 
BRANCH   5  11
ATOM     11  C   UNL     1       6.323   4.918  14.998  0.00  0.00    +0.000 C 
ATOM     12  O   UNL     1       7.457   5.379  15.052  0.00  0.00    +0.000 OA
BRANCH  11  14
ATOM     13  C   UNL     1       6.717   3.962  12.873  0.00  0.00    +0.000 C 
ATOM     14  O   UNL     1       5.841   4.142  13.991  0.00  0.00    +0.000 OA
ENDBRANCH  11  14
ENDBRANCH   5  11
ENDBRANCH   1  10
BRANCH   2  15
ATOM     15  C   UNL     1       8.098   8.800  17.690  0.00  0.00    +0.000 C 
ATOM     16  C   UNL     1       8.850   9.409  18.620  0.00  0.00    +0.000 C 
BRANCH  16  17
ATOM     17  C   UNL     1       9.246  10.821  18.551  0.00  0.00    +0.000 A 
ATOM     18  C   UNL     1      10.416  11.280  19.174  0.00  0.00    +0.000 A 
ATOM     19  C   UNL     1      10.802  12.617  19.068  0.00  0.00    +0.000 A 
ATOM     20  C   UNL     1      10.029  13.508  18.326  0.00  0.00    +0.000 A 
ATOM     21  C   UNL     1       8.880  13.059  17.679  0.00  0.00    +0.000 A 
ATOM     22  C   UNL     1       8.493  11.718  17.784  0.00  0.00    +0.000 A 
ENDBRANCH  16  17
ENDBRANCH   2  15
TORSDOF 5
ENDMDL
MODEL 2
REMARK VINA RESULT:      -7.8      0.072      1.054
REMARK  Name = 
REMARK  6 active torsions:
REMARK  status: ('A' for Active; 'I' for Inactive)
REMARK    1  A    between atoms: C_1  and  O_2
REMARK    2  A    between atoms: O_2  and  C_3
REMARK    3  A    between atoms: C_3  and  C_5
REMARK    4  A    between atoms: C_10  and  N_11
REMARK    5  A    between atoms: C_12  and  C_14
REMARK    6  A    between atoms: C_15  and  C_16
REMARK                            x       y       z     vdW  Elec       q    Type
REMARK                         _______ _______ _______ _____ _____    ______ ____
ROOT
ATOM      1  N   UNL     1       6.617   6.994  17.108  0.00  0.00    +0.000 N 
ATOM      2  C   UNL     1       7.660   7.381  17.916  0.00  0.00    +0.000 C 
ATOM      3  O   UNL     1       8.156   6.666  18.782  0.00  0.00    +0.000 OA
ATOM      4  H   UNL     1       6.200   7.674  16.483  0.00  0.00    +0.000 HD
ENDROOT
BRANCH   1  10
ATOM      5  C   UNL     1       5.269   5.180  16.073  0.00  0.00    +0.000 C 
ATOM      6  C   UNL     1       4.416   3.935  16.353  0.00  0.00    +0.000 C 
ATOM      7  C   UNL     1       3.334   4.230  17.386  0.00  0.00    +0.000 C 
ATOM      8  C   UNL     1       3.941   4.764  18.677  0.00  0.00    +0.000 C 
ATOM      9  C   UNL     1       4.811   5.994  18.422  0.00  0.00    +0.000 C 
ATOM     10  C   UNL     1       5.897   5.743  17.356  0.00  0.00    +0.000 C 
BRANCH   5  11
ATOM     11  C   UNL     1       6.306   4.885  15.011  0.00  0.00    +0.000 C 
ATOM     12  O   UNL     1       7.435   5.362  15.045  0.00  0.00    +0.000 OA
BRANCH  11  14
ATOM     13  C   UNL     1       6.677   3.919  12.887  0.00  0.00    +0.000 C 
ATOM     14  O   UNL     1       5.826   4.080  14.027  0.00  0.00    +0.000 OA
ENDBRANCH  11  14
ENDBRANCH   5  11
ENDBRANCH   1  10
BRANCH   2  15
ATOM     15  C   UNL     1       8.104   8.776  17.685  0.00  0.00    +0.000 C 
ATOM     16  C   UNL     1       8.847   9.394  18.618  0.00  0.00    +0.000 C 
BRANCH  16  17
ATOM     17  C   UNL     1       9.251  10.803  18.536  0.00  0.00    +0.000 A 
ATOM     18  C   UNL     1       8.518  11.728  17.777  0.00  0.00    +0.000 A 
ATOM     19  C   UNL     1       8.891  13.072  17.740  0.00  0.00    +0.000 A 
ATOM     20  C   UNL     1       9.992  13.511  18.472  0.00  0.00    +0.000 A 
ATOM     21  C   UNL     1      10.711  12.608  19.252  0.00  0.00    +0.000 A 
ATOM     22  C   UNL     1      10.338  11.260  19.290  0.00  0.00    +0.000 A 
ENDBRANCH  16  17
ENDBRANCH   2  15
TORSDOF 5
ENDMDL
MODEL 3
REMARK VINA RESULT:      -7.5      5.205      6.770
REMARK  Name = 
REMARK  6 active torsions:
REMARK  status: ('A' for Active; 'I' for Inactive)
REMARK    1  A    between atoms: C_1  and  O_2
REMARK    2  A    between atoms: O_2  and  C_3
REMARK    3  A    between atoms: C_3  and  C_5
REMARK    4  A    between atoms: C_10  and  N_11
REMARK    5  A    between atoms: C_12  and  C_14
REMARK    6  A    between atoms: C_15  and  C_16
REMARK                            x       y       z     vdW  Elec       q    Type
REMARK                         _______ _______ _______ _____ _____    ______ ____
ROOT
ATOM      1  N   UNL     1       4.612   4.675  18.129  0.00  0.00    +0.000 N 
ATOM      2  C   UNL     1       5.984   4.596  18.172  0.00  0.00    +0.000 C 
ATOM      3  O   UNL     1       6.637   4.596  19.211  0.00  0.00    +0.000 OA
ATOM      4  H   UNL     1       4.152   4.766  17.231  0.00  0.00    +0.000 HD
ENDROOT
BRANCH   1  10
ATOM      5  C   UNL     1       2.812   3.845  19.629  0.00  0.00    +0.000 C 
ATOM      6  C   UNL     1       1.919   4.192  20.828  0.00  0.00    +0.000 C 
ATOM      7  C   UNL     1       1.211   5.526  20.620  0.00  0.00    +0.000 C 
ATOM      8  C   UNL     1       2.214   6.642  20.359  0.00  0.00    +0.000 C 
ATOM      9  C   UNL     1       3.127   6.313  19.180  0.00  0.00    +0.000 C 
ATOM     10  C   UNL     1       3.836   4.951  19.339  0.00  0.00    +0.000 C 
BRANCH   5  11
ATOM     11  C   UNL     1       3.469   2.496  19.828  0.00  0.00    +0.000 C 
ATOM     12  O   UNL     1       4.398   2.327  20.609  0.00  0.00    +0.000 OA
BRANCH  11  14
ATOM     13  C   UNL     1       2.375   1.999  17.794  0.00  0.00    +0.000 C 
ATOM     14  O   UNL     1       2.936   1.537  19.027  0.00  0.00    +0.000 OA
ENDBRANCH  11  14
ENDBRANCH   5  11
ENDBRANCH   1  10
BRANCH   2  15
ATOM     15  C   UNL     1       6.619   4.567  16.833  0.00  0.00    +0.000 C 
ATOM     16  C   UNL     1       5.846   4.589  15.736  0.00  0.00    +0.000 C 
BRANCH  16  17
ATOM     17  C   UNL     1       6.366   4.461  14.369  0.00  0.00    +0.000 A 
ATOM     18  C   UNL     1       5.786   3.577  13.449  0.00  0.00    +0.000 A 
ATOM     19  C   UNL     1       6.265   3.493  12.140  0.00  0.00    +0.000 A 
ATOM     20  C   UNL     1       7.322   4.304  11.733  0.00  0.00    +0.000 A 
ATOM     21  C   UNL     1       7.890   5.208  12.629  0.00  0.00    +0.000 A 
ATOM     22  C   UNL     1       7.409   5.292  13.941  0.00  0.00    +0.000 A 
ENDBRANCH  16  17
ENDBRANCH   2  15
TORSDOF 5
ENDMDL
MODEL 4
REMARK VINA RESULT:      -7.4      3.668      6.576
REMARK  Name = 
REMARK  6 active torsions:
REMARK  status: ('A' for Active; 'I' for Inactive)
REMARK    1  A    between atoms: C_1  and  O_2
REMARK    2  A    between atoms: O_2  and  C_3
REMARK    3  A    between atoms: C_3  and  C_5
REMARK    4  A    between atoms: C_10  and  N_11
REMARK    5  A    between atoms: C_12  and  C_14
REMARK    6  A    between atoms: C_15  and  C_16
REMARK                            x       y       z     vdW  Elec       q    Type
REMARK                         _______ _______ _______ _____ _____    ______ ____
ROOT
ATOM      1  N   UNL     1       4.326   5.757  18.476  0.00  0.00    +0.000 N 
ATOM      2  C   UNL     1       3.511   5.236  19.454  0.00  0.00    +0.000 C 
ATOM      3  O   UNL     1       3.600   4.087  19.877  0.00  0.00    +0.000 OA
ATOM      4  H   UNL     1       4.127   6.682  18.112  0.00  0.00    +0.000 HD
ENDROOT
BRANCH   1  10
ATOM      5  C   UNL     1       6.615   5.577  17.527  0.00  0.00    +0.000 C 
ATOM      6  C   UNL     1       7.546   4.731  16.648  0.00  0.00    +0.000 C 
ATOM      7  C   UNL     1       6.901   4.420  15.302  0.00  0.00    +0.000 C 
ATOM      8  C   UNL     1       5.560   3.722  15.488  0.00  0.00    +0.000 C 
ATOM      9  C   UNL     1       4.621   4.537  16.374  0.00  0.00    +0.000 C 
ATOM     10  C   UNL     1       5.253   4.902  17.734  0.00  0.00    +0.000 C 
BRANCH   5  11
ATOM     11  C   UNL     1       7.289   5.920  18.838  0.00  0.00    +0.000 C 
ATOM     12  O   UNL     1       7.024   5.337  19.884  0.00  0.00    +0.000 OA
BRANCH  11  14
ATOM     13  C   UNL     1       7.794   7.979  17.798  0.00  0.00    +0.000 C 
ATOM     14  O   UNL     1       8.169   6.947  18.717  0.00  0.00    +0.000 OA
ENDBRANCH  11  14
ENDBRANCH   5  11
ENDBRANCH   1  10
BRANCH   2  15
ATOM     15  C   UNL     1       2.465   6.177  19.920  0.00  0.00    +0.000 C 
ATOM     16  C   UNL     1       2.421   7.418  19.410  0.00  0.00    +0.000 C 
BRANCH  16  17
ATOM     17  C   UNL     1       1.494   8.458  19.875  0.00  0.00    +0.000 A 
ATOM     18  C   UNL     1       1.040   9.466  19.013  0.00  0.00    +0.000 A 
ATOM     19  C   UNL     1       0.128  10.425  19.457  0.00  0.00    +0.000 A 
ATOM     20  C   UNL     1      -0.351  10.378  20.764  0.00  0.00    +0.000 A 
ATOM     21  C   UNL     1       0.070   9.364  21.622  0.00  0.00    +0.000 A 
ATOM     22  C   UNL     1       0.984   8.403  21.177  0.00  0.00    +0.000 A 
ENDBRANCH  16  17
ENDBRANCH   2  15
TORSDOF 5
ENDMDL
MODEL 5
REMARK VINA RESULT:      -7.4      1.227      1.323
REMARK  Name = 
REMARK  6 active torsions:
REMARK  status: ('A' for Active; 'I' for Inactive)
REMARK    1  A    between atoms: C_1  and  O_2
REMARK    2  A    between atoms: O_2  and  C_3
REMARK    3  A    between atoms: C_3  and  C_5
REMARK    4  A    between atoms: C_10  and  N_11
REMARK    5  A    between atoms: C_12  and  C_14
REMARK    6  A    between atoms: C_15  and  C_16
REMARK                            x       y       z     vdW  Elec       q    Type
REMARK                         _______ _______ _______ _____ _____    ______ ____
ROOT
ATOM      1  N   UNL     1       6.137   7.007  17.886  0.00  0.00    +0.000 N 
ATOM      2  C   UNL     1       7.334   7.423  17.350  0.00  0.00    +0.000 C 
ATOM      3  O   UNL     1       8.074   6.701  16.689  0.00  0.00    +0.000 OA
ATOM      4  H   UNL     1       5.630   7.633  18.501  0.00  0.00    +0.000 HD
ENDROOT
BRANCH   1  10
ATOM      5  C   UNL     1       4.659   5.327  16.805  0.00  0.00    +0.000 C 
ATOM      6  C   UNL     1       4.166   3.875  16.852  0.00  0.00    +0.000 C 
ATOM      7  C   UNL     1       3.662   3.509  18.244  0.00  0.00    +0.000 C 
ATOM      8  C   UNL     1       4.740   3.743  19.294  0.00  0.00    +0.000 C 
ATOM      9  C   UNL     1       5.260   5.178  19.256  0.00  0.00    +0.000 C 
ATOM     10  C   UNL     1       5.747   5.596  17.853  0.00  0.00    +0.000 C 
BRANCH   5  11
ATOM     11  C   UNL     1       5.109   5.690  15.407  0.00  0.00    +0.000 C 
ATOM     12  O   UNL     1       5.131   6.848  15.004  0.00  0.00    +0.000 OA
BRANCH  11  14
ATOM     13  C   UNL     1       6.780   4.570  14.168  0.00  0.00    +0.000 C 
ATOM     14  O   UNL     1       5.439   4.599  14.668  0.00  0.00    +0.000 OA
ENDBRANCH  11  14
ENDBRANCH   5  11
ENDBRANCH   1  10
BRANCH   2  15
ATOM     15  C   UNL     1       7.685   8.821  17.693  0.00  0.00    +0.000 C 
ATOM     16  C   UNL     1       8.735   9.060  18.494  0.00  0.00    +0.000 C 
BRANCH  16  17
ATOM     17  C   UNL     1       9.106  10.396  18.977  0.00  0.00    +0.000 A 
ATOM     18  C   UNL     1       9.511  10.604  20.303  0.00  0.00    +0.000 A 
ATOM     19  C   UNL     1       9.898  11.873  20.739  0.00  0.00    +0.000 A 
ATOM     20  C   UNL     1       9.897  12.945  19.849  0.00  0.00    +0.000 A 
ATOM     21  C   UNL     1       9.524  12.745  18.521  0.00  0.00    +0.000 A 
ATOM     22  C   UNL     1       9.136  11.474  18.084  0.00  0.00    +0.000 A 
ENDBRANCH  16  17
ENDBRANCH   2  15
TORSDOF 5
ENDMDL
MODEL 6
REMARK VINA RESULT:      -7.4      1.253      1.612
REMARK  Name = 
REMARK  6 active torsions:
REMARK  status: ('A' for Active; 'I' for Inactive)
REMARK    1  A    between atoms: C_1  and  O_2
REMARK    2  A    between atoms: O_2  and  C_3
REMARK    3  A    between atoms: C_3  and  C_5
REMARK    4  A    between atoms: C_10  and  N_11
REMARK    5  A    between atoms: C_12  and  C_14
REMARK    6  A    between atoms: C_15  and  C_16
REMARK                            x       y       z     vdW  Elec       q    Type
REMARK                         _______ _______ _______ _____ _____    ______ ____
ROOT
ATOM      1  N   UNL     1       6.138   7.007  17.894  0.00  0.00    +0.000 N 
ATOM      2  C   UNL     1       7.328   7.429  17.349  0.00  0.00    +0.000 C 
ATOM      3  O   UNL     1       8.064   6.712  16.677  0.00  0.00    +0.000 OA
ATOM      4  H   UNL     1       5.635   7.629  18.516  0.00  0.00    +0.000 HD
ENDROOT
BRANCH   1  10
ATOM      5  C   UNL     1       4.656   5.329  16.816  0.00  0.00    +0.000 C 
ATOM      6  C   UNL     1       4.167   3.875  16.860  0.00  0.00    +0.000 C 
ATOM      7  C   UNL     1       3.672   3.502  18.253  0.00  0.00    +0.000 C 
ATOM      8  C   UNL     1       4.757   3.734  19.298  0.00  0.00    +0.000 C 
ATOM      9  C   UNL     1       5.274   5.171  19.262  0.00  0.00    +0.000 C 
ATOM     10  C   UNL     1       5.750   5.596  17.858  0.00  0.00    +0.000 C 
BRANCH   5  11
ATOM     11  C   UNL     1       5.096   5.699  15.416  0.00  0.00    +0.000 C 
ATOM     12  O   UNL     1       5.106   6.857  15.015  0.00  0.00    +0.000 OA
BRANCH  11  14
ATOM     13  C   UNL     1       6.798   4.549  14.249  0.00  0.00    +0.000 C 
ATOM     14  O   UNL     1       5.432   4.612  14.673  0.00  0.00    +0.000 OA
ENDBRANCH  11  14
ENDBRANCH   5  11
ENDBRANCH   1  10
BRANCH   2  15
ATOM     15  C   UNL     1       7.679   8.826  17.695  0.00  0.00    +0.000 C 
ATOM     16  C   UNL     1       8.749   9.064  18.471  0.00  0.00    +0.000 C 
BRANCH  16  17
ATOM     17  C   UNL     1       9.123  10.399  18.956  0.00  0.00    +0.000 A 
ATOM     18  C   UNL     1       9.120  11.511  18.103  0.00  0.00    +0.000 A 
ATOM     19  C   UNL     1       9.440  12.781  18.586  0.00  0.00    +0.000 A 
ATOM     20  C   UNL     1       9.753  12.955  19.932  0.00  0.00    +0.000 A 
ATOM     21  C   UNL     1       9.731  11.863  20.797  0.00  0.00    +0.000 A 
ATOM     22  C   UNL     1       9.410  10.590  20.313  0.00  0.00    +0.000 A 
ENDBRANCH  16  17
ENDBRANCH   2  15
TORSDOF 5
ENDMDL
MODEL 7
REMARK VINA RESULT:      -7.3      5.350      6.862
REMARK  Name = 
REMARK  6 active torsions:
REMARK  status: ('A' for Active; 'I' for Inactive)
REMARK    1  A    between atoms: C_1  and  O_2
REMARK    2  A    between atoms: O_2  and  C_3
REMARK    3  A    between atoms: C_3  and  C_5
REMARK    4  A    between atoms: C_10  and  N_11
REMARK    5  A    between atoms: C_12  and  C_14
REMARK    6  A    between atoms: C_15  and  C_16
REMARK                            x       y       z     vdW  Elec       q    Type
REMARK                         _______ _______ _______ _____ _____    ______ ____
ROOT
ATOM      1  N   UNL     1       4.307   4.666  18.147  0.00  0.00    +0.000 N 
ATOM      2  C   UNL     1       5.670   4.486  18.191  0.00  0.00    +0.000 C 
ATOM      3  O   UNL     1       6.335   4.544  19.221  0.00  0.00    +0.000 OA
ATOM      4  H   UNL     1       3.844   4.700  17.247  0.00  0.00    +0.000 HD
ENDROOT
BRANCH   1  10
ATOM      5  C   UNL     1       2.411   4.185  19.680  0.00  0.00    +0.000 C 
ATOM      6  C   UNL     1       1.567   4.728  20.841  0.00  0.00    +0.000 C 
ATOM      7  C   UNL     1       1.039   6.125  20.532  0.00  0.00    +0.000 C 
ATOM      8  C   UNL     1       2.180   7.080  20.207  0.00  0.00    +0.000 C 
ATOM      9  C   UNL     1       3.046   6.553  19.064  0.00  0.00    +0.000 C 
ATOM     10  C   UNL     1       3.570   5.126  19.326  0.00  0.00    +0.000 C 
BRANCH   5  11
ATOM     11  C   UNL     1       2.885   2.780  19.980  0.00  0.00    +0.000 C 
ATOM     12  O   UNL     1       3.491   2.496  21.007  0.00  0.00    +0.000 OA
BRANCH  11  14
ATOM     13  C   UNL     1       3.719   1.271  18.364  0.00  0.00    +0.000 C 
ATOM     14  O   UNL     1       2.594   1.909  18.978  0.00  0.00    +0.000 OA
ENDBRANCH  11  14
ENDBRANCH   5  11
ENDBRANCH   1  10
BRANCH   2  15
ATOM     15  C   UNL     1       6.283   4.270  16.859  0.00  0.00    +0.000 C 
ATOM     16  C   UNL     1       5.723   4.832  15.776  0.00  0.00    +0.000 C 
BRANCH  16  17
ATOM     17  C   UNL     1       6.189   4.598  14.403  0.00  0.00    +0.000 A 
ATOM     18  C   UNL     1       7.327   5.246  13.901  0.00  0.00    +0.000 A 
ATOM     19  C   UNL     1       7.781   4.985  12.607  0.00  0.00    +0.000 A 
ATOM     20  C   UNL     1       7.111   4.063  11.806  0.00  0.00    +0.000 A 
ATOM     21  C   UNL     1       5.997   3.391  12.304  0.00  0.00    +0.000 A 
ATOM     22  C   UNL     1       5.541   3.652  13.601  0.00  0.00    +0.000 A 
ENDBRANCH  16  17
ENDBRANCH   2  15
TORSDOF 5
ENDMDL
MODEL 8
REMARK VINA RESULT:      -7.2      5.460      6.947
REMARK  Name = 
REMARK  6 active torsions:
REMARK  status: ('A' for Active; 'I' for Inactive)
REMARK    1  A    between atoms: C_1  and  O_2
REMARK    2  A    between atoms: O_2  and  C_3
REMARK    3  A    between atoms: C_3  and  C_5
REMARK    4  A    between atoms: C_10  and  N_11
REMARK    5  A    between atoms: C_12  and  C_14
REMARK    6  A    between atoms: C_15  and  C_16
REMARK                            x       y       z     vdW  Elec       q    Type
REMARK                         _______ _______ _______ _____ _____    ______ ____
ROOT
ATOM      1  N   UNL     1       4.190   3.084  17.936  0.00  0.00    +0.000 N 
ATOM      2  C   UNL     1       5.289   3.891  18.120  0.00  0.00    +0.000 C 
ATOM      3  O   UNL     1       5.575   4.423  19.188  0.00  0.00    +0.000 OA
ATOM      4  H   UNL     1       3.969   2.761  17.002  0.00  0.00    +0.000 HD
ENDROOT
BRANCH   1  10
ATOM      5  C   UNL     1       2.437   4.276  19.233  0.00  0.00    +0.000 C 
ATOM      6  C   UNL     1       1.452   4.168  20.405  0.00  0.00    +0.000 C 
ATOM      7  C   UNL     1       2.155   3.700  21.675  0.00  0.00    +0.000 C 
ATOM      8  C   UNL     1       2.865   2.371  21.448  0.00  0.00    +0.000 C 
ATOM      9  C   UNL     1       3.839   2.448  20.274  0.00  0.00    +0.000 C 
ATOM     10  C   UNL     1       3.170   2.952  18.978  0.00  0.00    +0.000 C 
BRANCH   5  11
ATOM     11  C   UNL     1       1.735   4.790  17.995  0.00  0.00    +0.000 C 
ATOM     12  O   UNL     1       1.051   4.066  17.280  0.00  0.00    +0.000 OA
BRANCH  11  14
ATOM     13  C   UNL     1       2.963   6.710  18.617  0.00  0.00    +0.000 C 
ATOM     14  O   UNL     1       1.984   6.106  17.766  0.00  0.00    +0.000 OA
ENDBRANCH  11  14
ENDBRANCH   5  11
ENDBRANCH   1  10
BRANCH   2  15
ATOM     15  C   UNL     1       6.078   4.110  16.886  0.00  0.00    +0.000 C 
ATOM     16  C   UNL     1       5.455   4.111  15.696  0.00  0.00    +0.000 C 
BRANCH  16  17
ATOM     17  C   UNL     1       6.155   4.216  14.409  0.00  0.00    +0.000 A 
ATOM     18  C   UNL     1       5.745   3.470  13.295  0.00  0.00    +0.000 A 
ATOM     19  C   UNL     1       6.394   3.608  12.067  0.00  0.00    +0.000 A 
ATOM     20  C   UNL     1       7.452   4.506  11.936  0.00  0.00    +0.000 A 
ATOM     21  C   UNL     1       7.850   5.275  13.028  0.00  0.00    +0.000 A 
ATOM     22  C   UNL     1       7.200   5.136  14.259  0.00  0.00    +0.000 A 
ENDBRANCH  16  17
ENDBRANCH   2  15
TORSDOF 5
ENDMDL
MODEL 9
REMARK VINA RESULT:      -7.2      1.215      1.801
REMARK  Name = 
REMARK  6 active torsions:
REMARK  status: ('A' for Active; 'I' for Inactive)
REMARK    1  A    between atoms: C_1  and  O_2
REMARK    2  A    between atoms: O_2  and  C_3
REMARK    3  A    between atoms: C_3  and  C_5
REMARK    4  A    between atoms: C_10  and  N_11
REMARK    5  A    between atoms: C_12  and  C_14
REMARK    6  A    between atoms: C_15  and  C_16
REMARK                            x       y       z     vdW  Elec       q    Type
REMARK                         _______ _______ _______ _____ _____    ______ ____
ROOT
ATOM      1  N   UNL     1       6.135   6.077  18.306  0.00  0.00    +0.000 N 
ATOM      2  C   UNL     1       7.445   6.216  17.911  0.00  0.00    +0.000 C 
ATOM      3  O   UNL     1       8.043   5.392  17.226  0.00  0.00    +0.000 OA
ATOM      4  H   UNL     1       5.741   6.752  18.951  0.00  0.00    +0.000 HD
ENDROOT
BRANCH   1  10
ATOM      5  C   UNL     1       4.386   4.953  16.943  0.00  0.00    +0.000 C 
ATOM      6  C   UNL     1       3.544   3.680  16.785  0.00  0.00    +0.000 C 
ATOM      7  C   UNL     1       2.842   3.319  18.089  0.00  0.00    +0.000 C 
ATOM      8  C   UNL     1       3.846   3.160  19.225  0.00  0.00    +0.000 C 
ATOM      9  C   UNL     1       4.709   4.409  19.390  0.00  0.00    +0.000 C 
ATOM     10  C   UNL     1       5.409   4.826  18.080  0.00  0.00    +0.000 C 
BRANCH   5  11
ATOM     11  C   UNL     1       5.037   5.326  15.628  0.00  0.00    +0.000 C 
ATOM     12  O   UNL     1       5.211   6.491  15.290  0.00  0.00    +0.000 OA
BRANCH  11  14
ATOM     13  C   UNL     1       6.592   4.321  14.162  0.00  0.00    +0.000 C 
ATOM     14  O   UNL     1       5.357   4.238  14.881  0.00  0.00    +0.000 OA
ENDBRANCH  11  14
ENDBRANCH   5  11
ENDBRANCH   1  10
BRANCH   2  15
ATOM     15  C   UNL     1       8.098   7.437  18.439  0.00  0.00    +0.000 C 
ATOM     16  C   UNL     1       7.873   8.617  17.840  0.00  0.00    +0.000 C 
BRANCH  16  17
ATOM     17  C   UNL     1       8.548   9.865  18.218  0.00  0.00    +0.000 A 
ATOM     18  C   UNL     1       8.307  11.061  17.526  0.00  0.00    +0.000 A 
ATOM     19  C   UNL     1       8.925  12.249  17.921  0.00  0.00    +0.000 A 
ATOM     20  C   UNL     1       9.780  12.257  19.020  0.00  0.00    +0.000 A 
ATOM     21  C   UNL     1      10.006  11.081  19.734  0.00  0.00    +0.000 A 
ATOM     22  C   UNL     1       9.386   9.890  19.339  0.00  0.00    +0.000 A 
ENDBRANCH  16  17
ENDBRANCH   2  15
TORSDOF 5
ENDMDL
