MODEL 1
REMARK VINA RESULT:      -6.6      0.000      0.000
REMARK  Name = 
REMARK  12 active torsions:
REMARK  status: ('A' for Active; 'I' for Inactive)
REMARK    1  A    between atoms: C_1  and  C_2
REMARK    2  A    between atoms: C_2  and  C_3
REMARK    3  A    between atoms: C_3  and  C_4
REMARK    4  A    between atoms: C_4  and  C_5
REMARK    5  A    between atoms: C_5  and  C_6
REMARK    6  A    between atoms: C_6  and  C_7
REMARK    7  A    between atoms: C_7  and  C_8
REMARK    8  A    between atoms: C_8  and  C_9
REMARK    9  A    between atoms: C_9  and  C_10
REMARK   10  A    between atoms: C_10  and  C_11
REMARK   11  A    between atoms: C_11  and  C_12
REMARK   12  A    between atoms: N_14  and  C_15
REMARK                            x       y       z     vdW  Elec       q    Type
REMARK                         _______ _______ _______ _____ _____    ______ ____
ROOT
ATOM      1  C   UNL     1       3.124   2.800  17.627  0.00  0.00    +0.000 C 
ATOM      2  O   UNL     1       2.419   3.446  16.854  0.00  0.00    +0.000 OA
ATOM      3  N   UNL     1       4.511   2.827  17.628  0.00  0.00    +0.000 N 
ATOM      4  H   UNL     1       4.988   2.087  18.126  0.00  0.00    +0.000 HD
ENDROOT
BRANCH   3   5
ATOM      5  C   UNL     1       5.285   3.655  16.779  0.00  0.00    +0.000 A 
ATOM      6  C   UNL     1       5.449   3.386  15.414  0.00  0.00    +0.000 A 
ATOM      7  C   UNL     1       6.290   4.169  14.629  0.00  0.00    +0.000 A 
ATOM      8 CL   UNL     1       6.503   3.782  12.966  0.00  0.00    +0.000 Cl
ATOM      9  C   UNL     1       6.964   5.248  15.182  0.00  0.00    +0.000 A 
ATOM     10  C   UNL     1       6.765   5.551  16.528  0.00  0.00    +0.000 A 
ATOM     11 CL   UNL     1       7.597   6.893  17.221  0.00  0.00    +0.000 Cl
ATOM     12  C   UNL     1       5.921   4.772  17.327  0.00  0.00    +0.000 A 
ENDBRANCH   3   5
BRANCH   1  13
ATOM     13  C   UNL     1       2.515   1.868  18.649  0.00  0.00    +0.000 C 
BRANCH  13  14
ATOM     14  C   UNL     1       1.020   2.179  18.748  0.00  0.00    +0.000 C 
BRANCH  14  15
ATOM     15  C   UNL     1       0.706   3.411  19.580  0.00  0.00    +0.000 C 
BRANCH  15  16
ATOM     16  C   UNL     1       1.341   3.260  20.962  0.00  0.00    +0.000 C 
BRANCH  16  17
ATOM     17  C   UNL     1       2.245   4.442  21.278  0.00  0.00    +0.000 C 
BRANCH  17  18
ATOM     18  C   UNL     1       2.121   5.524  20.210  0.00  0.00    +0.000 C 
BRANCH  18  19
ATOM     19  C   UNL     1       3.485   5.817  19.594  0.00  0.00    +0.000 C 
BRANCH  19  20
ATOM     20  C   UNL     1       3.345   6.626  18.308  0.00  0.00    +0.000 C 
BRANCH  20  21
ATOM     21  C   UNL     1       1.939   7.208  18.189  0.00  0.00    +0.000 C 
BRANCH  21  23
ATOM     22  C   UNL     1       1.195   9.528  18.794  0.00  0.00    +0.000 C 
ATOM     23  C   UNL     1       1.984   8.685  17.807  0.00  0.00    +0.000 C 
ENDBRANCH  21  23
ENDBRANCH  20  21
ENDBRANCH  19  20
ENDBRANCH  18  19
ENDBRANCH  17  18
ENDBRANCH  16  17
ENDBRANCH  15  16
ENDBRANCH  14  15
ENDBRANCH  13  14
ENDBRANCH   1  13
TORSDOF 11
ENDMDL
MODEL 2
REMARK VINA RESULT:      -6.3      1.229      1.614
REMARK  Name = 
REMARK  12 active torsions:
REMARK  status: ('A' for Active; 'I' for Inactive)
REMARK    1  A    between atoms: C_1  and  C_2
REMARK    2  A    between atoms: C_2  and  C_3
REMARK    3  A    between atoms: C_3  and  C_4
REMARK    4  A    between atoms: C_4  and  C_5
REMARK    5  A    between atoms: C_5  and  C_6
REMARK    6  A    between atoms: C_6  and  C_7
REMARK    7  A    between atoms: C_7  and  C_8
REMARK    8  A    between atoms: C_8  and  C_9
REMARK    9  A    between atoms: C_9  and  C_10
REMARK   10  A    between atoms: C_10  and  C_11
REMARK   11  A    between atoms: C_11  and  C_12
REMARK   12  A    between atoms: N_14  and  C_15
REMARK                            x       y       z     vdW  Elec       q    Type
REMARK                         _______ _______ _______ _____ _____    ______ ____
ROOT
ATOM      1  C   UNL     1       2.860   2.339  18.302  0.00  0.00    +0.000 C 
ATOM      2  O   UNL     1       3.702   1.467  18.504  0.00  0.00    +0.000 OA
ATOM      3  N   UNL     1       3.146   3.600  17.799  0.00  0.00    +0.000 N 
ATOM      4  H   UNL     1       2.434   4.312  17.902  0.00  0.00    +0.000 HD
ENDROOT
BRANCH   3   5
ATOM      5  C   UNL     1       4.439   4.015  17.394  0.00  0.00    +0.000 A 
ATOM      6  C   UNL     1       4.876   3.920  16.067  0.00  0.00    +0.000 A 
ATOM      7  C   UNL     1       6.183   4.251  15.723  0.00  0.00    +0.000 A 
ATOM      8 CL   UNL     1       6.700   4.079  14.089  0.00  0.00    +0.000 Cl
ATOM      9  C   UNL     1       7.071   4.705  16.687  0.00  0.00    +0.000 A 
ATOM     10  C   UNL     1       6.626   4.849  17.999  0.00  0.00    +0.000 A 
ATOM     11 CL   UNL     1       7.723   5.416  19.202  0.00  0.00    +0.000 Cl
ATOM     12  C   UNL     1       5.314   4.521  18.358  0.00  0.00    +0.000 A 
ENDBRANCH   3   5
BRANCH   1  13
ATOM     13  C   UNL     1       1.402   2.111  18.628  0.00  0.00    +0.000 C 
BRANCH  13  14
ATOM     14  C   UNL     1       1.090   2.823  19.945  0.00  0.00    +0.000 C 
BRANCH  14  15
ATOM     15  C   UNL     1       2.270   2.889  20.900  0.00  0.00    +0.000 C 
BRANCH  15  16
ATOM     16  C   UNL     1       2.382   4.306  21.464  0.00  0.00    +0.000 C 
BRANCH  16  17
ATOM     17  C   UNL     1       1.640   5.302  20.586  0.00  0.00    +0.000 C 
BRANCH  17  18
ATOM     18  C   UNL     1       2.617   6.215  19.853  0.00  0.00    +0.000 C 
BRANCH  18  19
ATOM     19  C   UNL     1       1.928   6.884  18.668  0.00  0.00    +0.000 C 
BRANCH  19  20
ATOM     20  C   UNL     1       2.868   7.856  17.963  0.00  0.00    +0.000 C 
BRANCH  20  21
ATOM     21  C   UNL     1       2.207   9.222  17.804  0.00  0.00    +0.000 C 
BRANCH  21  23
ATOM     22  C   UNL     1      -0.198   9.923  17.973  0.00  0.00    +0.000 C 
ATOM     23  C   UNL     1       0.996   9.359  18.723  0.00  0.00    +0.000 C 
ENDBRANCH  21  23
ENDBRANCH  20  21
ENDBRANCH  19  20
ENDBRANCH  18  19
ENDBRANCH  17  18
ENDBRANCH  16  17
ENDBRANCH  15  16
ENDBRANCH  14  15
ENDBRANCH  13  14
ENDBRANCH   1  13
TORSDOF 11
ENDMDL
MODEL 3
REMARK VINA RESULT:      -6.3      3.823      7.390
REMARK  Name = 
REMARK  12 active torsions:
REMARK  status: ('A' for Active; 'I' for Inactive)
REMARK    1  A    between atoms: C_1  and  C_2
REMARK    2  A    between atoms: C_2  and  C_3
REMARK    3  A    between atoms: C_3  and  C_4
REMARK    4  A    between atoms: C_4  and  C_5
REMARK    5  A    between atoms: C_5  and  C_6
REMARK    6  A    between atoms: C_6  and  C_7
REMARK    7  A    between atoms: C_7  and  C_8
REMARK    8  A    between atoms: C_8  and  C_9
REMARK    9  A    between atoms: C_9  and  C_10
REMARK   10  A    between atoms: C_10  and  C_11
REMARK   11  A    between atoms: C_11  and  C_12
REMARK   12  A    between atoms: N_14  and  C_15
REMARK                            x       y       z     vdW  Elec       q    Type
REMARK                         _______ _______ _______ _____ _____    ______ ____
ROOT
ATOM      1  C   UNL     1       6.378   4.948  18.511  0.00  0.00    +0.000 C 
ATOM      2  O   UNL     1       6.740   5.395  19.598  0.00  0.00    +0.000 OA
ATOM      3  N   UNL     1       5.060   4.664  18.183  0.00  0.00    +0.000 N 
ATOM      4  H   UNL     1       4.901   4.080  17.372  0.00  0.00    +0.000 HD
ENDROOT
BRANCH   3   5
ATOM      5  C   UNL     1       3.961   4.916  19.040  0.00  0.00    +0.000 A 
ATOM      6  C   UNL     1       3.304   3.894  19.737  0.00  0.00    +0.000 A 
ATOM      7  C   UNL     1       2.171   4.167  20.498  0.00  0.00    +0.000 A 
ATOM      8 CL   UNL     1       1.360   2.879  21.304  0.00  0.00    +0.000 Cl
ATOM      9  C   UNL     1       1.686   5.462  20.599  0.00  0.00    +0.000 A 
ATOM     10  C   UNL     1       2.366   6.490  19.950  0.00  0.00    +0.000 A 
ATOM     11 CL   UNL     1       1.772   8.104  20.074  0.00  0.00    +0.000 Cl
ATOM     12  C   UNL     1       3.508   6.230  19.182  0.00  0.00    +0.000 A 
ENDBRANCH   3   5
BRANCH   1  13
ATOM     13  C   UNL     1       7.377   4.631  17.423  0.00  0.00    +0.000 C 
BRANCH  13  14
ATOM     14  C   UNL     1       6.910   5.309  16.133  0.00  0.00    +0.000 C 
BRANCH  14  15
ATOM     15  C   UNL     1       6.768   4.357  14.958  0.00  0.00    +0.000 C 
BRANCH  15  16
ATOM     16  C   UNL     1       7.322   5.026  13.700  0.00  0.00    +0.000 C 
BRANCH  16  17
ATOM     17  C   UNL     1       6.880   4.283  12.448  0.00  0.00    +0.000 C 
BRANCH  17  18
ATOM     18  C   UNL     1       6.061   3.048  12.808  0.00  0.00    +0.000 C 
BRANCH  18  19
ATOM     19  C   UNL     1       4.608   3.236  12.390  0.00  0.00    +0.000 C 
BRANCH  19  20
ATOM     20  C   UNL     1       4.511   3.830  10.988  0.00  0.00    +0.000 C 
BRANCH  20  21
ATOM     21  C   UNL     1       3.154   3.516  10.364  0.00  0.00    +0.000 C 
BRANCH  21  23
ATOM     22  C   UNL     1       2.025   5.217   8.903  0.00  0.00    +0.000 C 
ATOM     23  C   UNL     1       3.048   4.096   8.956  0.00  0.00    +0.000 C 
ENDBRANCH  21  23
ENDBRANCH  20  21
ENDBRANCH  19  20
ENDBRANCH  18  19
ENDBRANCH  17  18
ENDBRANCH  16  17
ENDBRANCH  15  16
ENDBRANCH  14  15
ENDBRANCH  13  14
ENDBRANCH   1  13
TORSDOF 11
ENDMDL
MODEL 4
REMARK VINA RESULT:      -6.1      1.066      2.409
REMARK  Name = 
REMARK  12 active torsions:
REMARK  status: ('A' for Active; 'I' for Inactive)
REMARK    1  A    between atoms: C_1  and  C_2
REMARK    2  A    between atoms: C_2  and  C_3
REMARK    3  A    between atoms: C_3  and  C_4
REMARK    4  A    between atoms: C_4  and  C_5
REMARK    5  A    between atoms: C_5  and  C_6
REMARK    6  A    between atoms: C_6  and  C_7
REMARK    7  A    between atoms: C_7  and  C_8
REMARK    8  A    between atoms: C_8  and  C_9
REMARK    9  A    between atoms: C_9  and  C_10
REMARK   10  A    between atoms: C_10  and  C_11
REMARK   11  A    between atoms: C_11  and  C_12
REMARK   12  A    between atoms: N_14  and  C_15
REMARK                            x       y       z     vdW  Elec       q    Type
REMARK                         _______ _______ _______ _____ _____    ______ ____
ROOT
ATOM      1  C   UNL     1       3.765   2.871  18.565  0.00  0.00    +0.000 C 
ATOM      2  O   UNL     1       3.123   3.062  17.534  0.00  0.00    +0.000 OA
ATOM      3  N   UNL     1       5.054   3.339  18.781  0.00  0.00    +0.000 N 
ATOM      4  H   UNL     1       5.574   2.926  19.544  0.00  0.00    +0.000 HD
ENDROOT
BRANCH   3   5
ATOM      5  C   UNL     1       5.763   4.152  17.863  0.00  0.00    +0.000 A 
ATOM      6  C   UNL     1       6.378   5.352  18.243  0.00  0.00    +0.000 A 
ATOM      7  C   UNL     1       6.988   6.170  17.297  0.00  0.00    +0.000 A 
ATOM      8 CL   UNL     1       7.694   7.660  17.792  0.00  0.00    +0.000 Cl
ATOM      9  C   UNL     1       7.018   5.798  15.960  0.00  0.00    +0.000 A 
ATOM     10  C   UNL     1       6.453   4.581  15.585  0.00  0.00    +0.000 A 
ATOM     11 CL   UNL     1       6.490   4.111  13.927  0.00  0.00    +0.000 Cl
ATOM     12  C   UNL     1       5.838   3.749  16.527  0.00  0.00    +0.000 A 
ENDBRANCH   3   5
BRANCH   1  13
ATOM     13  C   UNL     1       3.196   2.056  19.703  0.00  0.00    +0.000 C 
BRANCH  13  14
ATOM     14  C   UNL     1       3.035   2.975  20.915  0.00  0.00    +0.000 C 
BRANCH  14  15
ATOM     15  C   UNL     1       1.592   3.335  21.222  0.00  0.00    +0.000 C 
BRANCH  15  16
ATOM     16  C   UNL     1       1.135   4.441  20.269  0.00  0.00    +0.000 C 
BRANCH  16  17
ATOM     17  C   UNL     1       1.837   5.753  20.581  0.00  0.00    +0.000 C 
BRANCH  17  18
ATOM     18  C   UNL     1       2.961   6.022  19.587  0.00  0.00    +0.000 C 
BRANCH  18  19
ATOM     19  C   UNL     1       2.392   6.557  18.277  0.00  0.00    +0.000 C 
BRANCH  19  20
ATOM     20  C   UNL     1       2.716   8.037  18.101  0.00  0.00    +0.000 C 
BRANCH  20  21
ATOM     21  C   UNL     1       1.475   8.810  17.665  0.00  0.00    +0.000 C 
BRANCH  21  23
ATOM     22  C   UNL     1       0.959   9.870  19.882  0.00  0.00    +0.000 C 
ATOM     23  C   UNL     1       1.345  10.122  18.434  0.00  0.00    +0.000 C 
ENDBRANCH  21  23
ENDBRANCH  20  21
ENDBRANCH  19  20
ENDBRANCH  18  19
ENDBRANCH  17  18
ENDBRANCH  16  17
ENDBRANCH  15  16
ENDBRANCH  14  15
ENDBRANCH  13  14
ENDBRANCH   1  13
TORSDOF 11
ENDMDL
MODEL 5
REMARK VINA RESULT:      -6.1      1.373      1.677
REMARK  Name = 
REMARK  12 active torsions:
REMARK  status: ('A' for Active; 'I' for Inactive)
REMARK    1  A    between atoms: C_1  and  C_2
REMARK    2  A    between atoms: C_2  and  C_3
REMARK    3  A    between atoms: C_3  and  C_4
REMARK    4  A    between atoms: C_4  and  C_5
REMARK    5  A    between atoms: C_5  and  C_6
REMARK    6  A    between atoms: C_6  and  C_7
REMARK    7  A    between atoms: C_7  and  C_8
REMARK    8  A    between atoms: C_8  and  C_9
REMARK    9  A    between atoms: C_9  and  C_10
REMARK   10  A    between atoms: C_10  and  C_11
REMARK   11  A    between atoms: C_11  and  C_12
REMARK   12  A    between atoms: N_14  and  C_15
REMARK                            x       y       z     vdW  Elec       q    Type
REMARK                         _______ _______ _______ _____ _____    ______ ____
ROOT
ATOM      1  C   UNL     1       4.579   3.029  18.947  0.00  0.00    +0.000 C 
ATOM      2  O   UNL     1       3.937   2.982  17.900  0.00  0.00    +0.000 OA
ATOM      3  N   UNL     1       5.719   3.799  19.131  0.00  0.00    +0.000 N 
ATOM      4  H   UNL     1       6.301   3.581  19.929  0.00  0.00    +0.000 HD
ENDROOT
BRANCH   3   5
ATOM      5  C   UNL     1       6.245   4.677  18.152  0.00  0.00    +0.000 A 
ATOM      6  C   UNL     1       6.238   4.367  16.785  0.00  0.00    +0.000 A 
ATOM      7  C   UNL     1       6.846   5.211  15.861  0.00  0.00    +0.000 A 
ATOM      8 CL   UNL     1       6.859   4.777  14.195  0.00  0.00    +0.000 Cl
ATOM      9  C   UNL     1       7.450   6.390  16.275  0.00  0.00    +0.000 A 
ATOM     10  C   UNL     1       7.415   6.728  17.627  0.00  0.00    +0.000 A 
ATOM     11 CL   UNL     1       8.160   8.192  18.148  0.00  0.00    +0.000 Cl
ATOM     12  C   UNL     1       6.805   5.888  18.566  0.00  0.00    +0.000 A 
ENDBRANCH   3   5
BRANCH   1  13
ATOM     13  C   UNL     1       4.184   2.200  20.147  0.00  0.00    +0.000 C 
BRANCH  13  14
ATOM     14  C   UNL     1       2.686   1.906  20.052  0.00  0.00    +0.000 C 
BRANCH  14  15
ATOM     15  C   UNL     1       1.887   2.407  21.242  0.00  0.00    +0.000 C 
BRANCH  15  16
ATOM     16  C   UNL     1       0.731   3.275  20.743  0.00  0.00    +0.000 C 
BRANCH  16  17
ATOM     17  C   UNL     1       1.231   4.361  19.803  0.00  0.00    +0.000 C 
BRANCH  17  18
ATOM     18  C   UNL     1       1.906   5.486  20.580  0.00  0.00    +0.000 C 
BRANCH  18  19
ATOM     19  C   UNL     1       3.026   6.104  19.750  0.00  0.00    +0.000 C 
BRANCH  19  20
ATOM     20  C   UNL     1       2.597   6.289  18.298  0.00  0.00    +0.000 C 
BRANCH  20  21
ATOM     21  C   UNL     1       3.472   7.333  17.609  0.00  0.00    +0.000 C 
BRANCH  21  23
ATOM     22  C   UNL     1       1.340   8.615  17.942  0.00  0.00    +0.000 C 
ATOM     23  C   UNL     1       2.830   8.716  17.669  0.00  0.00    +0.000 C 
ENDBRANCH  21  23
ENDBRANCH  20  21
ENDBRANCH  19  20
ENDBRANCH  18  19
ENDBRANCH  17  18
ENDBRANCH  16  17
ENDBRANCH  15  16
ENDBRANCH  14  15
ENDBRANCH  13  14
ENDBRANCH   1  13
TORSDOF 11
ENDMDL
MODEL 6
REMARK VINA RESULT:      -6.1      1.320      2.153
REMARK  Name = 
REMARK  12 active torsions:
REMARK  status: ('A' for Active; 'I' for Inactive)
REMARK    1  A    between atoms: C_1  and  C_2
REMARK    2  A    between atoms: C_2  and  C_3
REMARK    3  A    between atoms: C_3  and  C_4
REMARK    4  A    between atoms: C_4  and  C_5
REMARK    5  A    between atoms: C_5  and  C_6
REMARK    6  A    between atoms: C_6  and  C_7
REMARK    7  A    between atoms: C_7  and  C_8
REMARK    8  A    between atoms: C_8  and  C_9
REMARK    9  A    between atoms: C_9  and  C_10
REMARK   10  A    between atoms: C_10  and  C_11
REMARK   11  A    between atoms: C_11  and  C_12
REMARK   12  A    between atoms: N_14  and  C_15
REMARK                            x       y       z     vdW  Elec       q    Type
REMARK                         _______ _______ _______ _____ _____    ______ ____
ROOT
ATOM      1  C   UNL     1       3.518   3.110  18.904  0.00  0.00    +0.000 C 
ATOM      2  O   UNL     1       4.542   2.477  19.158  0.00  0.00    +0.000 OA
ATOM      3  N   UNL     1       3.454   4.164  18.005  0.00  0.00    +0.000 N 
ATOM      4  H   UNL     1       2.641   4.765  18.053  0.00  0.00    +0.000 HD
ENDROOT
BRANCH   3   5
ATOM      5  C   UNL     1       4.549   4.598  17.218  0.00  0.00    +0.000 A 
ATOM      6  C   UNL     1       4.813   4.074  15.946  0.00  0.00    +0.000 A 
ATOM      7  C   UNL     1       5.949   4.458  15.239  0.00  0.00    +0.000 A 
ATOM      8 CL   UNL     1       6.266   3.759  13.699  0.00  0.00    +0.000 Cl
ATOM      9  C   UNL     1       6.829   5.388  15.774  0.00  0.00    +0.000 A 
ATOM     10  C   UNL     1       6.543   5.951  17.016  0.00  0.00    +0.000 A 
ATOM     11 CL   UNL     1       7.630   7.110  17.686  0.00  0.00    +0.000 Cl
ATOM     12  C   UNL     1       5.404   5.574  17.736  0.00  0.00    +0.000 A 
ENDBRANCH   3   5
BRANCH   1  13
ATOM     13  C   UNL     1       2.214   2.801  19.602  0.00  0.00    +0.000 C 
BRANCH  13  14
ATOM     14  C   UNL     1       1.387   4.086  19.660  0.00  0.00    +0.000 C 
BRANCH  14  15
ATOM     15  C   UNL     1       1.622   4.908  20.916  0.00  0.00    +0.000 C 
BRANCH  15  16
ATOM     16  C   UNL     1       1.439   6.391  20.589  0.00  0.00    +0.000 C 
BRANCH  16  17
ATOM     17  C   UNL     1       2.539   6.884  19.661  0.00  0.00    +0.000 C 
BRANCH  17  18
ATOM     18  C   UNL     1       1.964   7.318  18.316  0.00  0.00    +0.000 C 
BRANCH  18  19
ATOM     19  C   UNL     1       2.771   8.479  17.746  0.00  0.00    +0.000 C 
BRANCH  19  20
ATOM     20  C   UNL     1       2.019   9.797  17.898  0.00  0.00    +0.000 C 
BRANCH  20  21
ATOM     21  C   UNL     1       0.512   9.558  17.913  0.00  0.00    +0.000 C 
BRANCH  21  23
ATOM     22  C   UNL     1       0.106   9.867  20.371  0.00  0.00    +0.000 C 
ATOM     23  C   UNL     1      -0.170  10.410  18.980  0.00  0.00    +0.000 C 
ENDBRANCH  21  23
ENDBRANCH  20  21
ENDBRANCH  19  20
ENDBRANCH  18  19
ENDBRANCH  17  18
ENDBRANCH  16  17
ENDBRANCH  15  16
ENDBRANCH  14  15
ENDBRANCH  13  14
ENDBRANCH   1  13
TORSDOF 11
ENDMDL
MODEL 7
REMARK VINA RESULT:      -6.0      2.458      4.408
REMARK  Name = 
REMARK  12 active torsions:
REMARK  status: ('A' for Active; 'I' for Inactive)
REMARK    1  A    between atoms: C_1  and  C_2
REMARK    2  A    between atoms: C_2  and  C_3
REMARK    3  A    between atoms: C_3  and  C_4
REMARK    4  A    between atoms: C_4  and  C_5
REMARK    5  A    between atoms: C_5  and  C_6
REMARK    6  A    between atoms: C_6  and  C_7
REMARK    7  A    between atoms: C_7  and  C_8
REMARK    8  A    between atoms: C_8  and  C_9
REMARK    9  A    between atoms: C_9  and  C_10
REMARK   10  A    between atoms: C_10  and  C_11
REMARK   11  A    between atoms: C_11  and  C_12
REMARK   12  A    between atoms: N_14  and  C_15
REMARK                            x       y       z     vdW  Elec       q    Type
REMARK                         _______ _______ _______ _____ _____    ______ ____
ROOT
ATOM      1  C   UNL     1       6.146   5.617  16.808  0.00  0.00    +0.000 C 
ATOM      2  O   UNL     1       5.960   6.711  16.279  0.00  0.00    +0.000 OA
ATOM      3  N   UNL     1       6.480   4.461  16.116  0.00  0.00    +0.000 N 
ATOM      4  H   UNL     1       6.368   3.581  16.604  0.00  0.00    +0.000 HD
ENDROOT
BRANCH   3   5
ATOM      5  C   UNL     1       6.713   4.417  14.720  0.00  0.00    +0.000 A 
ATOM      6  C   UNL     1       7.587   5.302  14.076  0.00  0.00    +0.000 A 
ATOM      7  C   UNL     1       7.721   5.288  12.691  0.00  0.00    +0.000 A 
ATOM      8 CL   UNL     1       8.769   6.422  11.929  0.00  0.00    +0.000 Cl
ATOM      9  C   UNL     1       7.009   4.378  11.924  0.00  0.00    +0.000 A 
ATOM     10  C   UNL     1       6.177   3.461  12.564  0.00  0.00    +0.000 A 
ATOM     11 CL   UNL     1       5.291   2.325  11.617  0.00  0.00    +0.000 Cl
ATOM     12  C   UNL     1       6.034   3.464  13.956  0.00  0.00    +0.000 A 
ENDBRANCH   3   5
BRANCH   1  13
ATOM     13  C   UNL     1       5.986   5.430  18.299  0.00  0.00    +0.000 C 
BRANCH  13  14
ATOM     14  C   UNL     1       4.751   4.561  18.542  0.00  0.00    +0.000 C 
BRANCH  14  15
ATOM     15  C   UNL     1       3.533   4.992  17.743  0.00  0.00    +0.000 C 
BRANCH  15  16
ATOM     16  C   UNL     1       2.770   3.750  17.281  0.00  0.00    +0.000 C 
BRANCH  16  17
ATOM     17  C   UNL     1       3.397   2.484  17.843  0.00  0.00    +0.000 C 
BRANCH  17  18
ATOM     18  C   UNL     1       2.479   1.830  18.870  0.00  0.00    +0.000 C 
BRANCH  18  19
ATOM     19  C   UNL     1       1.046   2.315  18.683  0.00  0.00    +0.000 C 
BRANCH  19  20
ATOM     20  C   UNL     1       0.572   3.109  19.897  0.00  0.00    +0.000 C 
BRANCH  20  21
ATOM     21  C   UNL     1       1.394   2.746  21.130  0.00  0.00    +0.000 C 
BRANCH  21  23
ATOM     22  C   UNL     1       1.866   5.199  20.880  0.00  0.00    +0.000 C 
ATOM     23  C   UNL     1       2.291   3.906  21.554  0.00  0.00    +0.000 C 
ENDBRANCH  21  23
ENDBRANCH  20  21
ENDBRANCH  19  20
ENDBRANCH  18  19
ENDBRANCH  17  18
ENDBRANCH  16  17
ENDBRANCH  15  16
ENDBRANCH  14  15
ENDBRANCH  13  14
ENDBRANCH   1  13
TORSDOF 11
ENDMDL
MODEL 8
REMARK VINA RESULT:      -6.0      1.257      2.702
REMARK  Name = 
REMARK  12 active torsions:
REMARK  status: ('A' for Active; 'I' for Inactive)
REMARK    1  A    between atoms: C_1  and  C_2
REMARK    2  A    between atoms: C_2  and  C_3
REMARK    3  A    between atoms: C_3  and  C_4
REMARK    4  A    between atoms: C_4  and  C_5
REMARK    5  A    between atoms: C_5  and  C_6
REMARK    6  A    between atoms: C_6  and  C_7
REMARK    7  A    between atoms: C_7  and  C_8
REMARK    8  A    between atoms: C_8  and  C_9
REMARK    9  A    between atoms: C_9  and  C_10
REMARK   10  A    between atoms: C_10  and  C_11
REMARK   11  A    between atoms: C_11  and  C_12
REMARK   12  A    between atoms: N_14  and  C_15
REMARK                            x       y       z     vdW  Elec       q    Type
REMARK                         _______ _______ _______ _____ _____    ______ ____
ROOT
ATOM      1  C   UNL     1       4.014   2.954  18.991  0.00  0.00    +0.000 C 
ATOM      2  O   UNL     1       5.024   3.061  19.684  0.00  0.00    +0.000 OA
ATOM      3  N   UNL     1       3.893   3.458  17.704  0.00  0.00    +0.000 N 
ATOM      4  H   UNL     1       2.959   3.534  17.322  0.00  0.00    +0.000 HD
ENDROOT
BRANCH   3   5
ATOM      5  C   UNL     1       4.944   4.101  17.006  0.00  0.00    +0.000 A 
ATOM      6  C   UNL     1       5.692   5.143  17.569  0.00  0.00    +0.000 A 
ATOM      7  C   UNL     1       6.655   5.813  16.821  0.00  0.00    +0.000 A 
ATOM      8 CL   UNL     1       7.523   7.120  17.530  0.00  0.00    +0.000 Cl
ATOM      9  C   UNL     1       6.911   5.442  15.509  0.00  0.00    +0.000 A 
ATOM     10  C   UNL     1       6.207   4.372  14.960  0.00  0.00    +0.000 A 
ATOM     11 CL   UNL     1       6.521   3.902  13.332  0.00  0.00    +0.000 Cl
ATOM     12  C   UNL     1       5.236   3.690  15.703  0.00  0.00    +0.000 A 
ENDBRANCH   3   5
BRANCH   1  13
ATOM     13  C   UNL     1       2.772   2.273  19.517  0.00  0.00    +0.000 C 
BRANCH  13  14
ATOM     14  C   UNL     1       2.082   3.225  20.495  0.00  0.00    +0.000 C 
BRANCH  14  15
ATOM     15  C   UNL     1       1.422   4.418  19.826  0.00  0.00    +0.000 C 
BRANCH  15  16
ATOM     16  C   UNL     1       1.624   5.659  20.696  0.00  0.00    +0.000 C 
BRANCH  16  17
ATOM     17  C   UNL     1       2.426   6.718  19.956  0.00  0.00    +0.000 C 
BRANCH  17  18
ATOM     18  C   UNL     1       2.391   6.477  18.451  0.00  0.00    +0.000 C 
BRANCH  18  19
ATOM     19  C   UNL     1       2.706   7.766  17.701  0.00  0.00    +0.000 C 
BRANCH  19  20
ATOM     20  C   UNL     1       1.531   8.738  17.759  0.00  0.00    +0.000 C 
BRANCH  20  21
ATOM     21  C   UNL     1       1.971  10.078  18.341  0.00  0.00    +0.000 C 
BRANCH  21  23
ATOM     22  C   UNL     1      -0.315  10.198  19.371  0.00  0.00    +0.000 C 
ATOM     23  C   UNL     1       0.769  10.970  18.639  0.00  0.00    +0.000 C 
ENDBRANCH  21  23
ENDBRANCH  20  21
ENDBRANCH  19  20
ENDBRANCH  18  19
ENDBRANCH  17  18
ENDBRANCH  16  17
ENDBRANCH  15  16
ENDBRANCH  14  15
ENDBRANCH  13  14
ENDBRANCH   1  13
TORSDOF 11
ENDMDL
MODEL 9
REMARK VINA RESULT:      -6.0      1.194      2.327
REMARK  Name = 
REMARK  12 active torsions:
REMARK  status: ('A' for Active; 'I' for Inactive)
REMARK    1  A    between atoms: C_1  and  C_2
REMARK    2  A    between atoms: C_2  and  C_3
REMARK    3  A    between atoms: C_3  and  C_4
REMARK    4  A    between atoms: C_4  and  C_5
REMARK    5  A    between atoms: C_5  and  C_6
REMARK    6  A    between atoms: C_6  and  C_7
REMARK    7  A    between atoms: C_7  and  C_8
REMARK    8  A    between atoms: C_8  and  C_9
REMARK    9  A    between atoms: C_9  and  C_10
REMARK   10  A    between atoms: C_10  and  C_11
REMARK   11  A    between atoms: C_11  and  C_12
REMARK   12  A    between atoms: N_14  and  C_15
REMARK                            x       y       z     vdW  Elec       q    Type
REMARK                         _______ _______ _______ _____ _____    ______ ____
ROOT
ATOM      1  C   UNL     1       4.474   2.872  19.040  0.00  0.00    +0.000 C 
ATOM      2  O   UNL     1       5.159   3.567  19.787  0.00  0.00    +0.000 OA
ATOM      3  N   UNL     1       4.478   2.973  17.656  0.00  0.00    +0.000 N 
ATOM      4  H   UNL     1       3.712   2.538  17.158  0.00  0.00    +0.000 HD
ENDROOT
BRANCH   3   5
ATOM      5  C   UNL     1       5.323   3.848  16.931  0.00  0.00    +0.000 A 
ATOM      6  C   UNL     1       5.880   4.999  17.503  0.00  0.00    +0.000 A 
ATOM      7  C   UNL     1       6.631   5.883  16.736  0.00  0.00    +0.000 A 
ATOM      8 CL   UNL     1       7.262   7.312  17.461  0.00  0.00    +0.000 Cl
ATOM      9  C   UNL     1       6.863   5.627  15.392  0.00  0.00    +0.000 A 
ATOM     10  C   UNL     1       6.355   4.458  14.830  0.00  0.00    +0.000 A 
ATOM     11 CL   UNL     1       6.642   4.131  13.162  0.00  0.00    +0.000 Cl
ATOM     12  C   UNL     1       5.599   3.560  15.592  0.00  0.00    +0.000 A 
ENDBRANCH   3   5
BRANCH   1  13
ATOM     13  C   UNL     1       3.516   1.840  19.590  0.00  0.00    +0.000 C 
BRANCH  13  14
ATOM     14  C   UNL     1       2.089   2.343  19.361  0.00  0.00    +0.000 C 
BRANCH  14  15
ATOM     15  C   UNL     1       1.489   3.048  20.565  0.00  0.00    +0.000 C 
BRANCH  15  16
ATOM     16  C   UNL     1       1.047   4.454  20.157  0.00  0.00    +0.000 C 
BRANCH  16  17
ATOM     17  C   UNL     1       1.936   5.511  20.793  0.00  0.00    +0.000 C 
BRANCH  17  18
ATOM     18  C   UNL     1       2.824   6.177  19.748  0.00  0.00    +0.000 C 
BRANCH  18  19
ATOM     19  C   UNL     1       2.311   5.872  18.345  0.00  0.00    +0.000 C 
BRANCH  19  20
ATOM     20  C   UNL     1       2.611   7.021  17.388  0.00  0.00    +0.000 C 
BRANCH  20  21
ATOM     21  C   UNL     1       2.730   8.338  18.150  0.00  0.00    +0.000 C 
BRANCH  21  23
ATOM     22  C   UNL     1       0.781   9.557  19.160  0.00  0.00    +0.000 C 
ATOM     23  C   UNL     1       1.531   9.242  17.877  0.00  0.00    +0.000 C 
ENDBRANCH  21  23
ENDBRANCH  20  21
ENDBRANCH  19  20
ENDBRANCH  18  19
ENDBRANCH  17  18
ENDBRANCH  16  17
ENDBRANCH  15  16
ENDBRANCH  14  15
ENDBRANCH  13  14
ENDBRANCH   1  13
TORSDOF 11
ENDMDL
