MODEL 1
REMARK VINA RESULT:      -9.1      0.000      0.000
REMARK  Name = 
REMARK  5 active torsions:
REMARK  status: ('A' for Active; 'I' for Inactive)
REMARK    1  A    between atoms: C_1  and  N_2
REMARK    2  A    between atoms: N_2  and  C_3
REMARK    3  A    between atoms: N_2  and  C_14
REMARK    4  A    between atoms: C_3  and  C_4
REMARK    5  A    between atoms: C_16  and  C_17
REMARK                            x       y       z     vdW  Elec       q    Type
REMARK                         _______ _______ _______ _____ _____    ______ ____
ROOT
ATOM      1  C   UNL     1       2.681   6.063  18.654  0.00  0.00    +0.000 A 
ATOM      2  N   UNL     1       3.630   6.080  17.688  0.00  0.00    +0.000 NA
ATOM      3  C   UNL     1       4.299   4.946  17.414  0.00  0.00    +0.000 A 
ATOM      4  N   UNL     1       4.122   3.793  18.067  0.00  0.00    +0.000 NA
ATOM      5  C   UNL     1       3.159   3.745  18.981  0.00  0.00    +0.000 A 
ATOM      6  C   UNL     1       2.988   2.542  19.657  0.00  0.00    +0.000 A 
ATOM      7  C   UNL     1       1.990   2.359  20.614  0.00  0.00    +0.000 A 
ATOM      8  C   UNL     1       1.092   3.383  20.852  0.00  0.00    +0.000 A 
ATOM      9  C   UNL     1       1.240   4.590  20.169  0.00  0.00    +0.000 A 
ATOM     10  C   UNL     1       2.329   4.835  19.282  0.00  0.00    +0.000 A 
ENDROOT
BRANCH   3  11
ATOM     11  C   UNL     1       5.296   4.954  16.329  0.00  0.00    +0.000 A 
ATOM     12  C   UNL     1       5.173   4.179  15.165  0.00  0.00    +0.000 A 
ATOM     13  C   UNL     1       6.150   4.220  14.172  0.00  0.00    +0.000 A 
ATOM     14  C   UNL     1       7.251   5.039  14.360  0.00  0.00    +0.000 A 
ATOM     15  N   UNL     1       7.426   5.804  15.454  0.00  0.00    +0.000 NA
ATOM     16  C   UNL     1       6.453   5.740  16.404  0.00  0.00    +0.000 A 
ENDBRANCH   3  11
BRANCH   1  18
ATOM     17  C   UNL     1       2.041   7.718  20.389  0.00  0.00    +0.000 C 
ATOM     18  N   UNL     1       2.106   7.302  18.988  0.00  0.00    +0.000 N 
BRANCH  18  19
ATOM     19  C   UNL     1       2.249   8.414  18.021  0.00  0.00    +0.000 C 
BRANCH  19  20
ATOM     20  C   UNL     1       1.148   9.443  18.144  0.00  0.00    +0.000 A 
ATOM     21  C   UNL     1       1.407  10.690  18.688  0.00  0.00    +0.000 A 
ATOM     22  N   UNL     1       0.461  11.648  18.818  0.00  0.00    +0.000 NA
ATOM     23  C   UNL     1      -0.777  11.328  18.397  0.00  0.00    +0.000 A 
ATOM     24  C   UNL     1      -1.785  12.276  18.478  0.00  0.00    +0.000 A 
ATOM     25  C   UNL     1      -3.089  11.988  18.076  0.00  0.00    +0.000 A 
ATOM     26  C   UNL     1      -3.390  10.724  17.590  0.00  0.00    +0.000 A 
ATOM     27  C   UNL     1      -2.379   9.765  17.490  0.00  0.00    +0.000 A 
ATOM     28  C   UNL     1      -1.070  10.045  17.872  0.00  0.00    +0.000 A 
ATOM     29  N   UNL     1      -0.110   9.104  17.743  0.00  0.00    +0.000 NA
ENDBRANCH  19  20
ENDBRANCH  18  19
ENDBRANCH   1  18
TORSDOF 4
ENDMDL
MODEL 2
REMARK VINA RESULT:      -9.0      1.190      1.973
REMARK  Name = 
REMARK  5 active torsions:
REMARK  status: ('A' for Active; 'I' for Inactive)
REMARK    1  A    between atoms: C_1  and  N_2
REMARK    2  A    between atoms: N_2  and  C_3
REMARK    3  A    between atoms: N_2  and  C_14
REMARK    4  A    between atoms: C_3  and  C_4
REMARK    5  A    between atoms: C_16  and  C_17
REMARK                            x       y       z     vdW  Elec       q    Type
REMARK                         _______ _______ _______ _____ _____    ______ ____
ROOT
ATOM      1  C   UNL     1       2.773   6.128  18.635  0.00  0.00    +0.000 A 
ATOM      2  N   UNL     1       3.684   6.084  17.635  0.00  0.00    +0.000 NA
ATOM      3  C   UNL     1       4.417   4.968  17.470  0.00  0.00    +0.000 A 
ATOM      4  N   UNL     1       4.339   3.895  18.264  0.00  0.00    +0.000 NA
ATOM      5  C   UNL     1       3.413   3.901  19.217  0.00  0.00    +0.000 A 
ATOM      6  C   UNL     1       3.345   2.781  20.039  0.00  0.00    +0.000 A 
ATOM      7  C   UNL     1       2.395   2.657  21.052  0.00  0.00    +0.000 A 
ATOM      8  C   UNL     1       1.440   3.645  21.204  0.00  0.00    +0.000 A 
ATOM      9  C   UNL     1       1.485   4.766  20.376  0.00  0.00    +0.000 A 
ATOM     10  C   UNL     1       2.524   4.967  19.420  0.00  0.00    +0.000 A 
ENDROOT
BRANCH   3  11
ATOM     11  C   UNL     1       5.373   4.904  16.351  0.00  0.00    +0.000 A 
ATOM     12  C   UNL     1       5.162   4.125  15.202  0.00  0.00    +0.000 A 
ATOM     13  C   UNL     1       6.103   4.096  14.175  0.00  0.00    +0.000 A 
ATOM     14  C   UNL     1       7.257   4.849  14.313  0.00  0.00    +0.000 A 
ATOM     15  N   UNL     1       7.516   5.614  15.390  0.00  0.00    +0.000 NA
ATOM     16  C   UNL     1       6.577   5.619  16.375  0.00  0.00    +0.000 A 
ENDBRANCH   3  11
BRANCH   1  18
ATOM     17  C   UNL     1       1.943   7.862  20.204  0.00  0.00    +0.000 C 
ATOM     18  N   UNL     1       2.130   7.361  18.842  0.00  0.00    +0.000 N 
BRANCH  18  19
ATOM     19  C   UNL     1       2.308   8.414  17.817  0.00  0.00    +0.000 C 
BRANCH  19  20
ATOM     20  C   UNL     1       1.499   9.658  18.109  0.00  0.00    +0.000 A 
ATOM     21  C   UNL     1       0.115   9.610  18.129  0.00  0.00    +0.000 A 
ATOM     22  N   UNL     1      -0.656  10.691  18.388  0.00  0.00    +0.000 NA
ATOM     23  C   UNL     1      -0.008  11.847  18.622  0.00  0.00    +0.000 A 
ATOM     24  C   UNL     1      -0.740  12.986  18.922  0.00  0.00    +0.000 A 
ATOM     25  C   UNL     1      -0.118  14.212  19.149  0.00  0.00    +0.000 A 
ATOM     26  C   UNL     1       1.265  14.302  19.070  0.00  0.00    +0.000 A 
ATOM     27  C   UNL     1       2.015  13.159  18.783  0.00  0.00    +0.000 A 
ATOM     28  C   UNL     1       1.407  11.924  18.570  0.00  0.00    +0.000 A 
ATOM     29  N   UNL     1       2.160  10.832  18.316  0.00  0.00    +0.000 NA
ENDBRANCH  19  20
ENDBRANCH  18  19
ENDBRANCH   1  18
TORSDOF 4
ENDMDL
MODEL 3
REMARK VINA RESULT:      -9.0      2.144      7.942
REMARK  Name = 
REMARK  5 active torsions:
REMARK  status: ('A' for Active; 'I' for Inactive)
REMARK    1  A    between atoms: C_1  and  N_2
REMARK    2  A    between atoms: N_2  and  C_3
REMARK    3  A    between atoms: N_2  and  C_14
REMARK    4  A    between atoms: C_3  and  C_4
REMARK    5  A    between atoms: C_16  and  C_17
REMARK                            x       y       z     vdW  Elec       q    Type
REMARK                         _______ _______ _______ _____ _____    ______ ____
ROOT
ATOM      1  C   UNL     1       3.263   6.059  18.921  0.00  0.00    +0.000 A 
ATOM      2  N   UNL     1       2.709   7.235  19.297  0.00  0.00    +0.000 NA
ATOM      3  C   UNL     1       1.804   7.240  20.292  0.00  0.00    +0.000 A 
ATOM      4  N   UNL     1       1.372   6.141  20.919  0.00  0.00    +0.000 NA
ATOM      5  C   UNL     1       1.943   4.985  20.598  0.00  0.00    +0.000 A 
ATOM      6  C   UNL     1       1.481   3.848  21.254  0.00  0.00    +0.000 A 
ATOM      7  C   UNL     1       2.025   2.585  21.027  0.00  0.00    +0.000 A 
ATOM      8  C   UNL     1       3.107   2.461  20.175  0.00  0.00    +0.000 A 
ATOM      9  C   UNL     1       3.592   3.594  19.523  0.00  0.00    +0.000 A 
ATOM     10  C   UNL     1       2.968   4.870  19.648  0.00  0.00    +0.000 A 
ENDROOT
BRANCH   3  11
ATOM     11  C   UNL     1       1.240   8.527  20.733  0.00  0.00    +0.000 A 
ATOM     12  C   UNL     1       0.759   9.502  19.844  0.00  0.00    +0.000 A 
ATOM     13  C   UNL     1       0.242  10.707  20.316  0.00  0.00    +0.000 A 
ATOM     14  C   UNL     1       0.216  10.926  21.683  0.00  0.00    +0.000 A 
ATOM     15  N   UNL     1       0.662  10.031  22.584  0.00  0.00    +0.000 NA
ATOM     16  C   UNL     1       1.162   8.866  22.090  0.00  0.00    +0.000 A 
ENDBRANCH   3  11
BRANCH   1  18
ATOM     17  C   UNL     1       4.245   7.336  17.033  0.00  0.00    +0.000 C 
ATOM     18  N   UNL     1       4.102   6.094  17.794  0.00  0.00    +0.000 N 
BRANCH  18  19
ATOM     19  C   UNL     1       5.308   5.234  17.802  0.00  0.00    +0.000 C 
BRANCH  19  20
ATOM     20  C   UNL     1       5.914   5.062  16.428  0.00  0.00    +0.000 A 
ATOM     21  C   UNL     1       7.115   5.670  16.106  0.00  0.00    +0.000 A 
ATOM     22  N   UNL     1       7.703   5.546  14.894  0.00  0.00    +0.000 NA
ATOM     23  C   UNL     1       7.051   4.796  13.986  0.00  0.00    +0.000 A 
ATOM     24  C   UNL     1       7.614   4.606  12.734  0.00  0.00    +0.000 A 
ATOM     25  C   UNL     1       6.969   3.858  11.751  0.00  0.00    +0.000 A 
ATOM     26  C   UNL     1       5.732   3.292  12.026  0.00  0.00    +0.000 A 
ATOM     27  C   UNL     1       5.160   3.464  13.289  0.00  0.00    +0.000 A 
ATOM     28  C   UNL     1       5.802   4.196  14.285  0.00  0.00    +0.000 A 
ATOM     29  N   UNL     1       5.234   4.325  15.503  0.00  0.00    +0.000 NA
ENDBRANCH  19  20
ENDBRANCH  18  19
ENDBRANCH   1  18
TORSDOF 4
ENDMDL
MODEL 4
REMARK VINA RESULT:      -8.9      1.941      7.696
REMARK  Name = 
REMARK  5 active torsions:
REMARK  status: ('A' for Active; 'I' for Inactive)
REMARK    1  A    between atoms: C_1  and  N_2
REMARK    2  A    between atoms: N_2  and  C_3
REMARK    3  A    between atoms: N_2  and  C_14
REMARK    4  A    between atoms: C_3  and  C_4
REMARK    5  A    between atoms: C_16  and  C_17
REMARK                            x       y       z     vdW  Elec       q    Type
REMARK                         _______ _______ _______ _____ _____    ______ ____
ROOT
ATOM      1  C   UNL     1       4.108   5.388  19.275  0.00  0.00    +0.000 A 
ATOM      2  N   UNL     1       3.626   6.634  19.057  0.00  0.00    +0.000 NA
ATOM      3  C   UNL     1       2.376   6.928  19.457  0.00  0.00    +0.000 A 
ATOM      4  N   UNL     1       1.544   6.050  20.028  0.00  0.00    +0.000 NA
ATOM      5  C   UNL     1       2.019   4.838  20.296  0.00  0.00    +0.000 A 
ATOM      6  C   UNL     1       1.142   3.932  20.884  0.00  0.00    +0.000 A 
ATOM      7  C   UNL     1       1.533   2.643  21.243  0.00  0.00    +0.000 A 
ATOM      8  C   UNL     1       2.853   2.269  21.076  0.00  0.00    +0.000 A 
ATOM      9  C   UNL     1       3.748   3.172  20.503  0.00  0.00    +0.000 A 
ATOM     10  C   UNL     1       3.336   4.448  20.016  0.00  0.00    +0.000 A 
ENDROOT
BRANCH   3  11
ATOM     11  C   UNL     1       1.873   8.299  19.264  0.00  0.00    +0.000 A 
ATOM     12  C   UNL     1       2.071   9.033  18.084  0.00  0.00    +0.000 A 
ATOM     13  C   UNL     1       1.578  10.330  17.957  0.00  0.00    +0.000 A 
ATOM     14  C   UNL     1       0.892  10.884  19.024  0.00  0.00    +0.000 A 
ATOM     15  N   UNL     1       0.670  10.232  20.181  0.00  0.00    +0.000 NA
ATOM     16  C   UNL     1       1.165   8.967  20.271  0.00  0.00    +0.000 A 
ENDBRANCH   3  11
BRANCH   1  18
ATOM     17  C   UNL     1       6.580   5.371  19.493  0.00  0.00    +0.000 C 
ATOM     18  N   UNL     1       5.367   5.097  18.722  0.00  0.00    +0.000 N 
BRANCH  18  19
ATOM     19  C   UNL     1       5.469   3.940  17.804  0.00  0.00    +0.000 C 
BRANCH  19  20
ATOM     20  C   UNL     1       6.086   4.301  16.472  0.00  0.00    +0.000 A 
ATOM     21  C   UNL     1       7.009   5.330  16.379  0.00  0.00    +0.000 A 
ATOM     22  N   UNL     1       7.594   5.691  15.214  0.00  0.00    +0.000 NA
ATOM     23  C   UNL     1       7.227   5.000  14.119  0.00  0.00    +0.000 A 
ATOM     24  C   UNL     1       7.811   5.303  12.899  0.00  0.00    +0.000 A 
ATOM     25  C   UNL     1       7.449   4.632  11.732  0.00  0.00    +0.000 A 
ATOM     26  C   UNL     1       6.478   3.642  11.786  0.00  0.00    +0.000 A 
ATOM     27  C   UNL     1       5.892   3.317  13.012  0.00  0.00    +0.000 A 
ATOM     28  C   UNL     1       6.257   3.968  14.188  0.00  0.00    +0.000 A 
ATOM     29  N   UNL     1       5.689   3.617  15.362  0.00  0.00    +0.000 NA
ENDBRANCH  19  20
ENDBRANCH  18  19
ENDBRANCH   1  18
TORSDOF 4
ENDMDL
MODEL 5
REMARK VINA RESULT:      -8.9      0.903      1.091
REMARK  Name = 
REMARK  5 active torsions:
REMARK  status: ('A' for Active; 'I' for Inactive)
REMARK    1  A    between atoms: C_1  and  N_2
REMARK    2  A    between atoms: N_2  and  C_3
REMARK    3  A    between atoms: N_2  and  C_14
REMARK    4  A    between atoms: C_3  and  C_4
REMARK    5  A    between atoms: C_16  and  C_17
REMARK                            x       y       z     vdW  Elec       q    Type
REMARK                         _______ _______ _______ _____ _____    ______ ____
ROOT
ATOM      1  C   UNL     1       2.757   6.120  18.611  0.00  0.00    +0.000 A 
ATOM      2  N   UNL     1       3.668   6.078  17.610  0.00  0.00    +0.000 NA
ATOM      3  C   UNL     1       4.409   4.967  17.450  0.00  0.00    +0.000 A 
ATOM      4  N   UNL     1       4.341   3.898  18.250  0.00  0.00    +0.000 NA
ATOM      5  C   UNL     1       3.416   3.902  19.205  0.00  0.00    +0.000 A 
ATOM      6  C   UNL     1       3.359   2.786  20.033  0.00  0.00    +0.000 A 
ATOM      7  C   UNL     1       2.411   2.659  21.048  0.00  0.00    +0.000 A 
ATOM      8  C   UNL     1       1.448   3.641  21.196  0.00  0.00    +0.000 A 
ATOM      9  C   UNL     1       1.483   4.757  20.362  0.00  0.00    +0.000 A 
ATOM     10  C   UNL     1       2.519   4.961  19.403  0.00  0.00    +0.000 A 
ENDROOT
BRANCH   3  11
ATOM     11  C   UNL     1       5.363   4.905  16.330  0.00  0.00    +0.000 A 
ATOM     12  C   UNL     1       5.159   4.115  15.188  0.00  0.00    +0.000 A 
ATOM     13  C   UNL     1       6.099   4.088  14.160  0.00  0.00    +0.000 A 
ATOM     14  C   UNL     1       7.245   4.854  14.290  0.00  0.00    +0.000 A 
ATOM     15  N   UNL     1       7.498   5.631  15.360  0.00  0.00    +0.000 NA
ATOM     16  C   UNL     1       6.560   5.633  16.346  0.00  0.00    +0.000 A 
ENDBRANCH   3  11
BRANCH   1  18
ATOM     17  C   UNL     1       1.986   7.895  20.165  0.00  0.00    +0.000 C 
ATOM     18  N   UNL     1       2.104   7.349  18.812  0.00  0.00    +0.000 N 
BRANCH  18  19
ATOM     19  C   UNL     1       2.203   8.368  17.743  0.00  0.00    +0.000 C 
BRANCH  19  20
ATOM     20  C   UNL     1       1.581   9.689  18.133  0.00  0.00    +0.000 A 
ATOM     21  C   UNL     1       2.354  10.836  18.212  0.00  0.00    +0.000 A 
ATOM     22  N   UNL     1       1.847  12.043  18.552  0.00  0.00    +0.000 NA
ATOM     23  C   UNL     1       0.531  12.084  18.829  0.00  0.00    +0.000 A 
ATOM     24  C   UNL     1      -0.055  13.298  19.157  0.00  0.00    +0.000 A 
ATOM     25  C   UNL     1      -1.409  13.390  19.475  0.00  0.00    +0.000 A 
ATOM     26  C   UNL     1      -2.192  12.244  19.468  0.00  0.00    +0.000 A 
ATOM     27  C   UNL     1      -1.617  11.018  19.124  0.00  0.00    +0.000 A 
ATOM     28  C   UNL     1      -0.269  10.915  18.790  0.00  0.00    +0.000 A 
ATOM     29  N   UNL     1       0.253   9.719  18.441  0.00  0.00    +0.000 NA
ENDBRANCH  19  20
ENDBRANCH  18  19
ENDBRANCH   1  18
TORSDOF 4
ENDMDL
MODEL 6
REMARK VINA RESULT:      -8.4      3.698     10.199
REMARK  Name = 
REMARK  5 active torsions:
REMARK  status: ('A' for Active; 'I' for Inactive)
REMARK    1  A    between atoms: C_1  and  N_2
REMARK    2  A    between atoms: N_2  and  C_3
REMARK    3  A    between atoms: N_2  and  C_14
REMARK    4  A    between atoms: C_3  and  C_4
REMARK    5  A    between atoms: C_16  and  C_17
REMARK                            x       y       z     vdW  Elec       q    Type
REMARK                         _______ _______ _______ _____ _____    ______ ____
ROOT
ATOM      1  C   UNL     1      -2.110  12.275  19.351  0.00  0.00    +0.000 A 
ATOM      2  N   UNL     1      -2.898  12.574  20.410  0.00  0.00    +0.000 NA
ATOM      3  C   UNL     1      -4.227  12.395  20.304  0.00  0.00    +0.000 A 
ATOM      4  N   UNL     1      -4.841  11.974  19.194  0.00  0.00    +0.000 NA
ATOM      5  C   UNL     1      -4.078  11.625  18.163  0.00  0.00    +0.000 A 
ATOM      6  C   UNL     1      -4.730  11.195  17.012  0.00  0.00    +0.000 A 
ATOM      7  C   UNL     1      -4.038  10.771  15.878  0.00  0.00    +0.000 A 
ATOM      8  C   UNL     1      -2.657  10.708  15.917  0.00  0.00    +0.000 A 
ATOM      9  C   UNL     1      -1.991  11.121  17.070  0.00  0.00    +0.000 A 
ATOM     10  C   UNL     1      -2.677  11.674  18.191  0.00  0.00    +0.000 A 
ENDROOT
BRANCH   3  11
ATOM     11  C   UNL     1      -5.077  12.675  21.475  0.00  0.00    +0.000 A 
ATOM     12  C   UNL     1      -6.479  12.614  21.440  0.00  0.00    +0.000 A 
ATOM     13  C   UNL     1      -7.235  12.895  22.576  0.00  0.00    +0.000 A 
ATOM     14  C   UNL     1      -6.574  13.243  23.742  0.00  0.00    +0.000 A 
ATOM     15  N   UNL     1      -5.233  13.320  23.837  0.00  0.00    +0.000 NA
ATOM     16  C   UNL     1      -4.525  13.039  22.709  0.00  0.00    +0.000 A 
ENDBRANCH   3  11
BRANCH   1  18
ATOM     17  C   UNL     1      -0.251  13.857  18.902  0.00  0.00    +0.000 C 
ATOM     18  N   UNL     1      -0.748  12.603  19.470  0.00  0.00    +0.000 N 
BRANCH  18  19
ATOM     19  C   UNL     1      -0.032  12.150  20.685  0.00  0.00    +0.000 C 
BRANCH  19  20
ATOM     20  C   UNL     1       0.549  10.762  20.538  0.00  0.00    +0.000 A 
ATOM     21  C   UNL     1       0.648   9.921  21.634  0.00  0.00    +0.000 A 
ATOM     22  N   UNL     1       1.155   8.669  21.558  0.00  0.00    +0.000 NA
ATOM     23  C   UNL     1       1.580   8.267  20.346  0.00  0.00    +0.000 A 
ATOM     24  C   UNL     1       2.085   6.985  20.196  0.00  0.00    +0.000 A 
ATOM     25  C   UNL     1       2.560   6.529  18.967  0.00  0.00    +0.000 A 
ATOM     26  C   UNL     1       2.534   7.375  17.868  0.00  0.00    +0.000 A 
ATOM     27  C   UNL     1       2.014   8.665  18.003  0.00  0.00    +0.000 A 
ATOM     28  C   UNL     1       1.522   9.127  19.220  0.00  0.00    +0.000 A 
ATOM     29  N   UNL     1       1.005  10.371  19.314  0.00  0.00    +0.000 NA
ENDBRANCH  19  20
ENDBRANCH  18  19
ENDBRANCH   1  18
TORSDOF 4
ENDMDL
MODEL 7
REMARK VINA RESULT:      -8.3      1.359      1.764
REMARK  Name = 
REMARK  5 active torsions:
REMARK  status: ('A' for Active; 'I' for Inactive)
REMARK    1  A    between atoms: C_1  and  N_2
REMARK    2  A    between atoms: N_2  and  C_3
REMARK    3  A    between atoms: N_2  and  C_14
REMARK    4  A    between atoms: C_3  and  C_4
REMARK    5  A    between atoms: C_16  and  C_17
REMARK                            x       y       z     vdW  Elec       q    Type
REMARK                         _______ _______ _______ _____ _____    ______ ____
ROOT
ATOM      1  C   UNL     1       2.998   6.163  19.021  0.00  0.00    +0.000 A 
ATOM      2  N   UNL     1       3.864   6.136  17.980  0.00  0.00    +0.000 NA
ATOM      3  C   UNL     1       4.514   4.991  17.704  0.00  0.00    +0.000 A 
ATOM      4  N   UNL     1       4.397   3.869  18.421  0.00  0.00    +0.000 NA
ATOM      5  C   UNL     1       3.513   3.863  19.414  0.00  0.00    +0.000 A 
ATOM      6  C   UNL     1       3.405   2.692  20.157  0.00  0.00    +0.000 A 
ATOM      7  C   UNL     1       2.491   2.553  21.200  0.00  0.00    +0.000 A 
ATOM      8  C   UNL     1       1.610   3.586  21.465  0.00  0.00    +0.000 A 
ATOM      9  C   UNL     1       1.695   4.760  20.718  0.00  0.00    +0.000 A 
ATOM     10  C   UNL     1       2.706   4.965  19.733  0.00  0.00    +0.000 A 
ENDROOT
BRANCH   3  11
ATOM     11  C   UNL     1       5.417   4.950  16.540  0.00  0.00    +0.000 A 
ATOM     12  C   UNL     1       5.185   4.145  15.414  0.00  0.00    +0.000 A 
ATOM     13  C   UNL     1       6.077   4.139  14.344  0.00  0.00    +0.000 A 
ATOM     14  C   UNL     1       7.202   4.943  14.415  0.00  0.00    +0.000 A 
ATOM     15  N   UNL     1       7.480   5.735  15.468  0.00  0.00    +0.000 NA
ATOM     16  C   UNL     1       6.588   5.716  16.496  0.00  0.00    +0.000 A 
ENDBRANCH   3  11
BRANCH   1  18
ATOM     17  C   UNL     1       2.117   8.361  18.277  0.00  0.00    +0.000 C 
ATOM     18  N   UNL     1       2.447   7.415  19.344  0.00  0.00    +0.000 N 
BRANCH  18  19
ATOM     19  C   UNL     1       1.569   7.497  20.534  0.00  0.00    +0.000 C 
BRANCH  19  20
ATOM     20  C   UNL     1       0.941   8.862  20.705  0.00  0.00    +0.000 A 
ATOM     21  C   UNL     1       1.271   9.658  21.789  0.00  0.00    +0.000 A 
ATOM     22  N   UNL     1       0.743  10.888  21.987  0.00  0.00    +0.000 NA
ATOM     23  C   UNL     1      -0.148  11.312  21.072  0.00  0.00    +0.000 A 
ATOM     24  C   UNL     1      -0.705  12.575  21.204  0.00  0.00    +0.000 A 
ATOM     25  C   UNL     1      -1.649  13.052  20.296  0.00  0.00    +0.000 A 
ATOM     26  C   UNL     1      -2.047  12.247  19.238  0.00  0.00    +0.000 A 
ATOM     27  C   UNL     1      -1.482  10.979  19.085  0.00  0.00    +0.000 A 
ATOM     28  C   UNL     1      -0.526  10.497  19.976  0.00  0.00    +0.000 A 
ATOM     29  N   UNL     1       0.018   9.275  19.791  0.00  0.00    +0.000 NA
ENDBRANCH  19  20
ENDBRANCH  18  19
ENDBRANCH   1  18
TORSDOF 4
ENDMDL
MODEL 8
REMARK VINA RESULT:      -8.3      3.049     10.055
REMARK  Name = 
REMARK  5 active torsions:
REMARK  status: ('A' for Active; 'I' for Inactive)
REMARK    1  A    between atoms: C_1  and  N_2
REMARK    2  A    between atoms: N_2  and  C_3
REMARK    3  A    between atoms: N_2  and  C_14
REMARK    4  A    between atoms: C_3  and  C_4
REMARK    5  A    between atoms: C_16  and  C_17
REMARK                            x       y       z     vdW  Elec       q    Type
REMARK                         _______ _______ _______ _____ _____    ______ ____
ROOT
ATOM      1  C   UNL     1      -1.658  11.829  19.155  0.00  0.00    +0.000 A 
ATOM      2  N   UNL     1      -2.316  12.380  20.202  0.00  0.00    +0.000 NA
ATOM      3  C   UNL     1      -3.655  12.493  20.142  0.00  0.00    +0.000 A 
ATOM      4  N   UNL     1      -4.393  12.132  19.086  0.00  0.00    +0.000 NA
ATOM      5  C   UNL     1      -3.768  11.541  18.073  0.00  0.00    +0.000 A 
ATOM      6  C   UNL     1      -4.545  11.176  16.979  0.00  0.00    +0.000 A 
ATOM      7  C   UNL     1      -4.010  10.521  15.870  0.00  0.00    +0.000 A 
ATOM      8  C   UNL     1      -2.677  10.155  15.884  0.00  0.00    +0.000 A 
ATOM      9  C   UNL     1      -1.889  10.500  16.981  0.00  0.00    +0.000 A 
ATOM     10  C   UNL     1      -2.390  11.279  18.065  0.00  0.00    +0.000 A 
ENDROOT
BRANCH   3  11
ATOM     11  C   UNL     1      -4.374  13.047  21.302  0.00  0.00    +0.000 A 
ATOM     12  C   UNL     1      -4.101  12.673  22.627  0.00  0.00    +0.000 A 
ATOM     13  C   UNL     1      -4.817  13.224  23.688  0.00  0.00    +0.000 A 
ATOM     14  C   UNL     1      -5.810  14.148  23.407  0.00  0.00    +0.000 A 
ATOM     15  N   UNL     1      -6.119  14.546  22.159  0.00  0.00    +0.000 NA
ATOM     16  C   UNL     1      -5.401  13.987  21.146  0.00  0.00    +0.000 A 
ENDBRANCH   3  11
BRANCH   1  18
ATOM     17  C   UNL     1       0.462  13.103  18.949  0.00  0.00    +0.000 C 
ATOM     18  N   UNL     1      -0.253  11.854  19.216  0.00  0.00    +0.000 N 
BRANCH  18  19
ATOM     19  C   UNL     1       0.413  10.957  20.187  0.00  0.00    +0.000 C 
BRANCH  19  20
ATOM     20  C   UNL     1       1.146   9.814  19.521  0.00  0.00    +0.000 A 
ATOM     21  C   UNL     1       1.596   9.931  18.216  0.00  0.00    +0.000 A 
ATOM     22  N   UNL     1       2.259   8.942  17.574  0.00  0.00    +0.000 NA
ATOM     23  C   UNL     1       2.460   7.807  18.269  0.00  0.00    +0.000 A 
ATOM     24  C   UNL     1       3.158   6.765  17.677  0.00  0.00    +0.000 A 
ATOM     25  C   UNL     1       3.373   5.560  18.345  0.00  0.00    +0.000 A 
ATOM     26  C   UNL     1       2.874   5.393  19.629  0.00  0.00    +0.000 A 
ATOM     27  C   UNL     1       2.182   6.441  20.242  0.00  0.00    +0.000 A 
ATOM     28  C   UNL     1       1.975   7.655  19.592  0.00  0.00    +0.000 A 
ATOM     29  N   UNL     1       1.321   8.656  20.218  0.00  0.00    +0.000 NA
ENDBRANCH  19  20
ENDBRANCH  18  19
ENDBRANCH   1  18
TORSDOF 4
ENDMDL
MODEL 9
REMARK VINA RESULT:      -8.2      2.773      8.255
REMARK  Name = 
REMARK  5 active torsions:
REMARK  status: ('A' for Active; 'I' for Inactive)
REMARK    1  A    between atoms: C_1  and  N_2
REMARK    2  A    between atoms: N_2  and  C_3
REMARK    3  A    between atoms: N_2  and  C_14
REMARK    4  A    between atoms: C_3  and  C_4
REMARK    5  A    between atoms: C_16  and  C_17
REMARK                            x       y       z     vdW  Elec       q    Type
REMARK                         _______ _______ _______ _____ _____    ______ ____
ROOT
ATOM      1  C   UNL     1       1.040  10.368  19.239  0.00  0.00    +0.000 A 
ATOM      2  N   UNL     1       1.459  11.559  18.750  0.00  0.00    +0.000 NA
ATOM      3  C   UNL     1       1.247  12.672  19.475  0.00  0.00    +0.000 A 
ATOM      4  N   UNL     1       0.603  12.693  20.647  0.00  0.00    +0.000 NA
ATOM      5  C   UNL     1       0.232  11.527  21.166  0.00  0.00    +0.000 A 
ATOM      6  C   UNL     1      -0.442  11.564  22.382  0.00  0.00    +0.000 A 
ATOM      7  C   UNL     1      -0.852  10.406  23.042  0.00  0.00    +0.000 A 
ATOM      8  C   UNL     1      -0.518   9.174  22.509  0.00  0.00    +0.000 A 
ATOM      9  C   UNL     1       0.172   9.122  21.299  0.00  0.00    +0.000 A 
ATOM     10  C   UNL     1       0.488  10.294  20.550  0.00  0.00    +0.000 A 
ENDROOT
BRANCH   3  11
ATOM     11  C   UNL     1       1.748  13.959  18.963  0.00  0.00    +0.000 A 
ATOM     12  C   UNL     1       2.904  14.076  18.174  0.00  0.00    +0.000 A 
ATOM     13  C   UNL     1       3.337  15.321  17.722  0.00  0.00    +0.000 A 
ATOM     14  C   UNL     1       2.606  16.444  18.073  0.00  0.00    +0.000 A 
ATOM     15  N   UNL     1       1.492  16.396  18.827  0.00  0.00    +0.000 NA
ATOM     16  C   UNL     1       1.097  15.165  19.252  0.00  0.00    +0.000 A 
ENDBRANCH   3  11
BRANCH   1  18
ATOM     17  C   UNL     1       0.151   9.006  17.365  0.00  0.00    +0.000 C 
ATOM     18  N   UNL     1       1.169   9.259  18.385  0.00  0.00    +0.000 N 
BRANCH  18  19
ATOM     19  C   UNL     1       2.537   8.831  18.011  0.00  0.00    +0.000 C 
BRANCH  19  20
ATOM     20  C   UNL     1       2.829   7.400  18.401  0.00  0.00    +0.000 A 
ATOM     21  C   UNL     1       3.699   6.628  17.649  0.00  0.00    +0.000 A 
ATOM     22  N   UNL     1       3.999   5.345  17.956  0.00  0.00    +0.000 NA
ATOM     23  C   UNL     1       3.394   4.832  19.043  0.00  0.00    +0.000 A 
ATOM     24  C   UNL     1       3.680   3.530  19.427  0.00  0.00    +0.000 A 
ATOM     25  C   UNL     1       3.062   2.944  20.531  0.00  0.00    +0.000 A 
ATOM     26  C   UNL     1       2.136   3.674  21.262  0.00  0.00    +0.000 A 
ATOM     27  C   UNL     1       1.850   4.991  20.894  0.00  0.00    +0.000 A 
ATOM     28  C   UNL     1       2.472   5.593  19.804  0.00  0.00    +0.000 A 
ATOM     29  N   UNL     1       2.191   6.876  19.486  0.00  0.00    +0.000 NA
ENDBRANCH  19  20
ENDBRANCH  18  19
ENDBRANCH   1  18
TORSDOF 4
ENDMDL
