MODEL 1
REMARK VINA RESULT:      -8.6      0.000      0.000
REMARK  Name = 
REMARK  9 active torsions:
REMARK  status: ('A' for Active; 'I' for Inactive)
REMARK    1  A    between atoms: C_1  and  O_2
REMARK    2  A    between atoms: O_2  and  C_3
REMARK    3  A    between atoms: C_6  and  C_7
REMARK    4  A    between atoms: C_7  and  N_8
REMARK    5  A    between atoms: N_8  and  C_9
REMARK    6  A    between atoms: C_9  and  C_10
REMARK    7  A    between atoms: C_14  and  C_15
REMARK    8  A    between atoms: C_19  and  C_20
REMARK    9  A    between atoms: C_26  and  C_27
REMARK                            x       y       z     vdW  Elec       q    Type
REMARK                         _______ _______ _______ _____ _____    ______ ____
ROOT
ATOM      1  C   UNL     1       1.589   3.395  19.572  0.00  0.00    +0.000 A 
ATOM      2  C   UNL     1       1.903   3.215  20.918  0.00  0.00    +0.000 A 
ATOM      3  C   UNL     1       2.267   4.313  21.699  0.00  0.00    +0.000 A 
ATOM      4  C   UNL     1       2.288   5.605  21.152  0.00  0.00    +0.000 A 
ATOM      5  C   UNL     1       1.946   5.832  19.812  0.00  0.00    +0.000 A 
ATOM      6  C   UNL     1       1.627   4.696  19.041  0.00  0.00    +0.000 A 
ENDROOT
BRANCH   5   7
ATOM      7  C   UNL     1       1.859   7.184  19.214  0.00  0.00    +0.000 A 
ATOM      8  C   UNL     1       2.387   7.512  17.959  0.00  0.00    +0.000 A 
ATOM      9  C   UNL     1       2.343   8.829  17.478  0.00  0.00    +0.000 A 
ATOM     10  C   UNL     1       1.798   9.878  18.247  0.00  0.00    +0.000 A 
ATOM     11  C   UNL     1       1.277   9.595  19.508  0.00  0.00    +0.000 A 
ATOM     12  C   UNL     1       1.289   8.249  19.934  0.00  0.00    +0.000 A 
BRANCH  11  13
ATOM     13  C   UNL     1       0.700  10.557  20.468  0.00  0.00    +0.000 A 
ATOM     14  N   UNL     1      -0.251  10.164  21.304  0.00  0.00    +0.000 NA
ATOM     15  C   UNL     1      -0.644  11.253  22.002  0.00  0.00    +0.000 A 
ATOM     16  C   UNL     1      -1.661  11.300  22.957  0.00  0.00    +0.000 A 
ATOM     17  C   UNL     1      -1.948  12.526  23.551  0.00  0.00    +0.000 A 
ATOM     18  C   UNL     1      -1.243  13.662  23.171  0.00  0.00    +0.000 A 
ATOM     19  C   UNL     1      -0.213  13.650  22.196  0.00  0.00    +0.000 A 
ATOM     20  C   UNL     1       0.384  14.967  21.794  0.00  0.00    +0.000 C 
ATOM     21  C   UNL     1       0.082  12.384  21.635  0.00  0.00    +0.000 A 
ATOM     22  N   UNL     1       0.986  11.887  20.702  0.00  0.00    +0.000 N 
ATOM     23  H   UNL     1       1.745  12.409  20.282  0.00  0.00    +0.000 HD
ENDBRANCH  11  13
ENDBRANCH   5   7
BRANCH   1  24
ATOM     24  C   UNL     1       1.133   2.257  18.690  0.00  0.00    +0.000 C 
BRANCH  24  25
ATOM     25  N   UNL     1       2.053   1.958  17.590  0.00  0.00    +0.000 NA
ATOM     26  H   UNL     1       1.775   1.075  17.163  0.00  0.00    +0.000 HD
BRANCH  25  27
ATOM     27  C   UNL     1       3.445   1.822  18.029  0.00  0.00    +0.000 C 
BRANCH  27  31
ATOM     28  C   UNL     1       5.486   5.621  17.798  0.00  0.00    +0.000 A 
ATOM     29  C   UNL     1       4.737   5.154  16.717  0.00  0.00    +0.000 A 
ATOM     30  C   UNL     1       4.076   3.929  16.796  0.00  0.00    +0.000 A 
ATOM     31  C   UNL     1       4.179   3.137  17.949  0.00  0.00    +0.000 A 
ATOM     32  C   UNL     1       4.936   3.606  19.028  0.00  0.00    +0.000 A 
ATOM     33  C   UNL     1       5.588   4.841  18.951  0.00  0.00    +0.000 A 
BRANCH  28  35
ATOM     34  C   UNL     1       7.501   6.761  17.351  0.00  0.00    +0.000 C 
ATOM     35  O   UNL     1       6.103   6.826  17.606  0.00  0.00    +0.000 OA
ENDBRANCH  28  35
ENDBRANCH  27  31
ENDBRANCH  25  27
ENDBRANCH  24  25
ENDBRANCH   1  24
TORSDOF 7
ENDMDL
MODEL 2
REMARK VINA RESULT:      -8.4      2.385      4.224
REMARK  Name = 
REMARK  9 active torsions:
REMARK  status: ('A' for Active; 'I' for Inactive)
REMARK    1  A    between atoms: C_1  and  O_2
REMARK    2  A    between atoms: O_2  and  C_3
REMARK    3  A    between atoms: C_6  and  C_7
REMARK    4  A    between atoms: C_7  and  N_8
REMARK    5  A    between atoms: N_8  and  C_9
REMARK    6  A    between atoms: C_9  and  C_10
REMARK    7  A    between atoms: C_14  and  C_15
REMARK    8  A    between atoms: C_19  and  C_20
REMARK    9  A    between atoms: C_26  and  C_27
REMARK                            x       y       z     vdW  Elec       q    Type
REMARK                         _______ _______ _______ _____ _____    ______ ____
ROOT
ATOM      1  C   UNL     1       2.283   6.760  19.588  0.00  0.00    +0.000 A 
ATOM      2  C   UNL     1       2.633   7.232  18.323  0.00  0.00    +0.000 A 
ATOM      3  C   UNL     1       2.220   8.502  17.918  0.00  0.00    +0.000 A 
ATOM      4  C   UNL     1       1.485   9.326  18.782  0.00  0.00    +0.000 A 
ATOM      5  C   UNL     1       1.143   8.902  20.073  0.00  0.00    +0.000 A 
ATOM      6  C   UNL     1       1.535   7.597  20.434  0.00  0.00    +0.000 A 
ENDROOT
BRANCH   5   7
ATOM      7  C   UNL     1       0.453   9.769  21.056  0.00  0.00    +0.000 A 
ATOM      8  C   UNL     1       0.020   9.325  22.312  0.00  0.00    +0.000 A 
ATOM      9  C   UNL     1      -0.698  10.171  23.170  0.00  0.00    +0.000 A 
ATOM     10  C   UNL     1      -1.041  11.485  22.793  0.00  0.00    +0.000 A 
ATOM     11  C   UNL     1      -0.643  11.960  21.545  0.00  0.00    +0.000 A 
ATOM     12  C   UNL     1       0.126  11.097  20.733  0.00  0.00    +0.000 A 
BRANCH  11  13
ATOM     13  C   UNL     1      -0.934  13.285  20.963  0.00  0.00    +0.000 A 
ATOM     14  N   UNL     1      -0.255  13.702  19.903  0.00  0.00    +0.000 NA
ATOM     15  C   UNL     1      -0.667  14.962  19.636  0.00  0.00    +0.000 A 
ATOM     16  C   UNL     1      -0.175  15.797  18.632  0.00  0.00    +0.000 A 
ATOM     17  C   UNL     1      -0.702  17.082  18.530  0.00  0.00    +0.000 A 
ATOM     18  C   UNL     1      -1.672  17.507  19.429  0.00  0.00    +0.000 A 
ATOM     19  C   UNL     1      -2.184  16.687  20.468  0.00  0.00    +0.000 A 
ATOM     20  C   UNL     1      -3.142  17.310  21.441  0.00  0.00    +0.000 C 
ATOM     21  C   UNL     1      -1.657  15.375  20.525  0.00  0.00    +0.000 A 
ATOM     22  N   UNL     1      -1.857  14.249  21.317  0.00  0.00    +0.000 N 
ATOM     23  H   UNL     1      -2.578  14.143  22.019  0.00  0.00    +0.000 HD
ENDBRANCH  11  13
ENDBRANCH   5   7
BRANCH   1  24
ATOM     24  C   UNL     1       2.746   5.419  20.107  0.00  0.00    +0.000 C 
BRANCH  24  25
ATOM     25  N   UNL     1       4.177   5.174  19.910  0.00  0.00    +0.000 NA
ATOM     26  H   UNL     1       4.584   5.982  19.439  0.00  0.00    +0.000 HD
BRANCH  25  27
ATOM     27  C   UNL     1       4.447   3.994  19.083  0.00  0.00    +0.000 C 
BRANCH  27  31
ATOM     28  C   UNL     1       6.829   4.951  15.610  0.00  0.00    +0.000 A 
ATOM     29  C   UNL     1       7.398   4.969  16.885  0.00  0.00    +0.000 A 
ATOM     30  C   UNL     1       6.627   4.656  18.003  0.00  0.00    +0.000 A 
ATOM     31  C   UNL     1       5.265   4.348  17.867  0.00  0.00    +0.000 A 
ATOM     32  C   UNL     1       4.698   4.337  16.589  0.00  0.00    +0.000 A 
ATOM     33  C   UNL     1       5.476   4.639  15.466  0.00  0.00    +0.000 A 
BRANCH  28  35
ATOM     34  C   UNL     1       7.240   4.901  13.289  0.00  0.00    +0.000 C 
ATOM     35  O   UNL     1       7.672   5.288  14.588  0.00  0.00    +0.000 OA
ENDBRANCH  28  35
ENDBRANCH  27  31
ENDBRANCH  25  27
ENDBRANCH  24  25
ENDBRANCH   1  24
TORSDOF 7
ENDMDL
MODEL 3
REMARK VINA RESULT:      -8.3      2.199      3.995
REMARK  Name = 
REMARK  9 active torsions:
REMARK  status: ('A' for Active; 'I' for Inactive)
REMARK    1  A    between atoms: C_1  and  O_2
REMARK    2  A    between atoms: O_2  and  C_3
REMARK    3  A    between atoms: C_6  and  C_7
REMARK    4  A    between atoms: C_7  and  N_8
REMARK    5  A    between atoms: N_8  and  C_9
REMARK    6  A    between atoms: C_9  and  C_10
REMARK    7  A    between atoms: C_14  and  C_15
REMARK    8  A    between atoms: C_19  and  C_20
REMARK    9  A    between atoms: C_26  and  C_27
REMARK                            x       y       z     vdW  Elec       q    Type
REMARK                         _______ _______ _______ _____ _____    ______ ____
ROOT
ATOM      1  C   UNL     1       2.605   6.898  19.348  0.00  0.00    +0.000 A 
ATOM      2  C   UNL     1       2.804   7.368  18.050  0.00  0.00    +0.000 A 
ATOM      3  C   UNL     1       2.219   8.571  17.651  0.00  0.00    +0.000 A 
ATOM      4  C   UNL     1       1.459   9.331  18.552  0.00  0.00    +0.000 A 
ATOM      5  C   UNL     1       1.265   8.910  19.875  0.00  0.00    +0.000 A 
ATOM      6  C   UNL     1       1.831   7.670  20.231  0.00  0.00    +0.000 A 
ENDROOT
BRANCH   5   7
ATOM      7  C   UNL     1       0.554   9.722  20.890  0.00  0.00    +0.000 A 
ATOM      8  C   UNL     1       0.133   9.219  22.127  0.00  0.00    +0.000 A 
ATOM      9  C   UNL     1      -0.606  10.015  23.016  0.00  0.00    +0.000 A 
ATOM     10  C   UNL     1      -0.979  11.334  22.690  0.00  0.00    +0.000 A 
ATOM     11  C   UNL     1      -0.593  11.866  21.461  0.00  0.00    +0.000 A 
ATOM     12  C   UNL     1       0.196  11.053  20.617  0.00  0.00    +0.000 A 
BRANCH  11  13
ATOM     13  C   UNL     1      -0.916  13.205  20.930  0.00  0.00    +0.000 A 
ATOM     14  N   UNL     1      -0.235  13.686  19.899  0.00  0.00    +0.000 NA
ATOM     15  C   UNL     1      -0.681  14.943  19.678  0.00  0.00    +0.000 A 
ATOM     16  C   UNL     1      -0.201  15.833  18.716  0.00  0.00    +0.000 A 
ATOM     17  C   UNL     1      -0.764  17.105  18.660  0.00  0.00    +0.000 A 
ATOM     18  C   UNL     1      -1.759  17.464  19.561  0.00  0.00    +0.000 A 
ATOM     19  C   UNL     1      -2.259  16.587  20.558  0.00  0.00    +0.000 A 
ATOM     20  C   UNL     1      -3.248  17.140  21.542  0.00  0.00    +0.000 C 
ATOM     21  C   UNL     1      -1.695  15.289  20.569  0.00  0.00    +0.000 A 
ATOM     22  N   UNL     1      -1.871  14.126  21.310  0.00  0.00    +0.000 N 
ATOM     23  H   UNL     1      -2.598  13.970  21.997  0.00  0.00    +0.000 HD
ENDBRANCH  11  13
ENDBRANCH   5   7
BRANCH   1  24
ATOM     24  C   UNL     1       3.257   5.634  19.857  0.00  0.00    +0.000 C 
BRANCH  24  25
ATOM     25  N   UNL     1       2.578   4.408  19.431  0.00  0.00    +0.000 NA
ATOM     26  H   UNL     1       2.029   4.052  20.214  0.00  0.00    +0.000 HD
BRANCH  25  27
ATOM     27  C   UNL     1       3.508   3.351  19.022  0.00  0.00    +0.000 C 
BRANCH  27  31
ATOM     28  C   UNL     1       6.461   4.908  16.282  0.00  0.00    +0.000 A 
ATOM     29  C   UNL     1       5.215   4.486  15.815  0.00  0.00    +0.000 A 
ATOM     30  C   UNL     1       4.263   3.988  16.702  0.00  0.00    +0.000 A 
ATOM     31  C   UNL     1       4.553   3.875  18.070  0.00  0.00    +0.000 A 
ATOM     32  C   UNL     1       5.805   4.293  18.533  0.00  0.00    +0.000 A 
ATOM     33  C   UNL     1       6.755   4.805  17.643  0.00  0.00    +0.000 A 
BRANCH  28  35
ATOM     34  C   UNL     1       7.093   4.865  14.011  0.00  0.00    +0.000 C 
ATOM     35  O   UNL     1       7.321   5.365  15.323  0.00  0.00    +0.000 OA
ENDBRANCH  28  35
ENDBRANCH  27  31
ENDBRANCH  25  27
ENDBRANCH  24  25
ENDBRANCH   1  24
TORSDOF 7
ENDMDL
MODEL 4
REMARK VINA RESULT:      -8.3      2.536      9.011
REMARK  Name = 
REMARK  9 active torsions:
REMARK  status: ('A' for Active; 'I' for Inactive)
REMARK    1  A    between atoms: C_1  and  O_2
REMARK    2  A    between atoms: O_2  and  C_3
REMARK    3  A    between atoms: C_6  and  C_7
REMARK    4  A    between atoms: C_7  and  N_8
REMARK    5  A    between atoms: N_8  and  C_9
REMARK    6  A    between atoms: C_9  and  C_10
REMARK    7  A    between atoms: C_14  and  C_15
REMARK    8  A    between atoms: C_19  and  C_20
REMARK    9  A    between atoms: C_26  and  C_27
REMARK                            x       y       z     vdW  Elec       q    Type
REMARK                         _______ _______ _______ _____ _____    ______ ____
ROOT
ATOM      1  C   UNL     1      -1.861  11.928  21.799  0.00  0.00    +0.000 A 
ATOM      2  C   UNL     1      -1.772  11.393  23.083  0.00  0.00    +0.000 A 
ATOM      3  C   UNL     1      -0.885  10.345  23.338  0.00  0.00    +0.000 A 
ATOM      4  C   UNL     1      -0.055   9.847  22.323  0.00  0.00    +0.000 A 
ATOM      5  C   UNL     1      -0.090  10.381  21.028  0.00  0.00    +0.000 A 
ATOM      6  C   UNL     1      -1.029  11.405  20.794  0.00  0.00    +0.000 A 
ENDROOT
BRANCH   5   7
ATOM      7  C   UNL     1       0.831   9.956  19.949  0.00  0.00    +0.000 A 
ATOM      8  C   UNL     1       1.199  10.777  18.876  0.00  0.00    +0.000 A 
ATOM      9  C   UNL     1       2.014  10.292  17.842  0.00  0.00    +0.000 A 
ATOM     10  C   UNL     1       2.467   8.958  17.823  0.00  0.00    +0.000 A 
ATOM     11  C   UNL     1       2.110   8.104  18.864  0.00  0.00    +0.000 A 
ATOM     12  C   UNL     1       1.334   8.644  19.915  0.00  0.00    +0.000 A 
BRANCH  11  13
ATOM     13  C   UNL     1       2.455   6.675  19.002  0.00  0.00    +0.000 A 
ATOM     14  N   UNL     1       2.920   6.006  17.956  0.00  0.00    +0.000 NA
ATOM     15  C   UNL     1       3.074   4.719  18.342  0.00  0.00    +0.000 A 
ATOM     16  C   UNL     1       3.495   3.660  17.537  0.00  0.00    +0.000 A 
ATOM     17  C   UNL     1       3.561   2.390  18.104  0.00  0.00    +0.000 A 
ATOM     18  C   UNL     1       3.192   2.203  19.430  0.00  0.00    +0.000 A 
ATOM     19  C   UNL     1       2.748   3.257  20.271  0.00  0.00    +0.000 A 
ATOM     20  C   UNL     1       2.266   2.897  21.646  0.00  0.00    +0.000 C 
ATOM     21  C   UNL     1       2.726   4.542  19.679  0.00  0.00    +0.000 A 
ATOM     22  N   UNL     1       2.403   5.830  20.092  0.00  0.00    +0.000 N 
ATOM     23  H   UNL     1       2.191   6.108  21.042  0.00  0.00    +0.000 HD
ENDBRANCH  11  13
ENDBRANCH   5   7
BRANCH   1  24
ATOM     24  C   UNL     1      -2.758  13.098  21.472  0.00  0.00    +0.000 C 
BRANCH  24  25
ATOM     25  N   UNL     1      -2.087  14.166  20.727  0.00  0.00    +0.000 NA
ATOM     26  H   UNL     1      -1.695  13.770  19.873  0.00  0.00    +0.000 HD
BRANCH  25  27
ATOM     27  C   UNL     1      -0.988  14.783  21.477  0.00  0.00    +0.000 C 
BRANCH  27  31
ATOM     28  C   UNL     1       2.796  14.306  19.451  0.00  0.00    +0.000 A 
ATOM     29  C   UNL     1       1.635  14.581  18.726  0.00  0.00    +0.000 A 
ATOM     30  C   UNL     1       0.416  14.738  19.384  0.00  0.00    +0.000 A 
ATOM     31  C   UNL     1       0.333  14.593  20.776  0.00  0.00    +0.000 A 
ATOM     32  C   UNL     1       1.497  14.311  21.498  0.00  0.00    +0.000 A 
ATOM     33  C   UNL     1       2.722  14.166  20.838  0.00  0.00    +0.000 A 
BRANCH  28  35
ATOM     34  C   UNL     1       4.161  15.174  17.736  0.00  0.00    +0.000 C 
ATOM     35  O   UNL     1       3.931  14.157  18.704  0.00  0.00    +0.000 OA
ENDBRANCH  28  35
ENDBRANCH  27  31
ENDBRANCH  25  27
ENDBRANCH  24  25
ENDBRANCH   1  24
TORSDOF 7
ENDMDL
MODEL 5
REMARK VINA RESULT:      -8.2      2.623      4.598
REMARK  Name = 
REMARK  9 active torsions:
REMARK  status: ('A' for Active; 'I' for Inactive)
REMARK    1  A    between atoms: C_1  and  O_2
REMARK    2  A    between atoms: O_2  and  C_3
REMARK    3  A    between atoms: C_6  and  C_7
REMARK    4  A    between atoms: C_7  and  N_8
REMARK    5  A    between atoms: N_8  and  C_9
REMARK    6  A    between atoms: C_9  and  C_10
REMARK    7  A    between atoms: C_14  and  C_15
REMARK    8  A    between atoms: C_19  and  C_20
REMARK    9  A    between atoms: C_26  and  C_27
REMARK                            x       y       z     vdW  Elec       q    Type
REMARK                         _______ _______ _______ _____ _____    ______ ____
ROOT
ATOM      1  C   UNL     1       2.021   7.228  19.641  0.00  0.00    +0.000 A 
ATOM      2  C   UNL     1       2.473   7.420  18.336  0.00  0.00    +0.000 A 
ATOM      3  C   UNL     1       2.271   8.649  17.706  0.00  0.00    +0.000 A 
ATOM      4  C   UNL     1       1.648   9.708  18.384  0.00  0.00    +0.000 A 
ATOM      5  C   UNL     1       1.210   9.565  19.707  0.00  0.00    +0.000 A 
ATOM      6  C   UNL     1       1.388   8.298  20.297  0.00  0.00    +0.000 A 
ENDROOT
BRANCH   5   7
ATOM      7  C   UNL     1       0.636  10.679  20.497  0.00  0.00    +0.000 A 
ATOM      8  C   UNL     1      -0.074  10.498  21.690  0.00  0.00    +0.000 A 
ATOM      9  C   UNL     1      -0.663  11.585  22.353  0.00  0.00    +0.000 A 
ATOM     10  C   UNL     1      -0.592  12.893  21.832  0.00  0.00    +0.000 A 
ATOM     11  C   UNL     1       0.092  13.113  20.639  0.00  0.00    +0.000 A 
ATOM     12  C   UNL     1       0.717  12.003  20.030  0.00  0.00    +0.000 A 
BRANCH  11  13
ATOM     13  C   UNL     1       0.244  14.396  19.924  0.00  0.00    +0.000 A 
ATOM     14  N   UNL     1      -0.796  15.209  19.801  0.00  0.00    +0.000 NA
ATOM     15  C   UNL     1      -0.397  16.256  19.044  0.00  0.00    +0.000 A 
ATOM     16  C   UNL     1      -1.192  17.325  18.627  0.00  0.00    +0.000 A 
ATOM     17  C   UNL     1      -0.611  18.298  17.819  0.00  0.00    +0.000 A 
ATOM     18  C   UNL     1       0.718  18.176  17.433  0.00  0.00    +0.000 A 
ATOM     19  C   UNL     1       1.549  17.097  17.829  0.00  0.00    +0.000 A 
ATOM     20  C   UNL     1       2.929  17.026  17.244  0.00  0.00    +0.000 C 
ATOM     21  C   UNL     1       0.943  16.142  18.680  0.00  0.00    +0.000 A 
ATOM     22  N   UNL     1       1.343  14.974  19.322  0.00  0.00    +0.000 N 
ATOM     23  H   UNL     1       2.291  14.621  19.363  0.00  0.00    +0.000 HD
ENDBRANCH  11  13
ENDBRANCH   5   7
BRANCH   1  24
ATOM     24  C   UNL     1       2.258   5.942  20.397  0.00  0.00    +0.000 C 
BRANCH  24  25
ATOM     25  N   UNL     1       2.325   4.758  19.538  0.00  0.00    +0.000 NA
ATOM     26  H   UNL     1       1.516   4.168  19.735  0.00  0.00    +0.000 HD
BRANCH  25  27
ATOM     27  C   UNL     1       3.529   3.953  19.765  0.00  0.00    +0.000 C 
BRANCH  27  31
ATOM     28  C   UNL     1       6.512   4.816  16.763  0.00  0.00    +0.000 A 
ATOM     29  C   UNL     1       5.298   4.226  16.405  0.00  0.00    +0.000 A 
ATOM     30  C   UNL     1       4.336   3.953  17.376  0.00  0.00    +0.000 A 
ATOM     31  C   UNL     1       4.585   4.237  18.727  0.00  0.00    +0.000 A 
ATOM     32  C   UNL     1       5.805   4.822  19.082  0.00  0.00    +0.000 A 
ATOM     33  C   UNL     1       6.764   5.108  18.104  0.00  0.00    +0.000 A 
BRANCH  28  35
ATOM     34  C   UNL     1       6.906   4.667  14.443  0.00  0.00    +0.000 C 
ATOM     35  O   UNL     1       7.386   5.027  15.733  0.00  0.00    +0.000 OA
ENDBRANCH  28  35
ENDBRANCH  27  31
ENDBRANCH  25  27
ENDBRANCH  24  25
ENDBRANCH   1  24
TORSDOF 7
ENDMDL
MODEL 6
REMARK VINA RESULT:      -8.2      4.332     10.192
REMARK  Name = 
REMARK  9 active torsions:
REMARK  status: ('A' for Active; 'I' for Inactive)
REMARK    1  A    between atoms: C_1  and  O_2
REMARK    2  A    between atoms: O_2  and  C_3
REMARK    3  A    between atoms: C_6  and  C_7
REMARK    4  A    between atoms: C_7  and  N_8
REMARK    5  A    between atoms: N_8  and  C_9
REMARK    6  A    between atoms: C_9  and  C_10
REMARK    7  A    between atoms: C_14  and  C_15
REMARK    8  A    between atoms: C_19  and  C_20
REMARK    9  A    between atoms: C_26  and  C_27
REMARK                            x       y       z     vdW  Elec       q    Type
REMARK                         _______ _______ _______ _____ _____    ______ ____
ROOT
ATOM      1  C   UNL     1      -4.363  11.559  17.228  0.00  0.00    +0.000 A 
ATOM      2  C   UNL     1      -4.147  10.954  15.990  0.00  0.00    +0.000 A 
ATOM      3  C   UNL     1      -2.937  10.305  15.737  0.00  0.00    +0.000 A 
ATOM      4  C   UNL     1      -1.947  10.224  16.727  0.00  0.00    +0.000 A 
ATOM      5  C   UNL     1      -2.140  10.790  17.994  0.00  0.00    +0.000 A 
ATOM      6  C   UNL     1      -3.353  11.476  18.201  0.00  0.00    +0.000 A 
ENDROOT
BRANCH   5   7
ATOM      7  C   UNL     1      -1.167  10.649  19.103  0.00  0.00    +0.000 A 
ATOM      8  C   UNL     1      -0.947  11.636  20.072  0.00  0.00    +0.000 A 
ATOM      9  C   UNL     1       0.043  11.478  21.052  0.00  0.00    +0.000 A 
ATOM     10  C   UNL     1       0.876  10.341  21.084  0.00  0.00    +0.000 A 
ATOM     11  C   UNL     1       0.700   9.343  20.128  0.00  0.00    +0.000 A 
ATOM     12  C   UNL     1      -0.344   9.513  19.191  0.00  0.00    +0.000 A 
BRANCH  11  13
ATOM     13  C   UNL     1       1.489   8.105  19.978  0.00  0.00    +0.000 A 
ATOM     14  N   UNL     1       2.266   7.943  18.915  0.00  0.00    +0.000 NA
ATOM     15  C   UNL     1       2.801   6.704  18.997  0.00  0.00    +0.000 A 
ATOM     16  C   UNL     1       3.641   6.103  18.058  0.00  0.00    +0.000 A 
ATOM     17  C   UNL     1       4.068   4.800  18.298  0.00  0.00    +0.000 A 
ATOM     18  C   UNL     1       3.640   4.129  19.437  0.00  0.00    +0.000 A 
ATOM     19  C   UNL     1       2.777   4.707  20.404  0.00  0.00    +0.000 A 
ATOM     20  C   UNL     1       2.296   3.831  21.523  0.00  0.00    +0.000 C 
ATOM     21  C   UNL     1       2.387   6.044  20.152  0.00  0.00    +0.000 A 
ATOM     22  N   UNL     1       1.606   6.998  20.795  0.00  0.00    +0.000 N 
ATOM     23  H   UNL     1       1.209   6.906  21.722  0.00  0.00    +0.000 HD
ENDBRANCH  11  13
ENDBRANCH   5   7
BRANCH   1  24
ATOM     24  C   UNL     1      -5.670  12.227  17.583  0.00  0.00    +0.000 C 
BRANCH  24  25
ATOM     25  N   UNL     1      -5.612  13.019  18.814  0.00  0.00    +0.000 NA
ATOM     26  H   UNL     1      -4.637  13.106  19.099  0.00  0.00    +0.000 HD
BRANCH  25  27
ATOM     27  C   UNL     1      -6.348  12.405  19.924  0.00  0.00    +0.000 C 
BRANCH  27  31
ATOM     28  C   UNL     1      -4.476  13.360  23.697  0.00  0.00    +0.000 A 
ATOM     29  C   UNL     1      -3.701  12.988  22.597  0.00  0.00    +0.000 A 
ATOM     30  C   UNL     1      -4.308  12.685  21.379  0.00  0.00    +0.000 A 
ATOM     31  C   UNL     1      -5.705  12.719  21.251  0.00  0.00    +0.000 A 
ATOM     32  C   UNL     1      -6.478  13.086  22.358  0.00  0.00    +0.000 A 
ATOM     33  C   UNL     1      -5.866  13.403  23.575  0.00  0.00    +0.000 A 
BRANCH  28  35
ATOM     34  C   UNL     1      -2.744  14.591  24.718  0.00  0.00    +0.000 C 
ATOM     35  O   UNL     1      -3.778  13.622  24.843  0.00  0.00    +0.000 OA
ENDBRANCH  28  35
ENDBRANCH  27  31
ENDBRANCH  25  27
ENDBRANCH  24  25
ENDBRANCH   1  24
TORSDOF 7
ENDMDL
MODEL 7
REMARK VINA RESULT:      -8.1      1.929      3.920
REMARK  Name = 
REMARK  9 active torsions:
REMARK  status: ('A' for Active; 'I' for Inactive)
REMARK    1  A    between atoms: C_1  and  O_2
REMARK    2  A    between atoms: O_2  and  C_3
REMARK    3  A    between atoms: C_6  and  C_7
REMARK    4  A    between atoms: C_7  and  N_8
REMARK    5  A    between atoms: N_8  and  C_9
REMARK    6  A    between atoms: C_9  and  C_10
REMARK    7  A    between atoms: C_14  and  C_15
REMARK    8  A    between atoms: C_19  and  C_20
REMARK    9  A    between atoms: C_26  and  C_27
REMARK                            x       y       z     vdW  Elec       q    Type
REMARK                         _______ _______ _______ _____ _____    ______ ____
ROOT
ATOM      1  C   UNL     1       2.294   6.808  19.488  0.00  0.00    +0.000 A 
ATOM      2  C   UNL     1       2.598   7.318  18.227  0.00  0.00    +0.000 A 
ATOM      3  C   UNL     1       2.150   8.589  17.865  0.00  0.00    +0.000 A 
ATOM      4  C   UNL     1       1.424   9.377  18.772  0.00  0.00    +0.000 A 
ATOM      5  C   UNL     1       1.128   8.914  20.061  0.00  0.00    +0.000 A 
ATOM      6  C   UNL     1       1.556   7.609  20.376  0.00  0.00    +0.000 A 
ENDROOT
BRANCH   5   7
ATOM      7  C   UNL     1       0.451   9.742  21.085  0.00  0.00    +0.000 A 
ATOM      8  C   UNL     1      -0.047   9.231  22.290  0.00  0.00    +0.000 A 
ATOM      9  C   UNL     1      -0.749  10.049  23.187  0.00  0.00    +0.000 A 
ATOM     10  C   UNL     1      -1.010  11.405  22.901  0.00  0.00    +0.000 A 
ATOM     11  C   UNL     1      -0.545  11.947  21.705  0.00  0.00    +0.000 A 
ATOM     12  C   UNL     1       0.205  11.106  20.853  0.00  0.00    +0.000 A 
BRANCH  11  13
ATOM     13  C   UNL     1      -0.747  13.326  21.215  0.00  0.00    +0.000 A 
ATOM     14  N   UNL     1      -0.409  13.640  19.972  0.00  0.00    +0.000 NA
ATOM     15  C   UNL     1      -0.625  14.966  19.823  0.00  0.00    +0.000 A 
ATOM     16  C   UNL     1      -0.355  15.724  18.682  0.00  0.00    +0.000 A 
ATOM     17  C   UNL     1      -0.613  17.091  18.726  0.00  0.00    +0.000 A 
ATOM     18  C   UNL     1      -1.104  17.667  19.892  0.00  0.00    +0.000 A 
ATOM     19  C   UNL     1      -1.377  16.927  21.071  0.00  0.00    +0.000 A 
ATOM     20  C   UNL     1      -1.790  17.690  22.295  0.00  0.00    +0.000 C 
ATOM     21  C   UNL     1      -1.139  15.534  20.986  0.00  0.00    +0.000 A 
ATOM     22  N   UNL     1      -1.274  14.441  21.835  0.00  0.00    +0.000 N 
ATOM     23  H   UNL     1      -1.712  14.455  22.748  0.00  0.00    +0.000 HD
ENDBRANCH  11  13
ENDBRANCH   5   7
BRANCH   1  24
ATOM     24  C   UNL     1       2.799   5.464  19.959  0.00  0.00    +0.000 C 
BRANCH  24  25
ATOM     25  N   UNL     1       2.652   4.398  18.964  0.00  0.00    +0.000 NA
ATOM     26  H   UNL     1       1.988   3.711  19.320  0.00  0.00    +0.000 HD
BRANCH  25  27
ATOM     27  C   UNL     1       3.911   3.700  18.685  0.00  0.00    +0.000 C 
BRANCH  27  31
ATOM     28  C   UNL     1       6.930   6.492  17.365  0.00  0.00    +0.000 A 
ATOM     29  C   UNL     1       5.901   6.104  16.505  0.00  0.00    +0.000 A 
ATOM     30  C   UNL     1       4.926   5.206  16.935  0.00  0.00    +0.000 A 
ATOM     31  C   UNL     1       4.982   4.657  18.225  0.00  0.00    +0.000 A 
ATOM     32  C   UNL     1       6.018   5.044  19.081  0.00  0.00    +0.000 A 
ATOM     33  C   UNL     1       6.988   5.955  18.652  0.00  0.00    +0.000 A 
BRANCH  28  35
ATOM     34  C   UNL     1       8.122   8.509  17.632  0.00  0.00    +0.000 C 
ATOM     35  O   UNL     1       7.838   7.365  16.834  0.00  0.00    +0.000 OA
ENDBRANCH  28  35
ENDBRANCH  27  31
ENDBRANCH  25  27
ENDBRANCH  24  25
ENDBRANCH   1  24
TORSDOF 7
ENDMDL
MODEL 8
REMARK VINA RESULT:      -8.1      1.274      1.837
REMARK  Name = 
REMARK  9 active torsions:
REMARK  status: ('A' for Active; 'I' for Inactive)
REMARK    1  A    between atoms: C_1  and  O_2
REMARK    2  A    between atoms: O_2  and  C_3
REMARK    3  A    between atoms: C_6  and  C_7
REMARK    4  A    between atoms: C_7  and  N_8
REMARK    5  A    between atoms: N_8  and  C_9
REMARK    6  A    between atoms: C_9  and  C_10
REMARK    7  A    between atoms: C_14  and  C_15
REMARK    8  A    between atoms: C_19  and  C_20
REMARK    9  A    between atoms: C_26  and  C_27
REMARK                            x       y       z     vdW  Elec       q    Type
REMARK                         _______ _______ _______ _____ _____    ______ ____
ROOT
ATOM      1  C   UNL     1       2.304   4.551  18.753  0.00  0.00    +0.000 A 
ATOM      2  C   UNL     1       2.067   4.138  20.064  0.00  0.00    +0.000 A 
ATOM      3  C   UNL     1       1.814   5.087  21.055  0.00  0.00    +0.000 A 
ATOM      4  C   UNL     1       1.761   6.453  20.742  0.00  0.00    +0.000 A 
ATOM      5  C   UNL     1       1.960   6.905  19.431  0.00  0.00    +0.000 A 
ATOM      6  C   UNL     1       2.258   5.925  18.464  0.00  0.00    +0.000 A 
ENDROOT
BRANCH   5   7
ATOM      7  C   UNL     1       1.819   8.325  19.032  0.00  0.00    +0.000 A 
ATOM      8  C   UNL     1       2.393   8.866  17.875  0.00  0.00    +0.000 A 
ATOM      9  C   UNL     1       2.291  10.235  17.590  0.00  0.00    +0.000 A 
ATOM     10  C   UNL     1       1.638  11.125  18.466  0.00  0.00    +0.000 A 
ATOM     11  C   UNL     1       1.066  10.629  19.635  0.00  0.00    +0.000 A 
ATOM     12  C   UNL     1       1.142   9.237  19.861  0.00  0.00    +0.000 A 
BRANCH  11  13
ATOM     13  C   UNL     1       0.376  11.403  20.686  0.00  0.00    +0.000 A 
ATOM     14  N   UNL     1      -0.672  10.881  21.308  0.00  0.00    +0.000 NA
ATOM     15  C   UNL     1      -1.148  11.825  22.151  0.00  0.00    +0.000 A 
ATOM     16  C   UNL     1      -2.276  11.714  22.966  0.00  0.00    +0.000 A 
ATOM     17  C   UNL     1      -2.633  12.809  23.746  0.00  0.00    +0.000 A 
ATOM     18  C   UNL     1      -1.885  13.979  23.682  0.00  0.00    +0.000 A 
ATOM     19  C   UNL     1      -0.742  14.129  22.855  0.00  0.00    +0.000 A 
ATOM     20  C   UNL     1      -0.099  15.483  22.791  0.00  0.00    +0.000 C 
ATOM     21  C   UNL     1      -0.381  12.987  22.101  0.00  0.00    +0.000 A 
ATOM     22  N   UNL     1       0.631  12.656  21.206  0.00  0.00    +0.000 N 
ATOM     23  H   UNL     1       1.437  13.230  20.991  0.00  0.00    +0.000 HD
ENDBRANCH  11  13
ENDBRANCH   5   7
BRANCH   1  24
ATOM     24  C   UNL     1       2.527   3.571  17.625  0.00  0.00    +0.000 C 
BRANCH  24  25
ATOM     25  N   UNL     1       3.454   4.054  16.600  0.00  0.00    +0.000 NA
ATOM     26  H   UNL     1       3.155   3.692  15.694  0.00  0.00    +0.000 HD
BRANCH  25  27
ATOM     27  C   UNL     1       4.835   3.614  16.823  0.00  0.00    +0.000 C 
BRANCH  27  31
ATOM     28  C   UNL     1       7.429   6.883  17.933  0.00  0.00    +0.000 A 
ATOM     29  C   UNL     1       7.696   5.586  18.376  0.00  0.00    +0.000 A 
ATOM     30  C   UNL     1       6.859   4.533  18.013  0.00  0.00    +0.000 A 
ATOM     31  C   UNL     1       5.722   4.765  17.224  0.00  0.00    +0.000 A 
ATOM     32  C   UNL     1       5.455   6.066  16.788  0.00  0.00    +0.000 A 
ATOM     33  C   UNL     1       6.303   7.121  17.142  0.00  0.00    +0.000 A 
BRANCH  28  35
ATOM     34  C   UNL     1       8.054   9.156  17.882  0.00  0.00    +0.000 C 
ATOM     35  O   UNL     1       8.306   7.840  18.361  0.00  0.00    +0.000 OA
ENDBRANCH  28  35
ENDBRANCH  27  31
ENDBRANCH  25  27
ENDBRANCH  24  25
ENDBRANCH   1  24
TORSDOF 7
ENDMDL
MODEL 9
REMARK VINA RESULT:      -8.1      3.576     10.638
REMARK  Name = 
REMARK  9 active torsions:
REMARK  status: ('A' for Active; 'I' for Inactive)
REMARK    1  A    between atoms: C_1  and  O_2
REMARK    2  A    between atoms: O_2  and  C_3
REMARK    3  A    between atoms: C_6  and  C_7
REMARK    4  A    between atoms: C_7  and  N_8
REMARK    5  A    between atoms: N_8  and  C_9
REMARK    6  A    between atoms: C_9  and  C_10
REMARK    7  A    between atoms: C_14  and  C_15
REMARK    8  A    between atoms: C_19  and  C_20
REMARK    9  A    between atoms: C_26  and  C_27
REMARK                            x       y       z     vdW  Elec       q    Type
REMARK                         _______ _______ _______ _____ _____    ______ ____
ROOT
ATOM      1  C   UNL     1       1.310   8.784  20.446  0.00  0.00    +0.000 A 
ATOM      2  C   UNL     1       1.004   9.594  19.353  0.00  0.00    +0.000 A 
ATOM      3  C   UNL     1       1.432   9.228  18.076  0.00  0.00    +0.000 A 
ATOM      4  C   UNL     1       2.138   8.033  17.873  0.00  0.00    +0.000 A 
ATOM      5  C   UNL     1       2.435   7.175  18.940  0.00  0.00    +0.000 A 
ATOM      6  C   UNL     1       2.029   7.597  20.221  0.00  0.00    +0.000 A 
ENDROOT
BRANCH   5   7
ATOM      7  C   UNL     1       3.092   5.858  18.765  0.00  0.00    +0.000 A 
ATOM      8  C   UNL     1       3.138   4.877  19.763  0.00  0.00    +0.000 A 
ATOM      9  C   UNL     1       3.843   3.680  19.566  0.00  0.00    +0.000 A 
ATOM     10  C   UNL     1       4.556   3.430  18.376  0.00  0.00    +0.000 A 
ATOM     11  C   UNL     1       4.548   4.388  17.365  0.00  0.00    +0.000 A 
ATOM     12  C   UNL     1       3.782   5.556  17.578  0.00  0.00    +0.000 A 
BRANCH  11  13
ATOM     13  C   UNL     1       5.257   4.324  16.072  0.00  0.00    +0.000 A 
ATOM     14  N   UNL     1       6.308   5.103  15.858  0.00  0.00    +0.000 NA
ATOM     15  C   UNL     1       6.705   4.895  14.582  0.00  0.00    +0.000 A 
ATOM     16  C   UNL     1       7.748   5.549  13.924  0.00  0.00    +0.000 A 
ATOM     17  C   UNL     1       7.989   5.225  12.592  0.00  0.00    +0.000 A 
ATOM     18  C   UNL     1       7.186   4.292  11.949  0.00  0.00    +0.000 A 
ATOM     19  C   UNL     1       6.110   3.620  12.585  0.00  0.00    +0.000 A 
ATOM     20  C   UNL     1       5.249   2.725  11.742  0.00  0.00    +0.000 C 
ATOM     21  C   UNL     1       5.912   3.941  13.949  0.00  0.00    +0.000 A 
ATOM     22  N   UNL     1       5.039   3.542  14.956  0.00  0.00    +0.000 N 
ATOM     23  H   UNL     1       4.372   2.783  14.890  0.00  0.00    +0.000 HD
ENDBRANCH  11  13
ENDBRANCH   5   7
BRANCH   1  24
ATOM     24  C   UNL     1       0.827   9.096  21.843  0.00  0.00    +0.000 C 
BRANCH  24  25
ATOM     25  N   UNL     1      -0.583   9.488  21.905  0.00  0.00    +0.000 NA
ATOM     26  H   UNL     1      -0.830   9.953  21.032  0.00  0.00    +0.000 HD
BRANCH  25  27
ATOM     27  C   UNL     1      -0.871  10.417  23.003  0.00  0.00    +0.000 C 
BRANCH  27  31
ATOM     28  C   UNL     1      -3.250  13.782  21.712  0.00  0.00    +0.000 A 
ATOM     29  C   UNL     1      -3.427  13.237  22.985  0.00  0.00    +0.000 A 
ATOM     30  C   UNL     1      -2.655  12.153  23.400  0.00  0.00    +0.000 A 
ATOM     31  C   UNL     1      -1.713  11.577  22.535  0.00  0.00    +0.000 A 
ATOM     32  C   UNL     1      -1.543  12.123  21.259  0.00  0.00    +0.000 A 
ATOM     33  C   UNL     1      -2.309  13.218  20.849  0.00  0.00    +0.000 A 
BRANCH  28  35
ATOM     34  C   UNL     1      -4.599  15.538  22.523  0.00  0.00    +0.000 C 
ATOM     35  O   UNL     1      -4.070  14.832  21.406  0.00  0.00    +0.000 OA
ENDBRANCH  28  35
ENDBRANCH  27  31
ENDBRANCH  25  27
ENDBRANCH  24  25
ENDBRANCH   1  24
TORSDOF 7
ENDMDL
