MODEL 1
REMARK VINA RESULT:      -6.3      0.000      0.000
REMARK  Name = 
REMARK  2 active torsions:
REMARK  status: ('A' for Active; 'I' for Inactive)
REMARK    1  A    between atoms: C_2  and  C_3
REMARK    2  A    between atoms: N_16  and  C_17
REMARK                            x       y       z     vdW  Elec       q    Type
REMARK                         _______ _______ _______ _____ _____    ______ ____
ROOT
ATOM      1  O   UNL     1       9.614  12.079  21.706  0.00  0.00    +0.000 OA
ATOM      2  C   UNL     1       9.091  12.905  22.426  0.00  0.00    +0.000 C 
ATOM      3  N   UNL     1       9.457  14.265  22.361  0.00  0.00    +0.000 N 
ATOM      4  C   UNL     1       9.284  15.151  23.512  0.00  0.00    +0.000 C 
ATOM      5  C   UNL     1       8.574  16.463  23.198  0.00  0.00    +0.000 C 
ATOM      6  O   UNL     1       9.382  17.244  22.336  0.00  0.00    +0.000 OA
ATOM      7  C   UNL     1       9.055  17.123  20.960  0.00  0.00    +0.000 C 
ATOM      8  C   UNL     1       9.069  15.723  20.282  0.00  0.00    +0.000 C 
ATOM      9  C   UNL     1      10.113  14.841  21.129  0.00  0.00    +0.000 C 
ATOM     10  C   UNL     1       7.832  14.804  20.164  0.00  0.00    +0.000 C 
ATOM     11  N   UNL     1       7.867  13.953  18.921  0.00  0.00    +0.000 N 
ATOM     12  C   UNL     1       7.395  14.832  17.933  0.00  0.00    +0.000 C 
ATOM     13  O   UNL     1       6.346  14.662  17.324  0.00  0.00    +0.000 OA
ATOM     14  C   UNL     1       8.212  16.143  17.967  0.00  0.00    +0.000 C 
ATOM     15  O   UNL     1       9.360  16.148  18.895  0.00  0.00    +0.000 OA
ENDROOT
BRANCH   2  16
ATOM     16  C   UNL     1       7.966  12.460  23.319  0.00  0.00    +0.000 A 
ATOM     17  C   UNL     1       8.121  11.761  24.553  0.00  0.00    +0.000 A 
ATOM     18  C   UNL     1       6.852  11.506  25.012  0.00  0.00    +0.000 A 
ATOM     19  N   UNL     1       6.010  12.005  24.070  0.00  0.00    +0.000 N 
ATOM     20  N   UNL     1       6.653  12.573  23.020  0.00  0.00    +0.000 NA
ATOM     21  H   UNL     1       4.994  11.991  24.061  0.00  0.00    +0.000 HD
ENDBRANCH   2  16
BRANCH  11  22
ATOM     22  C   UNL     1       9.122  13.258  18.537  0.00  0.00    +0.000 A 
ATOM     23  C   UNL     1      10.120  13.807  17.690  0.00  0.00    +0.000 A 
ATOM     24  C   UNL     1      11.327  13.170  17.384  0.00  0.00    +0.000 A 
ATOM     25  C   UNL     1      11.539  11.880  17.825  0.00  0.00    +0.000 A 
ATOM     26  C   UNL     1      10.533  11.263  18.573  0.00  0.00    +0.000 A 
ATOM     27  C   UNL     1       9.346  11.939  18.925  0.00  0.00    +0.000 A 
ENDBRANCH  11  22
TORSDOF 2
ENDMDL
MODEL 2
REMARK VINA RESULT:      -6.1      9.209     10.641
REMARK  Name = 
REMARK  2 active torsions:
REMARK  status: ('A' for Active; 'I' for Inactive)
REMARK    1  A    between atoms: C_2  and  C_3
REMARK    2  A    between atoms: N_16  and  C_17
REMARK                            x       y       z     vdW  Elec       q    Type
REMARK                         _______ _______ _______ _____ _____    ______ ____
ROOT
ATOM      1  O   UNL     1      -1.752  10.945  23.193  0.00  0.00    +0.000 OA
ATOM      2  C   UNL     1      -2.159  12.087  23.253  0.00  0.00    +0.000 C 
ATOM      3  N   UNL     1      -1.338  13.174  22.891  0.00  0.00    +0.000 N 
ATOM      4  C   UNL     1      -1.565  14.510  23.442  0.00  0.00    +0.000 C 
ATOM      5  C   UNL     1      -1.616  15.623  22.401  0.00  0.00    +0.000 C 
ATOM      6  O   UNL     1      -0.346  15.760  21.791  0.00  0.00    +0.000 OA
ATOM      7  C   UNL     1      -0.211  15.069  20.559  0.00  0.00    +0.000 C 
ATOM      8  C   UNL     1      -0.464  13.534  20.502  0.00  0.00    +0.000 C 
ATOM      9  C   UNL     1      -0.148  12.987  21.980  0.00  0.00    +0.000 C 
ATOM     10  C   UNL     1      -1.828  12.892  20.163  0.00  0.00    +0.000 C 
ATOM     11  N   UNL     1      -1.679  11.567  19.461  0.00  0.00    +0.000 N 
ATOM     12  C   UNL     1      -1.450  11.949  18.129  0.00  0.00    +0.000 C 
ATOM     13  O   UNL     1      -2.220  11.695  17.213  0.00  0.00    +0.000 OA
ATOM     14  C   UNL     1      -0.285  12.963  18.071  0.00  0.00    +0.000 C 
ATOM     15  O   UNL     1       0.407  13.205  19.352  0.00  0.00    +0.000 OA
ENDROOT
BRANCH   2  16
ATOM     16  C   UNL     1      -3.598  12.309  23.626  0.00  0.00    +0.000 A 
ATOM     17  C   UNL     1      -4.564  12.986  22.823  0.00  0.00    +0.000 A 
ATOM     18  C   UNL     1      -5.725  13.008  23.556  0.00  0.00    +0.000 A 
ATOM     19  N   UNL     1      -5.431  12.404  24.736  0.00  0.00    +0.000 N 
ATOM     20  N   UNL     1      -4.143  11.985  24.820  0.00  0.00    +0.000 NA
ATOM     21  H   UNL     1      -6.040  12.247  25.534  0.00  0.00    +0.000 HD
ENDBRANCH   2  16
BRANCH  11  22
ATOM     22  C   UNL     1      -0.699  10.571  19.963  0.00  0.00    +0.000 A 
ATOM     23  C   UNL     1       0.555  10.298  19.357  0.00  0.00    +0.000 A 
ATOM     24  C   UNL     1       1.498   9.404  19.873  0.00  0.00    +0.000 A 
ATOM     25  C   UNL     1       1.171   8.640  20.973  0.00  0.00    +0.000 A 
ATOM     26  C   UNL     1      -0.098   8.801  21.538  0.00  0.00    +0.000 A 
ATOM     27  C   UNL     1      -1.016   9.751  21.044  0.00  0.00    +0.000 A 
ENDBRANCH  11  22
TORSDOF 2
ENDMDL
MODEL 3
REMARK VINA RESULT:      -6.0      7.861      9.906
REMARK  Name = 
REMARK  2 active torsions:
REMARK  status: ('A' for Active; 'I' for Inactive)
REMARK    1  A    between atoms: C_2  and  C_3
REMARK    2  A    between atoms: N_16  and  C_17
REMARK                            x       y       z     vdW  Elec       q    Type
REMARK                         _______ _______ _______ _____ _____    ______ ____
ROOT
ATOM      1  O   UNL     1      -0.256  13.737  22.196  0.00  0.00    +0.000 OA
ATOM      2  C   UNL     1       0.137  14.450  21.295  0.00  0.00    +0.000 C 
ATOM      3  N   UNL     1       1.296  14.127  20.562  0.00  0.00    +0.000 N 
ATOM      4  C   UNL     1       2.081  15.164  19.891  0.00  0.00    +0.000 C 
ATOM      5  C   UNL     1       2.407  14.864  18.432  0.00  0.00    +0.000 C 
ATOM      6  O   UNL     1       3.267  13.741  18.359  0.00  0.00    +0.000 OA
ATOM      7  C   UNL     1       2.603  12.511  18.117  0.00  0.00    +0.000 C 
ATOM      8  C   UNL     1       1.482  12.034  19.084  0.00  0.00    +0.000 C 
ATOM      9  C   UNL     1       1.816  12.710  20.504  0.00  0.00    +0.000 C 
ATOM     10  C   UNL     1      -0.021  12.333  18.886  0.00  0.00    +0.000 C 
ATOM     11  N   UNL     1      -0.901  11.237  19.430  0.00  0.00    +0.000 N 
ATOM     12  C   UNL     1      -0.883  10.287  18.395  0.00  0.00    +0.000 C 
ATOM     13  O   UNL     1      -1.875   9.974  17.750  0.00  0.00    +0.000 OA
ATOM     14  C   UNL     1       0.578   9.957  18.015  0.00  0.00    +0.000 C 
ATOM     15  O   UNL     1       1.609  10.574  18.873  0.00  0.00    +0.000 OA
ENDROOT
BRANCH   2  16
ATOM     16  C   UNL     1      -0.703  15.636  20.910  0.00  0.00    +0.000 A 
ATOM     17  C   UNL     1      -0.850  16.827  21.681  0.00  0.00    +0.000 A 
ATOM     18  C   UNL     1      -1.736  17.621  20.995  0.00  0.00    +0.000 A 
ATOM     19  N   UNL     1      -2.106  16.906  19.902  0.00  0.00    +0.000 N 
ATOM     20  N   UNL     1      -1.513  15.688  19.829  0.00  0.00    +0.000 NA
ATOM     21  H   UNL     1      -2.759  17.167  19.168  0.00  0.00    +0.000 HD
ENDBRANCH   2  16
BRANCH  11  22
ATOM     22  C   UNL     1      -0.615  10.654  20.766  0.00  0.00    +0.000 A 
ATOM     23  C   UNL     1       0.217   9.527  20.993  0.00  0.00    +0.000 A 
ATOM     24  C   UNL     1       0.530   9.024  22.259  0.00  0.00    +0.000 A 
ATOM     25  C   UNL     1      -0.084   9.565  23.369  0.00  0.00    +0.000 A 
ATOM     26  C   UNL     1      -0.994  10.609  23.180  0.00  0.00    +0.000 A 
ATOM     27  C   UNL     1      -1.254  11.146  21.902  0.00  0.00    +0.000 A 
ENDBRANCH  11  22
TORSDOF 2
ENDMDL
MODEL 4
REMARK VINA RESULT:      -6.0     11.781     13.684
REMARK  Name = 
REMARK  2 active torsions:
REMARK  status: ('A' for Active; 'I' for Inactive)
REMARK    1  A    between atoms: C_2  and  C_3
REMARK    2  A    between atoms: N_16  and  C_17
REMARK                            x       y       z     vdW  Elec       q    Type
REMARK                         _______ _______ _______ _____ _____    ______ ____
ROOT
ATOM      1  O   UNL     1      -2.898  12.672  20.525  0.00  0.00    +0.000 OA
ATOM      2  C   UNL     1      -2.304  12.843  21.570  0.00  0.00    +0.000 C 
ATOM      3  N   UNL     1      -2.438  14.044  22.296  0.00  0.00    +0.000 N 
ATOM      4  C   UNL     1      -1.385  14.501  23.203  0.00  0.00    +0.000 C 
ATOM      5  C   UNL     1      -1.875  14.892  24.593  0.00  0.00    +0.000 C 
ATOM      6  O   UNL     1      -2.707  16.033  24.499  0.00  0.00    +0.000 OA
ATOM      7  C   UNL     1      -4.095  15.741  24.457  0.00  0.00    +0.000 C 
ATOM      8  C   UNL     1      -4.655  14.805  23.347  0.00  0.00    +0.000 C 
ATOM      9  C   UNL     1      -3.638  14.941  22.110  0.00  0.00    +0.000 C 
ATOM     10  C   UNL     1      -4.828  13.277  23.506  0.00  0.00    +0.000 C 
ATOM     11  N   UNL     1      -5.989  12.745  22.707  0.00  0.00    +0.000 N 
ATOM     12  C   UNL     1      -7.087  13.025  23.536  0.00  0.00    +0.000 C 
ATOM     13  O   UNL     1      -7.786  12.159  24.046  0.00  0.00    +0.000 OA
ATOM     14  C   UNL     1      -7.073  14.519  23.935  0.00  0.00    +0.000 C 
ATOM     15  O   UNL     1      -6.035  15.337  23.279  0.00  0.00    +0.000 OA
ENDROOT
BRANCH   2  16
ATOM     16  C   UNL     1      -1.500  11.701  22.125  0.00  0.00    +0.000 A 
ATOM     17  C   UNL     1      -0.420  11.051  21.456  0.00  0.00    +0.000 A 
ATOM     18  C   UNL     1      -0.005  10.041  22.289  0.00  0.00    +0.000 A 
ATOM     19  N   UNL     1      -0.828  10.088  23.368  0.00  0.00    +0.000 N 
ATOM     20  N   UNL     1      -1.759  11.072  23.293  0.00  0.00    +0.000 NA
ATOM     21  H   UNL     1      -0.830   9.487  24.187  0.00  0.00    +0.000 HD
ENDBRANCH   2  16
BRANCH  11  22
ATOM     22  C   UNL     1      -6.185  13.190  21.304  0.00  0.00    +0.000 A 
ATOM     23  C   UNL     1      -6.964  14.311  20.915  0.00  0.00    +0.000 A 
ATOM     24  C   UNL     1      -7.091  14.758  19.596  0.00  0.00    +0.000 A 
ATOM     25  C   UNL     1      -6.532  14.018  18.576  0.00  0.00    +0.000 A 
ATOM     26  C   UNL     1      -5.846  12.846  18.908  0.00  0.00    +0.000 A 
ATOM     27  C   UNL     1      -5.674  12.439  20.247  0.00  0.00    +0.000 A 
ENDBRANCH  11  22
TORSDOF 2
ENDMDL
MODEL 5
REMARK VINA RESULT:      -5.9      7.484      9.487
REMARK  Name = 
REMARK  2 active torsions:
REMARK  status: ('A' for Active; 'I' for Inactive)
REMARK    1  A    between atoms: C_2  and  C_3
REMARK    2  A    between atoms: N_16  and  C_17
REMARK                            x       y       z     vdW  Elec       q    Type
REMARK                         _______ _______ _______ _____ _____    ______ ____
ROOT
ATOM      1  O   UNL     1       2.196  12.907  18.000  0.00  0.00    +0.000 OA
ATOM      2  C   UNL     1       2.251  14.006  18.512  0.00  0.00    +0.000 C 
ATOM      3  N   UNL     1       1.092  14.789  18.685  0.00  0.00    +0.000 N 
ATOM      4  C   UNL     1       1.169  16.248  18.770  0.00  0.00    +0.000 C 
ATOM      5  C   UNL     1       0.422  16.852  19.953  0.00  0.00    +0.000 C 
ATOM      6  O   UNL     1      -0.968  16.633  19.798  0.00  0.00    +0.000 OA
ATOM      7  C   UNL     1      -1.461  15.499  20.494  0.00  0.00    +0.000 C 
ATOM      8  C   UNL     1      -0.851  14.095  20.216  0.00  0.00    +0.000 C 
ATOM      9  C   UNL     1      -0.280  14.159  18.715  0.00  0.00    +0.000 C 
ATOM     10  C   UNL     1       0.318  13.482  21.021  0.00  0.00    +0.000 C 
ATOM     11  N   UNL     1       0.233  11.980  21.100  0.00  0.00    +0.000 N 
ATOM     12  C   UNL     1      -0.683  11.779  22.145  0.00  0.00    +0.000 C 
ATOM     13  O   UNL     1      -0.390  11.243  23.206  0.00  0.00    +0.000 OA
ATOM     14  C   UNL     1      -1.971  12.589  21.873  0.00  0.00    +0.000 C 
ATOM     15  O   UNL     1      -2.027  13.266  20.563  0.00  0.00    +0.000 OA
ENDROOT
BRANCH   2  16
ATOM     16  C   UNL     1       3.575  14.473  19.051  0.00  0.00    +0.000 A 
ATOM     17  C   UNL     1       4.700  14.852  18.260  0.00  0.00    +0.000 A 
ATOM     18  C   UNL     1       5.705  15.159  19.144  0.00  0.00    +0.000 A 
ATOM     19  N   UNL     1       5.193  14.933  20.381  0.00  0.00    +0.000 N 
ATOM     20  N   UNL     1       3.908  14.498  20.361  0.00  0.00    +0.000 NA
ATOM     21  H   UNL     1       5.649  15.041  21.283  0.00  0.00    +0.000 HD
ENDBRANCH   2  16
BRANCH  11  22
ATOM     22  C   UNL     1      -0.084  11.192  19.882  0.00  0.00    +0.000 A 
ATOM     23  C   UNL     1      -1.394  10.985  19.374  0.00  0.00    +0.000 A 
ATOM     24  C   UNL     1      -1.677  10.294  18.192  0.00  0.00    +0.000 A 
ATOM     25  C   UNL     1      -0.652   9.666  17.517  0.00  0.00    +0.000 A 
ATOM     26  C   UNL     1       0.640   9.756  18.042  0.00  0.00    +0.000 A 
ATOM     27  C   UNL     1       0.920  10.507  19.202  0.00  0.00    +0.000 A 
ENDBRANCH  11  22
TORSDOF 2
ENDMDL
MODEL 6
REMARK VINA RESULT:      -5.9     12.327     14.117
REMARK  Name = 
REMARK  2 active torsions:
REMARK  status: ('A' for Active; 'I' for Inactive)
REMARK    1  A    between atoms: C_2  and  C_3
REMARK    2  A    between atoms: N_16  and  C_17
REMARK                            x       y       z     vdW  Elec       q    Type
REMARK                         _______ _______ _______ _____ _____    ______ ____
ROOT
ATOM      1  O   UNL     1      -3.312  12.395  19.680  0.00  0.00    +0.000 OA
ATOM      2  C   UNL     1      -2.755  12.878  20.645  0.00  0.00    +0.000 C 
ATOM      3  N   UNL     1      -3.137  14.135  21.154  0.00  0.00    +0.000 N 
ATOM      4  C   UNL     1      -2.196  14.964  21.908  0.00  0.00    +0.000 C 
ATOM      5  C   UNL     1      -2.739  15.491  23.232  0.00  0.00    +0.000 C 
ATOM      6  O   UNL     1      -3.802  16.392  22.983  0.00  0.00    +0.000 OA
ATOM      7  C   UNL     1      -5.093  15.810  23.068  0.00  0.00    +0.000 C 
ATOM      8  C   UNL     1      -5.451  14.588  22.173  0.00  0.00    +0.000 C 
ATOM      9  C   UNL     1      -4.507  14.708  20.878  0.00  0.00    +0.000 C 
ATOM     10  C   UNL     1      -5.283  13.115  22.608  0.00  0.00    +0.000 C 
ATOM     11  N   UNL     1      -6.312  12.211  21.979  0.00  0.00    +0.000 N 
ATOM     12  C   UNL     1      -7.432  12.399  22.805  0.00  0.00    +0.000 C 
ATOM     13  O   UNL     1      -7.917  11.512  23.497  0.00  0.00    +0.000 OA
ATOM     14  C   UNL     1      -7.739  13.908  22.932  0.00  0.00    +0.000 C 
ATOM     15  O   UNL     1      -6.915  14.794  22.087  0.00  0.00    +0.000 OA
ENDROOT
BRANCH   2  16
ATOM     16  C   UNL     1      -1.712  12.055  21.348  0.00  0.00    +0.000 A 
ATOM     17  C   UNL     1      -0.559  11.482  20.731  0.00  0.00    +0.000 A 
ATOM     18  C   UNL     1       0.090  10.776  21.714  0.00  0.00    +0.000 A 
ATOM     19  N   UNL     1      -0.670  10.908  22.831  0.00  0.00    +0.000 N 
ATOM     20  N   UNL     1      -1.782  11.662  22.639  0.00  0.00    +0.000 NA
ATOM     21  H   UNL     1      -0.512  10.513  23.753  0.00  0.00    +0.000 HD
ENDBRANCH   2  16
BRANCH  11  22
ATOM     22  C   UNL     1      -6.621  12.337  20.533  0.00  0.00    +0.000 A 
ATOM     23  C   UNL     1      -7.582  13.229  19.989  0.00  0.00    +0.000 A 
ATOM     24  C   UNL     1      -7.821  13.386  18.620  0.00  0.00    +0.000 A 
ATOM     25  C   UNL     1      -7.182  12.555  17.725  0.00  0.00    +0.000 A 
ATOM     26  C   UNL     1      -6.306  11.588  18.228  0.00  0.00    +0.000 A 
ATOM     27  C   UNL     1      -6.028  11.482  19.606  0.00  0.00    +0.000 A 
ENDBRANCH  11  22
TORSDOF 2
ENDMDL
MODEL 7
REMARK VINA RESULT:      -5.7      9.318     11.247
REMARK  Name = 
REMARK  2 active torsions:
REMARK  status: ('A' for Active; 'I' for Inactive)
REMARK    1  A    between atoms: C_2  and  C_3
REMARK    2  A    between atoms: N_16  and  C_17
REMARK                            x       y       z     vdW  Elec       q    Type
REMARK                         _______ _______ _______ _____ _____    ______ ____
ROOT
ATOM      1  O   UNL     1      -1.690  13.807  20.354  0.00  0.00    +0.000 OA
ATOM      2  C   UNL     1      -2.623  13.058  20.146  0.00  0.00    +0.000 C 
ATOM      3  N   UNL     1      -2.723  12.335  18.940  0.00  0.00    +0.000 N 
ATOM      4  C   UNL     1      -4.020  11.886  18.433  0.00  0.00    +0.000 C 
ATOM      5  C   UNL     1      -4.068  10.414  18.039  0.00  0.00    +0.000 C 
ATOM      6  O   UNL     1      -3.218  10.192  16.929  0.00  0.00    +0.000 OA
ATOM      7  C   UNL     1      -1.925   9.714  17.270  0.00  0.00    +0.000 C 
ATOM      8  C   UNL     1      -1.029  10.535  18.242  0.00  0.00    +0.000 C 
ATOM      9  C   UNL     1      -1.507  12.062  18.088  0.00  0.00    +0.000 C 
ATOM     10  C   UNL     1      -0.987  10.322  19.772  0.00  0.00    +0.000 C 
ATOM     11  N   UNL     1       0.367  10.631  20.356  0.00  0.00    +0.000 N 
ATOM     12  C   UNL     1       1.088   9.453  20.103  0.00  0.00    +0.000 C 
ATOM     13  O   UNL     1       1.513   8.719  20.986  0.00  0.00    +0.000 OA
ATOM     14  C   UNL     1       0.983   9.090  18.604  0.00  0.00    +0.000 C 
ATOM     15  O   UNL     1       0.296  10.086  17.759  0.00  0.00    +0.000 OA
ENDROOT
BRANCH   2  16
ATOM     16  C   UNL     1      -3.620  12.842  21.251  0.00  0.00    +0.000 A 
ATOM     17  C   UNL     1      -4.945  13.370  21.281  0.00  0.00    +0.000 A 
ATOM     18  C   UNL     1      -5.487  12.976  22.480  0.00  0.00    +0.000 A 
ATOM     19  N   UNL     1      -4.510  12.285  23.121  0.00  0.00    +0.000 N 
ATOM     20  N   UNL     1      -3.356  12.201  22.411  0.00  0.00    +0.000 NA
ATOM     21  H   UNL     1      -4.541  11.851  24.039  0.00  0.00    +0.000 HD
ENDBRANCH   2  16
BRANCH  11  22
ATOM     22  C   UNL     1       1.088  11.861  19.940  0.00  0.00    +0.000 A 
ATOM     23  C   UNL     1       1.891  11.969  18.775  0.00  0.00    +0.000 A 
ATOM     24  C   UNL     1       2.515  13.149  18.359  0.00  0.00    +0.000 A 
ATOM     25  C   UNL     1       2.460  14.263  19.169  0.00  0.00    +0.000 A 
ATOM     26  C   UNL     1       1.768  14.167  20.380  0.00  0.00    +0.000 A 
ATOM     27  C   UNL     1       1.092  12.988  20.759  0.00  0.00    +0.000 A 
ENDBRANCH  11  22
TORSDOF 2
ENDMDL
MODEL 8
REMARK VINA RESULT:      -5.6      6.757      8.186
REMARK  Name = 
REMARK  2 active torsions:
REMARK  status: ('A' for Active; 'I' for Inactive)
REMARK    1  A    between atoms: C_2  and  C_3
REMARK    2  A    between atoms: N_16  and  C_17
REMARK                            x       y       z     vdW  Elec       q    Type
REMARK                         _______ _______ _______ _____ _____    ______ ____
ROOT
ATOM      1  O   UNL     1       2.276  12.720  18.903  0.00  0.00    +0.000 OA
ATOM      2  C   UNL     1       1.204  12.725  19.473  0.00  0.00    +0.000 C 
ATOM      3  N   UNL     1       1.060  13.304  20.750  0.00  0.00    +0.000 N 
ATOM      4  C   UNL     1       0.003  12.868  21.664  0.00  0.00    +0.000 C 
ATOM      5  C   UNL     1      -0.818  14.003  22.266  0.00  0.00    +0.000 C 
ATOM      6  O   UNL     1       0.005  14.787  23.110  0.00  0.00    +0.000 OA
ATOM      7  C   UNL     1       0.538  15.947  22.492  0.00  0.00    +0.000 C 
ATOM      8  C   UNL     1       1.390  15.811  21.197  0.00  0.00    +0.000 C 
ATOM      9  C   UNL     1       2.035  14.340  21.254  0.00  0.00    +0.000 C 
ATOM     10  C   UNL     1       0.814  15.898  19.766  0.00  0.00    +0.000 C 
ATOM     11  N   UNL     1       1.802  16.473  18.784  0.00  0.00    +0.000 N 
ATOM     12  C   UNL     1       1.674  17.855  18.993  0.00  0.00    +0.000 C 
ATOM     13  O   UNL     1       1.254  18.630  18.143  0.00  0.00    +0.000 OA
ATOM     14  C   UNL     1       1.840  18.173  20.496  0.00  0.00    +0.000 C 
ATOM     15  O   UNL     1       2.221  17.028  21.346  0.00  0.00    +0.000 OA
ENDROOT
BRANCH   2  16
ATOM     16  C   UNL     1       0.007  12.188  18.739  0.00  0.00    +0.000 A 
ATOM     17  C   UNL     1      -0.346  10.809  18.634  0.00  0.00    +0.000 A 
ATOM     18  C   UNL     1      -1.468  10.759  17.844  0.00  0.00    +0.000 A 
ATOM     19  N   UNL     1      -1.726  12.043  17.484  0.00  0.00    +0.000 N 
ATOM     20  N   UNL     1      -0.839  12.934  17.994  0.00  0.00    +0.000 NA
ATOM     21  H   UNL     1      -2.472  12.395  16.891  0.00  0.00    +0.000 HD
ENDBRANCH   2  16
BRANCH  11  22
ATOM     22  C   UNL     1       3.211  16.005  18.794  0.00  0.00    +0.000 A 
ATOM     23  C   UNL     1       4.239  16.562  19.600  0.00  0.00    +0.000 A 
ATOM     24  C   UNL     1       5.548  16.074  19.649  0.00  0.00    +0.000 A 
ATOM     25  C   UNL     1       5.924  15.065  18.788  0.00  0.00    +0.000 A 
ATOM     26  C   UNL     1       4.969  14.561  17.901  0.00  0.00    +0.000 A 
ATOM     27  C   UNL     1       3.636  15.021  17.905  0.00  0.00    +0.000 A 
ENDBRANCH  11  22
TORSDOF 2
ENDMDL
MODEL 9
REMARK VINA RESULT:      -5.5      8.927     10.475
REMARK  Name = 
REMARK  2 active torsions:
REMARK  status: ('A' for Active; 'I' for Inactive)
REMARK    1  A    between atoms: C_2  and  C_3
REMARK    2  A    between atoms: N_16  and  C_17
REMARK                            x       y       z     vdW  Elec       q    Type
REMARK                         _______ _______ _______ _____ _____    ______ ____
ROOT
ATOM      1  O   UNL     1      -1.194  12.871  23.797  0.00  0.00    +0.000 OA
ATOM      2  C   UNL     1      -1.411  14.018  23.462  0.00  0.00    +0.000 C 
ATOM      3  N   UNL     1      -0.552  14.692  22.570  0.00  0.00    +0.000 N 
ATOM      4  C   UNL     1      -0.453  16.151  22.573  0.00  0.00    +0.000 C 
ATOM      5  C   UNL     1      -0.589  16.796  21.198  0.00  0.00    +0.000 C 
ATOM      6  O   UNL     1       0.510  16.421  20.388  0.00  0.00    +0.000 OA
ATOM      7  C   UNL     1       0.254  15.321  19.529  0.00  0.00    +0.000 C 
ATOM      8  C   UNL     1      -0.220  13.966  20.129  0.00  0.00    +0.000 C 
ATOM      9  C   UNL     1       0.353  13.931  21.630  0.00  0.00    +0.000 C 
ATOM     10  C   UNL     1      -1.702  13.562  20.298  0.00  0.00    +0.000 C 
ATOM     11  N   UNL     1      -1.910  12.076  20.167  0.00  0.00    +0.000 N 
ATOM     12  C   UNL     1      -1.947  11.892  18.776  0.00  0.00    +0.000 C 
ATOM     13  O   UNL     1      -2.939  11.502  18.173  0.00  0.00    +0.000 OA
ATOM     14  C   UNL     1      -0.698  12.533  18.131  0.00  0.00    +0.000 C 
ATOM     15  O   UNL     1       0.302  13.061  19.080  0.00  0.00    +0.000 OA
ENDROOT
BRANCH   2  16
ATOM     16  C   UNL     1      -2.676  14.671  23.944  0.00  0.00    +0.000 A 
ATOM     17  C   UNL     1      -3.863  14.840  23.170  0.00  0.00    +0.000 A 
ATOM     18  C   UNL     1      -4.748  15.522  23.968  0.00  0.00    +0.000 A 
ATOM     19  N   UNL     1      -4.089  15.763  25.131  0.00  0.00    +0.000 N 
ATOM     20  N   UNL     1      -2.822  15.277  25.143  0.00  0.00    +0.000 NA
ATOM     21  H   UNL     1      -4.422  16.255  25.955  0.00  0.00    +0.000 HD
ENDBRANCH   2  16
BRANCH  11  22
ATOM     22  C   UNL     1      -0.990  11.137  20.859  0.00  0.00    +0.000 A 
ATOM     23  C   UNL     1       0.064  10.429  20.226  0.00  0.00    +0.000 A 
ATOM     24  C   UNL     1       0.964   9.596  20.897  0.00  0.00    +0.000 A 
ATOM     25  C   UNL     1       0.771   9.336  22.238  0.00  0.00    +0.000 A 
ATOM     26  C   UNL     1      -0.321   9.931  22.876  0.00  0.00    +0.000 A 
ATOM     27  C   UNL     1      -1.185  10.817  22.201  0.00  0.00    +0.000 A 
ENDBRANCH  11  22
TORSDOF 2
ENDMDL
