MODEL 1
REMARK VINA RESULT:      -7.3      0.000      0.000
REMARK  Name = 
REMARK  3 active torsions:
REMARK  status: ('A' for Active; 'I' for Inactive)
REMARK    1  A    between atoms: C_1  and  C_2
REMARK    2  A    between atoms: C_4  and  C_5
REMARK    3  A    between atoms: N_6  and  N_7
REMARK                            x       y       z     vdW  Elec       q    Type
REMARK                         _______ _______ _______ _____ _____    ______ ____
ROOT
ATOM      1  C   UNL     1       2.883   1.906  17.704  0.00  0.00    +0.000 C 
ATOM      2  C   UNL     1       3.818   2.913  18.389  0.00  0.00    +0.000 C 
ATOM      3  C   UNL     1       4.774   3.526  17.352  0.00  0.00    +0.000 C 
ATOM      4  C   UNL     1       4.680   5.007  17.112  0.00  0.00    +0.000 C 
ATOM      5  C   UNL     1       3.892   5.830  17.827  0.00  0.00    +0.000 C 
ATOM      6 CL   UNL     1       3.842   7.540  17.509  0.00  0.00    +0.000 Cl
ATOM      7  C   UNL     1       3.056   5.299  18.937  0.00  0.00    +0.000 A 
ATOM      8  C   UNL     1       2.267   6.140  19.748  0.00  0.00    +0.000 A 
ATOM      9  C   UNL     1       1.491   5.641  20.801  0.00  0.00    +0.000 A 
ATOM     10  C   UNL     1       1.494   4.281  21.073  0.00  0.00    +0.000 A 
ATOM     11  C   UNL     1       2.266   3.427  20.293  0.00  0.00    +0.000 A 
ATOM     12  C   UNL     1       3.036   3.915  19.216  0.00  0.00    +0.000 A 
ENDROOT
BRANCH   4  13
ATOM     13  C   UNL     1       5.553   5.485  15.994  0.00  0.00    +0.000 C 
ATOM     14  N   UNL     1       6.710   4.953  15.774  0.00  0.00    +0.000 NA
BRANCH  14  15
ATOM     15  N   UNL     1       7.415   5.435  14.708  0.00  0.00    +0.000 N 
ATOM     16  C   UNL     1       7.315   4.867  13.472  0.00  0.00    +0.000 C 
ATOM     17  N   UNL     1       6.661   3.782  13.229  0.00  0.00    +0.000 NA
ATOM     18  N   UNL     1       7.954   5.512  12.475  0.00  0.00    +0.000 N 
ATOM     19  H   UNL     1       7.771   6.385  14.721  0.00  0.00    +0.000 HD
ATOM     20  H   UNL     1       6.272   3.527  14.152  0.00  0.00    +0.000 HD
ATOM     21  H   UNL     1       8.884   5.827  12.700  0.00  0.00    +0.000 HD
ATOM     22  H   UNL     1       7.962   4.912  11.651  0.00  0.00    +0.000 HD
ENDBRANCH  14  15
ENDBRANCH   4  13
TORSDOF 2
ENDMDL
MODEL 2
REMARK VINA RESULT:      -7.3      3.959      6.801
REMARK  Name = 
REMARK  3 active torsions:
REMARK  status: ('A' for Active; 'I' for Inactive)
REMARK    1  A    between atoms: C_1  and  C_2
REMARK    2  A    between atoms: C_4  and  C_5
REMARK    3  A    between atoms: N_6  and  N_7
REMARK                            x       y       z     vdW  Elec       q    Type
REMARK                         _______ _______ _______ _____ _____    ______ ____
ROOT
ATOM      1  C   UNL     1       7.344   6.888  17.711  0.00  0.00    +0.000 C 
ATOM      2  C   UNL     1       7.116   5.370  17.690  0.00  0.00    +0.000 C 
ATOM      3  C   UNL     1       6.229   4.960  18.878  0.00  0.00    +0.000 C 
ATOM      4  C   UNL     1       4.890   4.350  18.567  0.00  0.00    +0.000 C 
ATOM      5  C   UNL     1       4.481   4.046  17.322  0.00  0.00    +0.000 C 
ATOM      6 CL   UNL     1       2.924   3.325  17.032  0.00  0.00    +0.000 Cl
ATOM      7  C   UNL     1       5.367   4.294  16.154  0.00  0.00    +0.000 A 
ATOM      8  C   UNL     1       4.997   3.930  14.843  0.00  0.00    +0.000 A 
ATOM      9  C   UNL     1       5.837   4.152  13.746  0.00  0.00    +0.000 A 
ATOM     10  C   UNL     1       7.079   4.739  13.938  0.00  0.00    +0.000 A 
ATOM     11  C   UNL     1       7.474   5.106  15.220  0.00  0.00    +0.000 A 
ATOM     12  C   UNL     1       6.627   4.906  16.331  0.00  0.00    +0.000 A 
ENDROOT
BRANCH   4  13
ATOM     13  C   UNL     1       4.049   4.110  19.781  0.00  0.00    +0.000 C 
ATOM     14  N   UNL     1       3.628   2.926  20.081  0.00  0.00    +0.000 NA
BRANCH  14  15
ATOM     15  N   UNL     1       2.897   2.805  21.228  0.00  0.00    +0.000 N 
ATOM     16  C   UNL     1       1.535   2.744  21.203  0.00  0.00    +0.000 C 
ATOM     17  N   UNL     1       0.827   2.911  20.138  0.00  0.00    +0.000 NA
ATOM     18  N   UNL     1       0.936   2.491  22.383  0.00  0.00    +0.000 N 
ATOM     19  H   UNL     1       3.332   2.447  22.073  0.00  0.00    +0.000 HD
ATOM     20  H   UNL     1       1.536   3.068  19.402  0.00  0.00    +0.000 HD
ATOM     21  H   UNL     1       1.301   3.010  23.166  0.00  0.00    +0.000 HD
ATOM     22  H   UNL     1      -0.066   2.645  22.280  0.00  0.00    +0.000 HD
ENDBRANCH  14  15
ENDBRANCH   4  13
TORSDOF 2
ENDMDL
MODEL 3
REMARK VINA RESULT:      -7.2      1.456      1.703
REMARK  Name = 
REMARK  3 active torsions:
REMARK  status: ('A' for Active; 'I' for Inactive)
REMARK    1  A    between atoms: C_1  and  C_2
REMARK    2  A    between atoms: C_4  and  C_5
REMARK    3  A    between atoms: N_6  and  N_7
REMARK                            x       y       z     vdW  Elec       q    Type
REMARK                         _______ _______ _______ _____ _____    ______ ____
ROOT
ATOM      1  C   UNL     1       1.635   2.566  18.282  0.00  0.00    +0.000 C 
ATOM      2  C   UNL     1       2.934   3.242  18.740  0.00  0.00    +0.000 C 
ATOM      3  C   UNL     1       4.047   2.983  17.711  0.00  0.00    +0.000 C 
ATOM      4  C   UNL     1       4.629   4.175  17.002  0.00  0.00    +0.000 C 
ATOM      5  C   UNL     1       4.310   5.448  17.300  0.00  0.00    +0.000 C 
ATOM      6 CL   UNL     1       5.032   6.785  16.452  0.00  0.00    +0.000 Cl
ATOM      7  C   UNL     1       3.343   5.750  18.389  0.00  0.00    +0.000 A 
ATOM      8  C   UNL     1       3.032   7.071  18.769  0.00  0.00    +0.000 A 
ATOM      9  C   UNL     1       2.131   7.354  19.803  0.00  0.00    +0.000 A 
ATOM     10  C   UNL     1       1.524   6.313  20.490  0.00  0.00    +0.000 A 
ATOM     11  C   UNL     1       1.813   4.998  20.140  0.00  0.00    +0.000 A 
ATOM     12  C   UNL     1       2.703   4.701  19.086  0.00  0.00    +0.000 A 
ENDROOT
BRANCH   4  13
ATOM     13  C   UNL     1       5.605   3.811  15.928  0.00  0.00    +0.000 C 
ATOM     14  N   UNL     1       5.342   4.030  14.682  0.00  0.00    +0.000 NA
BRANCH  14  15
ATOM     15  N   UNL     1       6.311   3.696  13.781  0.00  0.00    +0.000 N 
ATOM     16  C   UNL     1       6.012   3.426  12.477  0.00  0.00    +0.000 C 
ATOM     17  N   UNL     1       4.809   3.346  12.018  0.00  0.00    +0.000 NA
ATOM     18  N   UNL     1       7.065   3.240  11.658  0.00  0.00    +0.000 N 
ATOM     19  H   UNL     1       7.280   3.941  13.961  0.00  0.00    +0.000 HD
ATOM     20  H   UNL     1       4.223   3.544  12.846  0.00  0.00    +0.000 HD
ATOM     21  H   UNL     1       7.797   2.658  12.031  0.00  0.00    +0.000 HD
ATOM     22  H   UNL     1       6.727   2.874  10.769  0.00  0.00    +0.000 HD
ENDBRANCH  14  15
ENDBRANCH   4  13
TORSDOF 2
ENDMDL
MODEL 4
REMARK VINA RESULT:      -6.9      4.053      5.683
REMARK  Name = 
REMARK  3 active torsions:
REMARK  status: ('A' for Active; 'I' for Inactive)
REMARK    1  A    between atoms: C_1  and  C_2
REMARK    2  A    between atoms: C_4  and  C_5
REMARK    3  A    between atoms: N_6  and  N_7
REMARK                            x       y       z     vdW  Elec       q    Type
REMARK                         _______ _______ _______ _____ _____    ______ ____
ROOT
ATOM      1  C   UNL     1       5.240   6.229  17.309  0.00  0.00    +0.000 C 
ATOM      2  C   UNL     1       3.902   5.513  17.541  0.00  0.00    +0.000 C 
ATOM      3  C   UNL     1       4.156   4.040  17.902  0.00  0.00    +0.000 C 
ATOM      4  C   UNL     1       3.717   3.572  19.262  0.00  0.00    +0.000 C 
ATOM      5  C   UNL     1       3.023   4.336  20.124  0.00  0.00    +0.000 C 
ATOM      6 CL   UNL     1       2.531   3.729  21.679  0.00  0.00    +0.000 Cl
ATOM      7  C   UNL     1       2.631   5.724  19.759  0.00  0.00    +0.000 A 
ATOM      8  C   UNL     1       1.852   6.531  20.611  0.00  0.00    +0.000 A 
ATOM      9  C   UNL     1       1.472   7.832  20.260  0.00  0.00    +0.000 A 
ATOM     10  C   UNL     1       1.860   8.355  19.035  0.00  0.00    +0.000 A 
ATOM     11  C   UNL     1       2.627   7.581  18.171  0.00  0.00    +0.000 A 
ATOM     12  C   UNL     1       3.033   6.276  18.523  0.00  0.00    +0.000 A 
ENDROOT
BRANCH   4  13
ATOM     13  C   UNL     1       4.126   2.166  19.569  0.00  0.00    +0.000 C 
ATOM     14  N   UNL     1       5.112   1.914  20.366  0.00  0.00    +0.000 NA
BRANCH  14  15
ATOM     15  N   UNL     1       5.385   0.599  20.610  0.00  0.00    +0.000 N 
ATOM     16  C   UNL     1       6.081   0.208  21.717  0.00  0.00    +0.000 C 
ATOM     17  N   UNL     1       6.632   1.028  22.546  0.00  0.00    +0.000 NA
ATOM     18  N   UNL     1       6.170  -1.122  21.916  0.00  0.00    +0.000 N 
ATOM     19  H   UNL     1       4.828  -0.126  20.170  0.00  0.00    +0.000 HD
ATOM     20  H   UNL     1       6.392   1.956  22.160  0.00  0.00    +0.000 HD
ATOM     21  H   UNL     1       6.386  -1.662  21.093  0.00  0.00    +0.000 HD
ATOM     22  H   UNL     1       6.850  -1.296  22.655  0.00  0.00    +0.000 HD
ENDBRANCH  14  15
ENDBRANCH   4  13
TORSDOF 2
ENDMDL
MODEL 5
REMARK VINA RESULT:      -6.7      3.248      5.025
REMARK  Name = 
REMARK  3 active torsions:
REMARK  status: ('A' for Active; 'I' for Inactive)
REMARK    1  A    between atoms: C_1  and  C_2
REMARK    2  A    between atoms: C_4  and  C_5
REMARK    3  A    between atoms: N_6  and  N_7
REMARK                            x       y       z     vdW  Elec       q    Type
REMARK                         _______ _______ _______ _____ _____    ______ ____
ROOT
ATOM      1  C   UNL     1       2.286  11.094  18.175  0.00  0.00    +0.000 C 
ATOM      2  C   UNL     1       1.457   9.802  18.192  0.00  0.00    +0.000 C 
ATOM      3  C   UNL     1       2.265   8.656  17.560  0.00  0.00    +0.000 C 
ATOM      4  C   UNL     1       2.613   7.485  18.438  0.00  0.00    +0.000 C 
ATOM      5  C   UNL     1       2.164   7.340  19.698  0.00  0.00    +0.000 C 
ATOM      6 CL   UNL     1       2.591   5.952  20.657  0.00  0.00    +0.000 Cl
ATOM      7  C   UNL     1       1.261   8.357  20.301  0.00  0.00    +0.000 A 
ATOM      8  C   UNL     1       0.722   8.206  21.595  0.00  0.00    +0.000 A 
ATOM      9  C   UNL     1      -0.138   9.157  22.156  0.00  0.00    +0.000 A 
ATOM     10  C   UNL     1      -0.487  10.284  21.427  0.00  0.00    +0.000 A 
ATOM     11  C   UNL     1       0.026  10.459  20.146  0.00  0.00    +0.000 A 
ATOM     12  C   UNL     1       0.910   9.518  19.578  0.00  0.00    +0.000 A 
ENDROOT
BRANCH   4  13
ATOM     13  C   UNL     1       3.511   6.490  17.775  0.00  0.00    +0.000 C 
ATOM     14  N   UNL     1       4.590   6.861  17.168  0.00  0.00    +0.000 NA
BRANCH  14  15
ATOM     15  N   UNL     1       5.360   5.873  16.625  0.00  0.00    +0.000 N 
ATOM     16  C   UNL     1       6.721   5.968  16.590  0.00  0.00    +0.000 C 
ATOM     17  N   UNL     1       7.378   7.019  16.947  0.00  0.00    +0.000 NA
ATOM     18  N   UNL     1       7.375   4.874  16.153  0.00  0.00    +0.000 N 
ATOM     19  H   UNL     1       4.988   4.934  16.525  0.00  0.00    +0.000 HD
ATOM     20  H   UNL     1       6.636   7.674  17.244  0.00  0.00    +0.000 HD
ATOM     21  H   UNL     1       6.981   4.442  15.332  0.00  0.00    +0.000 HD
ATOM     22  H   UNL     1       8.353   5.118  16.001  0.00  0.00    +0.000 HD
ENDBRANCH  14  15
ENDBRANCH   4  13
TORSDOF 2
ENDMDL
MODEL 6
REMARK VINA RESULT:      -6.6      4.432      5.703
REMARK  Name = 
REMARK  3 active torsions:
REMARK  status: ('A' for Active; 'I' for Inactive)
REMARK    1  A    between atoms: C_1  and  C_2
REMARK    2  A    between atoms: C_4  and  C_5
REMARK    3  A    between atoms: N_6  and  N_7
REMARK                            x       y       z     vdW  Elec       q    Type
REMARK                         _______ _______ _______ _____ _____    ______ ____
ROOT
ATOM      1  C   UNL     1       3.909   4.004  16.779  0.00  0.00    +0.000 C 
ATOM      2  C   UNL     1       4.280   4.776  18.053  0.00  0.00    +0.000 C 
ATOM      3  C   UNL     1       3.959   6.269  17.869  0.00  0.00    +0.000 C 
ATOM      4  C   UNL     1       2.923   6.873  18.777  0.00  0.00    +0.000 C 
ATOM      5  C   UNL     1       2.352   6.212  19.800  0.00  0.00    +0.000 C 
ATOM      6 CL   UNL     1       1.170   6.975  20.823  0.00  0.00    +0.000 Cl
ATOM      7  C   UNL     1       2.739   4.808  20.103  0.00  0.00    +0.000 A 
ATOM      8  C   UNL     1       2.208   4.106  21.203  0.00  0.00    +0.000 A 
ATOM      9  C   UNL     1       2.583   2.789  21.495  0.00  0.00    +0.000 A 
ATOM     10  C   UNL     1       3.512   2.145  20.691  0.00  0.00    +0.000 A 
ATOM     11  C   UNL     1       4.056   2.812  19.599  0.00  0.00    +0.000 A 
ATOM     12  C   UNL     1       3.670   4.132  19.283  0.00  0.00    +0.000 A 
ENDROOT
BRANCH   4  13
ATOM     13  C   UNL     1       2.585   8.289  18.433  0.00  0.00    +0.000 C 
ATOM     14  N   UNL     1       1.446   8.596  17.903  0.00  0.00    +0.000 NA
BRANCH  14  15
ATOM     15  N   UNL     1       1.218   9.920  17.660  0.00  0.00    +0.000 N 
ATOM     16  C   UNL     1       0.409  10.665  18.467  0.00  0.00    +0.000 C 
ATOM     17  N   UNL     1      -0.290  10.174  19.434  0.00  0.00    +0.000 NA
ATOM     18  N   UNL     1       0.369  11.985  18.203  0.00  0.00    +0.000 N 
ATOM     19  H   UNL     1       1.867  10.451  17.087  0.00  0.00    +0.000 HD
ATOM     20  H   UNL     1      -0.055   9.168  19.412  0.00  0.00    +0.000 HD
ATOM     21  H   UNL     1       0.291  12.222  17.226  0.00  0.00    +0.000 HD
ATOM     22  H   UNL     1      -0.390  12.403  18.739  0.00  0.00    +0.000 HD
ENDBRANCH  14  15
ENDBRANCH   4  13
TORSDOF 2
ENDMDL
MODEL 7
REMARK VINA RESULT:      -6.6      4.390      5.973
REMARK  Name = 
REMARK  3 active torsions:
REMARK  status: ('A' for Active; 'I' for Inactive)
REMARK    1  A    between atoms: C_1  and  C_2
REMARK    2  A    between atoms: C_4  and  C_5
REMARK    3  A    between atoms: N_6  and  N_7
REMARK                            x       y       z     vdW  Elec       q    Type
REMARK                         _______ _______ _______ _____ _____    ______ ____
ROOT
ATOM      1  C   UNL     1       2.185   3.575  21.771  0.00  0.00    +0.000 C 
ATOM      2  C   UNL     1       1.597   4.127  20.465  0.00  0.00    +0.000 C 
ATOM      3  C   UNL     1       1.377   5.644  20.593  0.00  0.00    +0.000 C 
ATOM      4  C   UNL     1       2.158   6.540  19.672  0.00  0.00    +0.000 C 
ATOM      5  C   UNL     1       2.945   6.084  18.681  0.00  0.00    +0.000 C 
ATOM      6 CL   UNL     1       3.811   7.176  17.639  0.00  0.00    +0.000 Cl
ATOM      7  C   UNL     1       3.075   4.624  18.429  0.00  0.00    +0.000 A 
ATOM      8  C   UNL     1       3.840   4.114  17.361  0.00  0.00    +0.000 A 
ATOM      9  C   UNL     1       3.952   2.740  17.117  0.00  0.00    +0.000 A 
ATOM     10  C   UNL     1       3.287   1.840  17.937  0.00  0.00    +0.000 A 
ATOM     11  C   UNL     1       2.522   2.313  18.998  0.00  0.00    +0.000 A 
ATOM     12  C   UNL     1       2.419   3.695  19.266  0.00  0.00    +0.000 A 
ENDROOT
BRANCH   4  13
ATOM     13  C   UNL     1       1.978   7.996  19.964  0.00  0.00    +0.000 C 
ATOM     14  N   UNL     1       1.233   8.741  19.215  0.00  0.00    +0.000 NA
BRANCH  14  15
ATOM     15  N   UNL     1       1.103  10.049  19.585  0.00  0.00    +0.000 N 
ATOM     16  C   UNL     1       1.464  11.066  18.750  0.00  0.00    +0.000 C 
ATOM     17  N   UNL     1       2.056  10.891  17.618  0.00  0.00    +0.000 NA
ATOM     18  N   UNL     1       1.165  12.310  19.174  0.00  0.00    +0.000 N 
ATOM     19  H   UNL     1       0.463  10.306  20.329  0.00  0.00    +0.000 HD
ATOM     20  H   UNL     1       2.141   9.863  17.549  0.00  0.00    +0.000 HD
ATOM     21  H   UNL     1       1.374  12.491  20.143  0.00  0.00    +0.000 HD
ATOM     22  H   UNL     1       1.633  12.983  18.569  0.00  0.00    +0.000 HD
ENDBRANCH  14  15
ENDBRANCH   4  13
TORSDOF 2
ENDMDL
MODEL 8
REMARK VINA RESULT:      -6.6      3.225      4.265
REMARK  Name = 
REMARK  3 active torsions:
REMARK  status: ('A' for Active; 'I' for Inactive)
REMARK    1  A    between atoms: C_1  and  C_2
REMARK    2  A    between atoms: C_4  and  C_5
REMARK    3  A    between atoms: N_6  and  N_7
REMARK                            x       y       z     vdW  Elec       q    Type
REMARK                         _______ _______ _______ _____ _____    ______ ____
ROOT
ATOM      1  C   UNL     1       6.028   3.621  15.364  0.00  0.00    +0.000 C 
ATOM      2  C   UNL     1       5.835   4.158  16.789  0.00  0.00    +0.000 C 
ATOM      3  C   UNL     1       6.467   5.554  16.910  0.00  0.00    +0.000 C 
ATOM      4  C   UNL     1       5.552   6.707  17.221  0.00  0.00    +0.000 C 
ATOM      5  C   UNL     1       4.245   6.564  17.506  0.00  0.00    +0.000 C 
ATOM      6 CL   UNL     1       3.243   7.938  17.873  0.00  0.00    +0.000 Cl
ATOM      7  C   UNL     1       3.622   5.214  17.541  0.00  0.00    +0.000 A 
ATOM      8  C   UNL     1       2.272   5.021  17.897  0.00  0.00    +0.000 A 
ATOM      9  C   UNL     1       1.690   3.748  17.943  0.00  0.00    +0.000 A 
ATOM     10  C   UNL     1       2.455   2.631  17.641  0.00  0.00    +0.000 A 
ATOM     11  C   UNL     1       3.792   2.789  17.289  0.00  0.00    +0.000 A 
ATOM     12  C   UNL     1       4.383   4.068  17.219  0.00  0.00    +0.000 A 
ENDROOT
BRANCH   4  13
ATOM     13  C   UNL     1       6.236   8.037  17.184  0.00  0.00    +0.000 C 
ATOM     14  N   UNL     1       7.489   8.154  17.477  0.00  0.00    +0.000 NA
BRANCH  14  15
ATOM     15  N   UNL     1       8.029   9.404  17.379  0.00  0.00    +0.000 N 
ATOM     16  C   UNL     1       8.850   9.904  18.348  0.00  0.00    +0.000 C 
ATOM     17  N   UNL     1       9.087   9.309  19.467  0.00  0.00    +0.000 NA
ATOM     18  N   UNL     1       9.425  11.092  18.075  0.00  0.00    +0.000 N 
ATOM     19  H   UNL     1       8.099   9.859  16.475  0.00  0.00    +0.000 HD
ATOM     20  H   UNL     1       8.538   8.436  19.395  0.00  0.00    +0.000 HD
ATOM     21  H   UNL     1       8.810  11.781  17.673  0.00  0.00    +0.000 HD
ATOM     22  H   UNL     1       9.862  11.446  18.925  0.00  0.00    +0.000 HD
ENDBRANCH  14  15
ENDBRANCH   4  13
TORSDOF 2
ENDMDL
MODEL 9
REMARK VINA RESULT:      -6.6      5.054      6.747
REMARK  Name = 
REMARK  3 active torsions:
REMARK  status: ('A' for Active; 'I' for Inactive)
REMARK    1  A    between atoms: C_1  and  C_2
REMARK    2  A    between atoms: C_4  and  C_5
REMARK    3  A    between atoms: N_6  and  N_7
REMARK                            x       y       z     vdW  Elec       q    Type
REMARK                         _______ _______ _______ _____ _____    ______ ____
ROOT
ATOM      1  C   UNL     1       2.149   3.398  21.733  0.00  0.00    +0.000 C 
ATOM      2  C   UNL     1       1.487   4.065  20.519  0.00  0.00    +0.000 C 
ATOM      3  C   UNL     1       1.298   5.568  20.789  0.00  0.00    +0.000 C 
ATOM      4  C   UNL     1       2.032   6.532  19.899  0.00  0.00    +0.000 C 
ATOM      5  C   UNL     1       2.747   6.155  18.823  0.00  0.00    +0.000 C 
ATOM      6 CL   UNL     1       3.561   7.323  17.823  0.00  0.00    +0.000 Cl
ATOM      7  C   UNL     1       2.838   4.720  18.440  0.00  0.00    +0.000 A 
ATOM      8  C   UNL     1       3.525   4.296  17.285  0.00  0.00    +0.000 A 
ATOM      9  C   UNL     1       3.600   2.947  16.919  0.00  0.00    +0.000 A 
ATOM     10  C   UNL     1       2.975   1.986  17.702  0.00  0.00    +0.000 A 
ATOM     11  C   UNL     1       2.287   2.375  18.846  0.00  0.00    +0.000 A 
ATOM     12  C   UNL     1       2.223   3.729  19.237  0.00  0.00    +0.000 A 
ENDROOT
BRANCH   4  13
ATOM     13  C   UNL     1       1.893   7.959  20.324  0.00  0.00    +0.000 C 
ATOM     14  N   UNL     1       0.940   8.333  21.113  0.00  0.00    +0.000 NA
BRANCH  14  15
ATOM     15  N   UNL     1       0.920   9.651  21.471  0.00  0.00    +0.000 N 
ATOM     16  C   UNL     1       0.051  10.532  20.897  0.00  0.00    +0.000 C 
ATOM     17  N   UNL     1      -0.724  10.238  19.909  0.00  0.00    +0.000 NA
ATOM     18  N   UNL     1       0.035  11.771  21.427  0.00  0.00    +0.000 N 
ATOM     19  H   UNL     1       1.307   9.942  22.363  0.00  0.00    +0.000 HD
ATOM     20  H   UNL     1      -0.513   9.243  19.728  0.00  0.00    +0.000 HD
ATOM     21  H   UNL     1       0.942  12.166  21.615  0.00  0.00    +0.000 HD
ATOM     22  H   UNL     1      -0.507  12.381  20.816  0.00  0.00    +0.000 HD
ENDBRANCH  14  15
ENDBRANCH   4  13
TORSDOF 2
ENDMDL
