MODEL 1
REMARK VINA RESULT:      -7.5      0.000      0.000
REMARK  Name = 
REMARK  9 active torsions:
REMARK  status: ('A' for Active; 'I' for Inactive)
REMARK    1  A    between atoms: C_1  and  C_2
REMARK    2  A    between atoms: C_2  and  O_3
REMARK    3  A    between atoms: O_3  and  C_4
REMARK    4  A    between atoms: C_4  and  C_6
REMARK    5  A    between atoms: C_6  and  C_8
REMARK    6  A    between atoms: C_8  and  C_9
REMARK    7  A    between atoms: C_11  and  N_12
REMARK    8  A    between atoms: C_14  and  C_15
REMARK    9  A    between atoms: N_16  and  C_17
REMARK                            x       y       z     vdW  Elec       q    Type
REMARK                         _______ _______ _______ _____ _____    ______ ____
ROOT
ATOM      1  C   UNL     1       2.521   6.462  19.542  0.00  0.00    +0.000 A 
ATOM      2  C   UNL     1       1.763   7.480  20.162  0.00  0.00    +0.000 A 
ATOM      3  C   UNL     1       1.519   8.713  19.532  0.00  0.00    +0.000 A 
ATOM      4  C   UNL     1       2.118   8.936  18.287  0.00  0.00    +0.000 A 
ATOM      5  F   UNL     1       1.968  10.101  17.639  0.00  0.00    +0.000 F 
ATOM      6  C   UNL     1       2.939   7.980  17.696  0.00  0.00    +0.000 A 
ATOM      7  C   UNL     1       3.138   6.747  18.314  0.00  0.00    +0.000 A 
ATOM      8 CL   UNL     1       4.156   5.616  17.500  0.00  0.00    +0.000 Cl
ENDROOT
BRANCH   3   9
ATOM      9  N   UNL     1       0.672   9.669  20.129  0.00  0.00    +0.000 N 
ATOM     10  N   UNL     1      -0.282  10.339  19.389  0.00  0.00    +0.000 NA
ATOM     11  C   UNL     1      -0.914  11.068  20.267  0.00  0.00    +0.000 A 
ATOM     12  C   UNL     1      -2.060  11.961  19.925  0.00  0.00    +0.000 C 
ATOM     13  N   UNL     1      -0.463  10.938  21.520  0.00  0.00    +0.000 N 
ATOM     14  C   UNL     1       0.567  10.047  21.478  0.00  0.00    +0.000 A 
ATOM     15  O   UNL     1       1.246   9.697  22.431  0.00  0.00    +0.000 OA
BRANCH  13  16
ATOM     16  C   UNL     1      -0.785  11.713  22.664  0.00  0.00    +0.000 C 
ATOM     17  F   UNL     1      -0.589  13.028  22.390  0.00  0.00    +0.000 F 
ATOM     18  F   UNL     1      -2.101  11.573  22.966  0.00  0.00    +0.000 F 
ENDBRANCH  13  16
ENDBRANCH   3   9
BRANCH   1  19
ATOM     19  C   UNL     1       2.586   5.092  20.202  0.00  0.00    +0.000 C 
BRANCH  19  20
ATOM     20  C   UNL     1       1.339   4.236  19.944  0.00  0.00    +0.000 C 
ATOM     21 CL   UNL     1       1.144   3.014  21.238  0.00  0.00    +0.000 Cl
BRANCH  20  22
ATOM     22  C   UNL     1       1.436   3.501  18.619  0.00  0.00    +0.000 C 
ATOM     23  O   UNL     1       1.135   3.970  17.529  0.00  0.00    +0.000 OA
BRANCH  22  24
ATOM     24  O   UNL     1       1.866   2.221  18.824  0.00  0.00    +0.000 OA
BRANCH  24  26
ATOM     25  C   UNL     1       4.208   1.972  19.387  0.00  0.00    +0.000 C 
ATOM     26  C   UNL     1       3.163   1.909  18.289  0.00  0.00    +0.000 C 
ENDBRANCH  24  26
ENDBRANCH  22  24
ENDBRANCH  20  22
ENDBRANCH  19  20
ENDBRANCH   1  19
TORSDOF 7
ENDMDL
MODEL 2
REMARK VINA RESULT:      -7.5      3.288      4.846
REMARK  Name = 
REMARK  9 active torsions:
REMARK  status: ('A' for Active; 'I' for Inactive)
REMARK    1  A    between atoms: C_1  and  C_2
REMARK    2  A    between atoms: C_2  and  O_3
REMARK    3  A    between atoms: O_3  and  C_4
REMARK    4  A    between atoms: C_4  and  C_6
REMARK    5  A    between atoms: C_6  and  C_8
REMARK    6  A    between atoms: C_8  and  C_9
REMARK    7  A    between atoms: C_11  and  N_12
REMARK    8  A    between atoms: C_14  and  C_15
REMARK    9  A    between atoms: N_16  and  C_17
REMARK                            x       y       z     vdW  Elec       q    Type
REMARK                         _______ _______ _______ _____ _____    ______ ____
ROOT
ATOM      1  C   UNL     1       4.054   4.346  18.428  0.00  0.00    +0.000 A 
ATOM      2  C   UNL     1       3.497   5.629  18.628  0.00  0.00    +0.000 A 
ATOM      3  C   UNL     1       2.369   5.830  19.443  0.00  0.00    +0.000 A 
ATOM      4  C   UNL     1       1.757   4.700  19.997  0.00  0.00    +0.000 A 
ATOM      5  F   UNL     1       0.653   4.802  20.751  0.00  0.00    +0.000 F 
ATOM      6  C   UNL     1       2.238   3.418  19.743  0.00  0.00    +0.000 A 
ATOM      7  C   UNL     1       3.383   3.238  18.969  0.00  0.00    +0.000 A 
ATOM      8 CL   UNL     1       3.917   1.616  18.722  0.00  0.00    +0.000 Cl
ENDROOT
BRANCH   3   9
ATOM      9  N   UNL     1       1.898   7.132  19.708  0.00  0.00    +0.000 N 
ATOM     10  N   UNL     1       1.479   7.496  20.973  0.00  0.00    +0.000 NA
ATOM     11  C   UNL     1       1.195   8.764  20.863  0.00  0.00    +0.000 A 
ATOM     12  C   UNL     1       0.713   9.602  22.001  0.00  0.00    +0.000 C 
ATOM     13  N   UNL     1       1.389   9.270  19.640  0.00  0.00    +0.000 N 
ATOM     14  C   UNL     1       1.839   8.249  18.857  0.00  0.00    +0.000 A 
ATOM     15  O   UNL     1       2.100   8.325  17.667  0.00  0.00    +0.000 OA
BRANCH  13  16
ATOM     16  C   UNL     1       1.004  10.537  19.132  0.00  0.00    +0.000 C 
ATOM     17  F   UNL     1       2.049  11.096  18.470  0.00  0.00    +0.000 F 
ATOM     18  F   UNL     1       0.005  10.391  18.224  0.00  0.00    +0.000 F 
ENDBRANCH  13  16
ENDBRANCH   3   9
BRANCH   1  19
ATOM     19  C   UNL     1       5.380   4.230  17.690  0.00  0.00    +0.000 C 
BRANCH  19  20
ATOM     20  C   UNL     1       5.287   4.632  16.212  0.00  0.00    +0.000 C 
ATOM     21 CL   UNL     1       6.184   3.465  15.191  0.00  0.00    +0.000 Cl
BRANCH  20  22
ATOM     22  C   UNL     1       5.877   6.010  15.975  0.00  0.00    +0.000 C 
ATOM     23  O   UNL     1       5.303   6.937  15.419  0.00  0.00    +0.000 OA
BRANCH  22  24
ATOM     24  O   UNL     1       7.163   6.053  16.432  0.00  0.00    +0.000 OA
BRANCH  24  26
ATOM     25  C   UNL     1       7.927   6.561  18.673  0.00  0.00    +0.000 C 
ATOM     26  C   UNL     1       7.463   7.124  17.343  0.00  0.00    +0.000 C 
ENDBRANCH  24  26
ENDBRANCH  22  24
ENDBRANCH  20  22
ENDBRANCH  19  20
ENDBRANCH   1  19
TORSDOF 7
ENDMDL
MODEL 3
REMARK VINA RESULT:      -7.4      5.765      7.837
REMARK  Name = 
REMARK  9 active torsions:
REMARK  status: ('A' for Active; 'I' for Inactive)
REMARK    1  A    between atoms: C_1  and  C_2
REMARK    2  A    between atoms: C_2  and  O_3
REMARK    3  A    between atoms: O_3  and  C_4
REMARK    4  A    between atoms: C_4  and  C_6
REMARK    5  A    between atoms: C_6  and  C_8
REMARK    6  A    between atoms: C_8  and  C_9
REMARK    7  A    between atoms: C_11  and  N_12
REMARK    8  A    between atoms: C_14  and  C_15
REMARK    9  A    between atoms: N_16  and  C_17
REMARK                            x       y       z     vdW  Elec       q    Type
REMARK                         _______ _______ _______ _____ _____    ______ ____
ROOT
ATOM      1  C   UNL     1       5.745   4.551  15.035  0.00  0.00    +0.000 A 
ATOM      2  C   UNL     1       4.811   4.231  16.046  0.00  0.00    +0.000 A 
ATOM      3  C   UNL     1       5.089   4.443  17.408  0.00  0.00    +0.000 A 
ATOM      4  C   UNL     1       6.362   4.915  17.746  0.00  0.00    +0.000 A 
ATOM      5  F   UNL     1       6.721   5.104  19.024  0.00  0.00    +0.000 F 
ATOM      6  C   UNL     1       7.328   5.155  16.771  0.00  0.00    +0.000 A 
ATOM      7  C   UNL     1       7.023   4.981  15.423  0.00  0.00    +0.000 A 
ATOM      8 CL   UNL     1       8.276   5.320  14.285  0.00  0.00    +0.000 Cl
ENDROOT
BRANCH   3   9
ATOM      9  N   UNL     1       4.100   4.213  18.386  0.00  0.00    +0.000 N 
ATOM     10  N   UNL     1       3.516   5.261  19.071  0.00  0.00    +0.000 NA
ATOM     11  C   UNL     1       2.613   4.689  19.819  0.00  0.00    +0.000 A 
ATOM     12  C   UNL     1       1.704   5.443  20.733  0.00  0.00    +0.000 C 
ATOM     13  N   UNL     1       2.549   3.359  19.690  0.00  0.00    +0.000 N 
ATOM     14  C   UNL     1       3.498   3.005  18.777  0.00  0.00    +0.000 A 
ATOM     15  O   UNL     1       3.753   1.866  18.420  0.00  0.00    +0.000 OA
BRANCH  13  16
ATOM     16  C   UNL     1       1.833   2.424  20.480  0.00  0.00    +0.000 C 
ATOM     17  F   UNL     1       2.186   2.567  21.783  0.00  0.00    +0.000 F 
ATOM     18  F   UNL     1       0.501   2.679  20.410  0.00  0.00    +0.000 F 
ENDBRANCH  13  16
ENDBRANCH   3   9
BRANCH   1  19
ATOM     19  C   UNL     1       5.306   4.470  13.580  0.00  0.00    +0.000 C 
BRANCH  19  20
ATOM     20  C   UNL     1       6.132   3.476  12.753  0.00  0.00    +0.000 C 
ATOM     21 CL   UNL     1       7.303   4.348  11.717  0.00  0.00    +0.000 Cl
BRANCH  20  22
ATOM     22  C   UNL     1       5.246   2.637  11.850  0.00  0.00    +0.000 C 
ATOM     23  O   UNL     1       5.577   1.587  11.314  0.00  0.00    +0.000 OA
BRANCH  22  24
ATOM     24  O   UNL     1       4.035   3.247  11.684  0.00  0.00    +0.000 OA
BRANCH  24  26
ATOM     25  C   UNL     1       3.024   4.274   9.738  0.00  0.00    +0.000 C 
ATOM     26  C   UNL     1       3.367   2.974  10.442  0.00  0.00    +0.000 C 
ENDBRANCH  24  26
ENDBRANCH  22  24
ENDBRANCH  20  22
ENDBRANCH  19  20
ENDBRANCH   1  19
TORSDOF 7
ENDMDL
MODEL 4
REMARK VINA RESULT:      -7.4      3.547      4.600
REMARK  Name = 
REMARK  9 active torsions:
REMARK  status: ('A' for Active; 'I' for Inactive)
REMARK    1  A    between atoms: C_1  and  C_2
REMARK    2  A    between atoms: C_2  and  O_3
REMARK    3  A    between atoms: O_3  and  C_4
REMARK    4  A    between atoms: C_4  and  C_6
REMARK    5  A    between atoms: C_6  and  C_8
REMARK    6  A    between atoms: C_8  and  C_9
REMARK    7  A    between atoms: C_11  and  N_12
REMARK    8  A    between atoms: C_14  and  C_15
REMARK    9  A    between atoms: N_16  and  C_17
REMARK                            x       y       z     vdW  Elec       q    Type
REMARK                         _______ _______ _______ _____ _____    ______ ____
ROOT
ATOM      1  C   UNL     1       3.928   6.248  17.673  0.00  0.00    +0.000 A 
ATOM      2  C   UNL     1       3.181   7.266  18.307  0.00  0.00    +0.000 A 
ATOM      3  C   UNL     1       2.237   6.979  19.309  0.00  0.00    +0.000 A 
ATOM      4  C   UNL     1       1.999   5.634  19.613  0.00  0.00    +0.000 A 
ATOM      5  F   UNL     1       1.085   5.275  20.526  0.00  0.00    +0.000 F 
ATOM      6  C   UNL     1       2.662   4.612  18.939  0.00  0.00    +0.000 A 
ATOM      7  C   UNL     1       3.626   4.912  17.979  0.00  0.00    +0.000 A 
ATOM      8 CL   UNL     1       4.410   3.581  17.209  0.00  0.00    +0.000 Cl
ENDROOT
BRANCH   3   9
ATOM      9  N   UNL     1       1.582   8.021  19.997  0.00  0.00    +0.000 N 
ATOM     10  N   UNL     1       1.384   7.961  21.363  0.00  0.00    +0.000 NA
ATOM     11  C   UNL     1       0.832   9.106  21.657  0.00  0.00    +0.000 A 
ATOM     12  C   UNL     1       0.451   9.504  23.044  0.00  0.00    +0.000 C 
ATOM     13  N   UNL     1       0.648   9.916  20.608  0.00  0.00    +0.000 N 
ATOM     14  C   UNL     1       1.114   9.254  19.511  0.00  0.00    +0.000 A 
ATOM     15  O   UNL     1       1.088   9.669  18.364  0.00  0.00    +0.000 OA
BRANCH  13  16
ATOM     16  C   UNL     1      -0.087  11.127  20.540  0.00  0.00    +0.000 C 
ATOM     17  F   UNL     1       0.682  12.092  19.973  0.00  0.00    +0.000 F 
ATOM     18  F   UNL     1      -1.167  10.972  19.733  0.00  0.00    +0.000 F 
ENDBRANCH  13  16
ENDBRANCH   3   9
BRANCH   1  19
ATOM     19  C   UNL     1       5.060   6.646  16.737  0.00  0.00    +0.000 C 
BRANCH  19  20
ATOM     20  C   UNL     1       6.450   6.293  17.283  0.00  0.00    +0.000 C 
ATOM     21 CL   UNL     1       7.448   7.771  17.449  0.00  0.00    +0.000 Cl
BRANCH  20  22
ATOM     22  C   UNL     1       7.182   5.337  16.359  0.00  0.00    +0.000 C 
ATOM     23  O   UNL     1       7.931   4.439  16.722  0.00  0.00    +0.000 OA
BRANCH  22  24
ATOM     24  O   UNL     1       6.920   5.653  15.056  0.00  0.00    +0.000 OA
BRANCH  24  26
ATOM     25  C   UNL     1       7.414   4.828  12.834  0.00  0.00    +0.000 C 
ATOM     26  C   UNL     1       6.754   4.535  14.168  0.00  0.00    +0.000 C 
ENDBRANCH  24  26
ENDBRANCH  22  24
ENDBRANCH  20  22
ENDBRANCH  19  20
ENDBRANCH   1  19
TORSDOF 7
ENDMDL
MODEL 5
REMARK VINA RESULT:      -7.4      3.349      5.004
REMARK  Name = 
REMARK  9 active torsions:
REMARK  status: ('A' for Active; 'I' for Inactive)
REMARK    1  A    between atoms: C_1  and  C_2
REMARK    2  A    between atoms: C_2  and  O_3
REMARK    3  A    between atoms: O_3  and  C_4
REMARK    4  A    between atoms: C_4  and  C_6
REMARK    5  A    between atoms: C_6  and  C_8
REMARK    6  A    between atoms: C_8  and  C_9
REMARK    7  A    between atoms: C_11  and  N_12
REMARK    8  A    between atoms: C_14  and  C_15
REMARK    9  A    between atoms: N_16  and  C_17
REMARK                            x       y       z     vdW  Elec       q    Type
REMARK                         _______ _______ _______ _____ _____    ______ ____
ROOT
ATOM      1  C   UNL     1       3.635   3.991  17.917  0.00  0.00    +0.000 A 
ATOM      2  C   UNL     1       3.167   5.300  18.172  0.00  0.00    +0.000 A 
ATOM      3  C   UNL     1       2.263   5.576  19.213  0.00  0.00    +0.000 A 
ATOM      4  C   UNL     1       1.772   4.494  19.952  0.00  0.00    +0.000 A 
ATOM      5  F   UNL     1       0.875   4.667  20.933  0.00  0.00    +0.000 F 
ATOM      6  C   UNL     1       2.153   3.186  19.661  0.00  0.00    +0.000 A 
ATOM      7  C   UNL     1       3.083   2.933  18.655  0.00  0.00    +0.000 A 
ATOM      8 CL   UNL     1       3.510   1.284  18.377  0.00  0.00    +0.000 Cl
ENDROOT
BRANCH   3   9
ATOM      9  N   UNL     1       1.895   6.904  19.511  0.00  0.00    +0.000 N 
ATOM     10  N   UNL     1       1.570   7.283  20.799  0.00  0.00    +0.000 NA
ATOM     11  C   UNL     1       1.365   8.568  20.711  0.00  0.00    +0.000 A 
ATOM     12  C   UNL     1       1.003   9.426  21.879  0.00  0.00    +0.000 C 
ATOM     13  N   UNL     1       1.526   9.072  19.482  0.00  0.00    +0.000 N 
ATOM     14  C   UNL     1       1.863   8.029  18.670  0.00  0.00    +0.000 A 
ATOM     15  O   UNL     1       2.063   8.099  17.468  0.00  0.00    +0.000 OA
BRANCH  13  16
ATOM     16  C   UNL     1       1.198  10.366  19.003  0.00  0.00    +0.000 C 
ATOM     17  F   UNL     1       2.223  10.843  18.252  0.00  0.00    +0.000 F 
ATOM     18  F   UNL     1       0.118  10.299  18.183  0.00  0.00    +0.000 F 
ENDBRANCH  13  16
ENDBRANCH   3   9
BRANCH   1  19
ATOM     19  C   UNL     1       4.750   3.797  16.900  0.00  0.00    +0.000 C 
BRANCH  19  20
ATOM     20  C   UNL     1       5.682   5.011  16.785  0.00  0.00    +0.000 C 
ATOM     21 CL   UNL     1       5.768   5.572  15.087  0.00  0.00    +0.000 Cl
BRANCH  20  22
ATOM     22  C   UNL     1       7.091   4.672  17.237  0.00  0.00    +0.000 C 
ATOM     23  O   UNL     1       8.028   4.416  16.492  0.00  0.00    +0.000 OA
BRANCH  22  24
ATOM     24  O   UNL     1       7.153   4.650  18.601  0.00  0.00    +0.000 OA
BRANCH  24  26
ATOM     25  C   UNL     1       7.820   6.945  18.210  0.00  0.00    +0.000 C 
ATOM     26  C   UNL     1       7.736   5.811  19.215  0.00  0.00    +0.000 C 
ENDBRANCH  24  26
ENDBRANCH  22  24
ENDBRANCH  20  22
ENDBRANCH  19  20
ENDBRANCH   1  19
TORSDOF 7
ENDMDL
MODEL 6
REMARK VINA RESULT:      -7.3      3.504      5.215
REMARK  Name = 
REMARK  9 active torsions:
REMARK  status: ('A' for Active; 'I' for Inactive)
REMARK    1  A    between atoms: C_1  and  C_2
REMARK    2  A    between atoms: C_2  and  O_3
REMARK    3  A    between atoms: O_3  and  C_4
REMARK    4  A    between atoms: C_4  and  C_6
REMARK    5  A    between atoms: C_6  and  C_8
REMARK    6  A    between atoms: C_8  and  C_9
REMARK    7  A    between atoms: C_11  and  N_12
REMARK    8  A    between atoms: C_14  and  C_15
REMARK    9  A    between atoms: N_16  and  C_17
REMARK                            x       y       z     vdW  Elec       q    Type
REMARK                         _______ _______ _______ _____ _____    ______ ____
ROOT
ATOM      1  C   UNL     1       4.353   4.523  19.058  0.00  0.00    +0.000 A 
ATOM      2  C   UNL     1       3.729   5.790  19.103  0.00  0.00    +0.000 A 
ATOM      3  C   UNL     1       2.467   5.976  19.695  0.00  0.00    +0.000 A 
ATOM      4  C   UNL     1       1.803   4.844  20.179  0.00  0.00    +0.000 A 
ATOM      5  F   UNL     1       0.579   4.930  20.720  0.00  0.00    +0.000 F 
ATOM      6  C   UNL     1       2.362   3.573  20.068  0.00  0.00    +0.000 A 
ATOM      7  C   UNL     1       3.631   3.410  19.517  0.00  0.00    +0.000 A 
ATOM      8 CL   UNL     1       4.252   1.802  19.436  0.00  0.00    +0.000 Cl
ENDROOT
BRANCH   3   9
ATOM      9  N   UNL     1       1.916   7.268  19.819  0.00  0.00    +0.000 N 
ATOM     10  N   UNL     1       1.443   7.729  21.032  0.00  0.00    +0.000 NA
ATOM     11  C   UNL     1       1.089   8.961  20.789  0.00  0.00    +0.000 A 
ATOM     12  C   UNL     1       0.530   9.877  21.827  0.00  0.00    +0.000 C 
ATOM     13  N   UNL     1       1.287   9.355  19.526  0.00  0.00    +0.000 N 
ATOM     14  C   UNL     1       1.816   8.289  18.859  0.00  0.00    +0.000 A 
ATOM     15  O   UNL     1       2.104   8.263  17.673  0.00  0.00    +0.000 OA
BRANCH  13  16
ATOM     16  C   UNL     1       0.844  10.540  18.885  0.00  0.00    +0.000 C 
ATOM     17  F   UNL     1       1.880  11.109  18.218  0.00  0.00    +0.000 F 
ATOM     18  F   UNL     1      -0.098  10.242  17.954  0.00  0.00    +0.000 F 
ENDBRANCH  13  16
ENDBRANCH   3   9
BRANCH   1  19
ATOM     19  C   UNL     1       5.792   4.432  18.572  0.00  0.00    +0.000 C 
BRANCH  19  20
ATOM     20  C   UNL     1       6.197   5.598  17.659  0.00  0.00    +0.000 C 
ATOM     21 CL   UNL     1       6.381   5.031  15.970  0.00  0.00    +0.000 Cl
BRANCH  20  22
ATOM     22  C   UNL     1       7.518   6.208  18.093  0.00  0.00    +0.000 C 
ATOM     23  O   UNL     1       8.135   5.906  19.107  0.00  0.00    +0.000 OA
BRANCH  22  24
ATOM     24  O   UNL     1       7.897   7.178  17.210  0.00  0.00    +0.000 OA
BRANCH  24  26
ATOM     25  C   UNL     1       8.486   9.297  18.224  0.00  0.00    +0.000 C 
ATOM     26  C   UNL     1       7.417   8.502  17.498  0.00  0.00    +0.000 C 
ENDBRANCH  24  26
ENDBRANCH  22  24
ENDBRANCH  20  22
ENDBRANCH  19  20
ENDBRANCH   1  19
TORSDOF 7
ENDMDL
MODEL 7
REMARK VINA RESULT:      -7.3      5.832      7.785
REMARK  Name = 
REMARK  9 active torsions:
REMARK  status: ('A' for Active; 'I' for Inactive)
REMARK    1  A    between atoms: C_1  and  C_2
REMARK    2  A    between atoms: C_2  and  O_3
REMARK    3  A    between atoms: O_3  and  C_4
REMARK    4  A    between atoms: C_4  and  C_6
REMARK    5  A    between atoms: C_6  and  C_8
REMARK    6  A    between atoms: C_8  and  C_9
REMARK    7  A    between atoms: C_11  and  N_12
REMARK    8  A    between atoms: C_14  and  C_15
REMARK    9  A    between atoms: N_16  and  C_17
REMARK                            x       y       z     vdW  Elec       q    Type
REMARK                         _______ _______ _______ _____ _____    ______ ____
ROOT
ATOM      1  C   UNL     1       5.789   4.533  14.909  0.00  0.00    +0.000 A 
ATOM      2  C   UNL     1       4.842   4.134  15.879  0.00  0.00    +0.000 A 
ATOM      3  C   UNL     1       5.075   4.301  17.256  0.00  0.00    +0.000 A 
ATOM      4  C   UNL     1       6.318   4.810  17.648  0.00  0.00    +0.000 A 
ATOM      5  F   UNL     1       6.634   4.961  18.942  0.00  0.00    +0.000 F 
ATOM      6  C   UNL     1       7.298   5.130  16.712  0.00  0.00    +0.000 A 
ATOM      7  C   UNL     1       7.037   4.999  15.350  0.00  0.00    +0.000 A 
ATOM      8 CL   UNL     1       8.304   5.436  14.262  0.00  0.00    +0.000 Cl
ENDROOT
BRANCH   3   9
ATOM      9  N   UNL     1       4.071   3.990  18.196  0.00  0.00    +0.000 N 
ATOM     10  N   UNL     1       3.470   2.747  18.214  0.00  0.00    +0.000 NA
ATOM     11  C   UNL     1       2.668   2.795  19.242  0.00  0.00    +0.000 A 
ATOM     12  C   UNL     1       1.811   1.650  19.672  0.00  0.00    +0.000 C 
ATOM     13  N   UNL     1       2.686   3.958  19.904  0.00  0.00    +0.000 N 
ATOM     14  C   UNL     1       3.577   4.764  19.259  0.00  0.00    +0.000 A 
ATOM     15  O   UNL     1       3.840   5.918  19.560  0.00  0.00    +0.000 OA
BRANCH  13  16
ATOM     16  C   UNL     1       1.815   4.410  20.927  0.00  0.00    +0.000 C 
ATOM     17  F   UNL     1       0.528   4.265  20.522  0.00  0.00    +0.000 F 
ATOM     18  F   UNL     1       1.960   3.642  22.036  0.00  0.00    +0.000 F 
ENDBRANCH  13  16
ENDBRANCH   3   9
BRANCH   1  19
ATOM     19  C   UNL     1       5.392   4.495  13.440  0.00  0.00    +0.000 C 
BRANCH  19  20
ATOM     20  C   UNL     1       6.144   3.425  12.637  0.00  0.00    +0.000 C 
ATOM     21 CL   UNL     1       7.368   4.188  11.576  0.00  0.00    +0.000 Cl
BRANCH  20  22
ATOM     22  C   UNL     1       5.199   2.624  11.760  0.00  0.00    +0.000 C 
ATOM     23  O   UNL     1       5.459   1.545  11.244  0.00  0.00    +0.000 OA
BRANCH  22  24
ATOM     24  O   UNL     1       4.027   3.305  11.592  0.00  0.00    +0.000 OA
BRANCH  24  26
ATOM     25  C   UNL     1       2.968   4.270   9.639  0.00  0.00    +0.000 C 
ATOM     26  C   UNL     1       3.295   2.995  10.395  0.00  0.00    +0.000 C 
ENDBRANCH  24  26
ENDBRANCH  22  24
ENDBRANCH  20  22
ENDBRANCH  19  20
ENDBRANCH   1  19
TORSDOF 7
ENDMDL
MODEL 8
REMARK VINA RESULT:      -7.2      3.542      4.869
REMARK  Name = 
REMARK  9 active torsions:
REMARK  status: ('A' for Active; 'I' for Inactive)
REMARK    1  A    between atoms: C_1  and  C_2
REMARK    2  A    between atoms: C_2  and  O_3
REMARK    3  A    between atoms: O_3  and  C_4
REMARK    4  A    between atoms: C_4  and  C_6
REMARK    5  A    between atoms: C_6  and  C_8
REMARK    6  A    between atoms: C_8  and  C_9
REMARK    7  A    between atoms: C_11  and  N_12
REMARK    8  A    between atoms: C_14  and  C_15
REMARK    9  A    between atoms: N_16  and  C_17
REMARK                            x       y       z     vdW  Elec       q    Type
REMARK                         _______ _______ _______ _____ _____    ______ ____
ROOT
ATOM      1  C   UNL     1       3.638   4.326  17.724  0.00  0.00    +0.000 A 
ATOM      2  C   UNL     1       3.128   5.608  18.032  0.00  0.00    +0.000 A 
ATOM      3  C   UNL     1       2.303   5.831  19.149  0.00  0.00    +0.000 A 
ATOM      4  C   UNL     1       1.933   4.720  19.916  0.00  0.00    +0.000 A 
ATOM      5  F   UNL     1       1.116   4.841  20.972  0.00  0.00    +0.000 F 
ATOM      6  C   UNL     1       2.354   3.436  19.580  0.00  0.00    +0.000 A 
ATOM      7  C   UNL     1       3.205   3.236  18.496  0.00  0.00    +0.000 A 
ATOM      8 CL   UNL     1       3.690   1.613  18.165  0.00  0.00    +0.000 Cl
ENDROOT
BRANCH   3   9
ATOM      9  N   UNL     1       1.896   7.136  19.491  0.00  0.00    +0.000 N 
ATOM     10  N   UNL     1       1.538   7.456  20.786  0.00  0.00    +0.000 NA
ATOM     11  C   UNL     1       1.301   8.738  20.745  0.00  0.00    +0.000 A 
ATOM     12  C   UNL     1       0.896   9.539  21.938  0.00  0.00    +0.000 C 
ATOM     13  N   UNL     1       1.471   9.293  19.540  0.00  0.00    +0.000 N 
ATOM     14  C   UNL     1       1.850   8.293  18.695  0.00  0.00    +0.000 A 
ATOM     15  O   UNL     1       2.070   8.414  17.500  0.00  0.00    +0.000 OA
BRANCH  13  16
ATOM     16  C   UNL     1       1.118  10.596  19.105  0.00  0.00    +0.000 C 
ATOM     17  F   UNL     1       2.126  11.111  18.355  0.00  0.00    +0.000 F 
ATOM     18  F   UNL     1       0.028  10.539  18.299  0.00  0.00    +0.000 F 
ENDBRANCH  13  16
ENDBRANCH   3   9
BRANCH   1  19
ATOM     19  C   UNL     1       4.671   4.196  16.614  0.00  0.00    +0.000 C 
BRANCH  19  20
ATOM     20  C   UNL     1       6.100   4.504  17.079  0.00  0.00    +0.000 C 
ATOM     21 CL   UNL     1       6.092   5.101  18.767  0.00  0.00    +0.000 Cl
BRANCH  20  22
ATOM     22  C   UNL     1       6.748   5.568  16.211  0.00  0.00    +0.000 C 
ATOM     23  O   UNL     1       7.584   6.377  16.592  0.00  0.00    +0.000 OA
BRANCH  22  24
ATOM     24  O   UNL     1       6.227   5.523  14.949  0.00  0.00    +0.000 OA
BRANCH  24  26
ATOM     25  C   UNL     1       6.201   3.770  13.279  0.00  0.00    +0.000 C 
ATOM     26  C   UNL     1       7.027   4.837  13.972  0.00  0.00    +0.000 C 
ENDBRANCH  24  26
ENDBRANCH  22  24
ENDBRANCH  20  22
ENDBRANCH  19  20
ENDBRANCH   1  19
TORSDOF 7
ENDMDL
MODEL 9
REMARK VINA RESULT:      -7.2      3.520      4.904
REMARK  Name = 
REMARK  9 active torsions:
REMARK  status: ('A' for Active; 'I' for Inactive)
REMARK    1  A    between atoms: C_1  and  C_2
REMARK    2  A    between atoms: C_2  and  O_3
REMARK    3  A    between atoms: O_3  and  C_4
REMARK    4  A    between atoms: C_4  and  C_6
REMARK    5  A    between atoms: C_6  and  C_8
REMARK    6  A    between atoms: C_8  and  C_9
REMARK    7  A    between atoms: C_11  and  N_12
REMARK    8  A    between atoms: C_14  and  C_15
REMARK    9  A    between atoms: N_16  and  C_17
REMARK                            x       y       z     vdW  Elec       q    Type
REMARK                         _______ _______ _______ _____ _____    ______ ____
ROOT
ATOM      1  C   UNL     1       3.851   4.680  17.777  0.00  0.00    +0.000 A 
ATOM      2  C   UNL     1       3.310   5.948  18.082  0.00  0.00    +0.000 A 
ATOM      3  C   UNL     1       2.314   6.115  19.060  0.00  0.00    +0.000 A 
ATOM      4  C   UNL     1       1.811   4.964  19.679  0.00  0.00    +0.000 A 
ATOM      5  F   UNL     1       0.831   5.033  20.591  0.00  0.00    +0.000 F 
ATOM      6  C   UNL     1       2.269   3.696  19.331  0.00  0.00    +0.000 A 
ATOM      7  C   UNL     1       3.287   3.551  18.391  0.00  0.00    +0.000 A 
ATOM      8 CL   UNL     1       3.805   1.943  18.036  0.00  0.00    +0.000 Cl
ENDROOT
BRANCH   3   9
ATOM      9  N   UNL     1       1.867   7.403  19.418  0.00  0.00    +0.000 N 
ATOM     10  N   UNL     1       1.498   7.696  20.717  0.00  0.00    +0.000 NA
ATOM     11  C   UNL     1       1.223   8.971  20.691  0.00  0.00    +0.000 A 
ATOM     12  C   UNL     1       0.793   9.745  21.893  0.00  0.00    +0.000 C 
ATOM     13  N   UNL     1       1.378   9.546  19.493  0.00  0.00    +0.000 N 
ATOM     14  C   UNL     1       1.789   8.568  18.636  0.00  0.00    +0.000 A 
ATOM     15  O   UNL     1       2.006   8.711  17.444  0.00  0.00    +0.000 OA
BRANCH  13  16
ATOM     16  C   UNL     1       0.988  10.844  19.074  0.00  0.00    +0.000 C 
ATOM     17  F   UNL     1      -0.330  11.029  19.342  0.00  0.00    +0.000 F 
ATOM     18  F   UNL     1       1.662  11.784  19.782  0.00  0.00    +0.000 F 
ENDBRANCH  13  16
ENDBRANCH   3   9
BRANCH   1  19
ATOM     19  C   UNL     1       5.053   4.601  16.846  0.00  0.00    +0.000 C 
BRANCH  19  20
ATOM     20  C   UNL     1       6.392   4.797  17.568  0.00  0.00    +0.000 C 
ATOM     21 CL   UNL     1       6.119   5.136  19.305  0.00  0.00    +0.000 Cl
BRANCH  20  22
ATOM     22  C   UNL     1       7.173   5.959  16.983  0.00  0.00    +0.000 C 
ATOM     23  O   UNL     1       7.534   6.050  15.816  0.00  0.00    +0.000 OA
BRANCH  22  24
ATOM     24  O   UNL     1       7.455   6.872  17.958  0.00  0.00    +0.000 OA
BRANCH  24  26
ATOM     25  C   UNL     1       8.542   9.010  18.294  0.00  0.00    +0.000 C 
ATOM     26  C   UNL     1       7.472   8.246  17.537  0.00  0.00    +0.000 C 
ENDBRANCH  24  26
ENDBRANCH  22  24
ENDBRANCH  20  22
ENDBRANCH  19  20
ENDBRANCH   1  19
TORSDOF 7
ENDMDL
