MODEL 1
REMARK VINA RESULT:      -7.4      0.000      0.000
REMARK  Name = 
REMARK  7 active torsions:
REMARK  status: ('A' for Active; 'I' for Inactive)
REMARK    1  A    between atoms: C_1  and  N_2
REMARK    2  A    between atoms: N_2  and  C_3
REMARK    3  A    between atoms: N_2  and  C_4
REMARK    4  A    between atoms: C_4  and  C_5
REMARK    5  A    between atoms: C_4  and  C_17
REMARK    6  A    between atoms: C_5  and  N_6
REMARK    7  A    between atoms: C_7  and  C_9
REMARK                            x       y       z     vdW  Elec       q    Type
REMARK                         _______ _______ _______ _____ _____    ______ ____
ROOT
ATOM      1  N   UNL     1       5.688   4.188  17.658  0.00  0.00    +0.000 N 
ATOM      2  C   UNL     1       5.427   4.429  18.979  0.00  0.00    +0.000 C 
ATOM      3  O   UNL     1       6.292   4.764  19.780  0.00  0.00    +0.000 OA
ATOM      4  H   UNL     1       5.002   3.673  17.117  0.00  0.00    +0.000 HD
ENDROOT
BRANCH   2   5
ATOM      5  C   UNL     1       3.996   4.347  19.414  0.00  0.00    +0.000 A 
ATOM      6  C   UNL     1       3.429   5.556  19.867  0.00  0.00    +0.000 A 
ATOM      7  C   UNL     1       2.082   5.623  20.216  0.00  0.00    +0.000 A 
ATOM      8 BR   UNL     1       1.348   7.259  20.816  0.00  0.00    +0.000 Br
ATOM      9  C   UNL     1       1.270   4.501  20.119  0.00  0.00    +0.000 A 
ATOM     10  C   UNL     1       1.820   3.289  19.696  0.00  0.00    +0.000 A 
ATOM     11  C   UNL     1       3.179   3.205  19.356  0.00  0.00    +0.000 A 
ATOM     12 CL   UNL     1       3.743   1.631  18.915  0.00  0.00    +0.000 Cl
ENDBRANCH   2   5
BRANCH   1  13
ATOM     13  C   UNL     1       7.023   4.256  17.088  0.00  0.00    +0.000 C 
BRANCH  13  14
ATOM     14  C   UNL     1       7.201   5.343  15.980  0.00  0.00    +0.000 C 
BRANCH  14  15
ATOM     15  C   UNL     1       6.886   4.792  14.604  0.00  0.00    +0.000 A 
ATOM     16  C   UNL     1       6.022   3.811  14.154  0.00  0.00    +0.000 A 
ATOM     17  C   UNL     1       6.251   3.675  12.763  0.00  0.00    +0.000 A 
ATOM     18  C   UNL     1       7.199   4.615  12.439  0.00  0.00    +0.000 A 
ATOM     19  O   UNL     1       7.579   5.302  13.543  0.00  0.00    +0.000 OA
ENDBRANCH  14  15
BRANCH  14  21
ATOM     20  C   UNL     1       5.054   6.610  16.133  0.00  0.00    +0.000 C 
ATOM     21  N   UNL     1       6.514   6.653  16.193  0.00  0.00    +0.000 NA
ATOM     22  C   UNL     1       6.948   7.315  17.422  0.00  0.00    +0.000 C 
ENDBRANCH  14  21
ENDBRANCH  13  14
ENDBRANCH   1  13
TORSDOF 5
ENDMDL
MODEL 2
REMARK VINA RESULT:      -7.4      3.316      4.791
REMARK  Name = 
REMARK  7 active torsions:
REMARK  status: ('A' for Active; 'I' for Inactive)
REMARK    1  A    between atoms: C_1  and  N_2
REMARK    2  A    between atoms: N_2  and  C_3
REMARK    3  A    between atoms: N_2  and  C_4
REMARK    4  A    between atoms: C_4  and  C_5
REMARK    5  A    between atoms: C_4  and  C_17
REMARK    6  A    between atoms: C_5  and  N_6
REMARK    7  A    between atoms: C_7  and  C_9
REMARK                            x       y       z     vdW  Elec       q    Type
REMARK                         _______ _______ _______ _____ _____    ______ ____
ROOT
ATOM      1  N   UNL     1       3.499   6.345  19.591  0.00  0.00    +0.000 N 
ATOM      2  C   UNL     1       2.227   6.441  20.084  0.00  0.00    +0.000 C 
ATOM      3  O   UNL     1       1.616   5.485  20.547  0.00  0.00    +0.000 OA
ATOM      4  H   UNL     1       3.844   7.090  18.996  0.00  0.00    +0.000 HD
ENDROOT
BRANCH   2   5
ATOM      5  C   UNL     1       1.612   7.807  20.114  0.00  0.00    +0.000 A 
ATOM      6  C   UNL     1       0.967   8.156  21.318  0.00  0.00    +0.000 A 
ATOM      7  C   UNL     1       0.434   9.431  21.496  0.00  0.00    +0.000 A 
ATOM      8 BR   UNL     1      -0.421   9.873  23.123  0.00  0.00    +0.000 Br
ATOM      9  C   UNL     1       0.533  10.385  20.491  0.00  0.00    +0.000 A 
ATOM     10  C   UNL     1       1.147  10.049  19.282  0.00  0.00    +0.000 A 
ATOM     11  C   UNL     1       1.674   8.763  19.085  0.00  0.00    +0.000 A 
ATOM     12 CL   UNL     1       2.343   8.462  17.520  0.00  0.00    +0.000 Cl
ENDBRANCH   2   5
BRANCH   1  13
ATOM     13  C   UNL     1       4.230   5.090  19.523  0.00  0.00    +0.000 C 
BRANCH  13  14
ATOM     14  C   UNL     1       3.859   4.188  18.304  0.00  0.00    +0.000 C 
BRANCH  14  15
ATOM     15  C   UNL     1       4.575   4.633  17.044  0.00  0.00    +0.000 A 
ATOM     16  C   UNL     1       5.301   3.957  16.081  0.00  0.00    +0.000 A 
ATOM     17  C   UNL     1       5.813   4.937  15.197  0.00  0.00    +0.000 A 
ATOM     18  C   UNL     1       5.327   6.143  15.640  0.00  0.00    +0.000 A 
ATOM     19  O   UNL     1       4.568   5.967  16.749  0.00  0.00    +0.000 OA
ENDBRANCH  14  15
BRANCH  14  21
ATOM     20  C   UNL     1       4.319   2.272  19.838  0.00  0.00    +0.000 C 
ATOM     21  N   UNL     1       3.982   2.710  18.485  0.00  0.00    +0.000 NA
ATOM     22  C   UNL     1       2.804   1.991  18.004  0.00  0.00    +0.000 C 
ENDBRANCH  14  21
ENDBRANCH  13  14
ENDBRANCH   1  13
TORSDOF 5
ENDMDL
MODEL 3
REMARK VINA RESULT:      -7.0      2.304      2.782
REMARK  Name = 
REMARK  7 active torsions:
REMARK  status: ('A' for Active; 'I' for Inactive)
REMARK    1  A    between atoms: C_1  and  N_2
REMARK    2  A    between atoms: N_2  and  C_3
REMARK    3  A    between atoms: N_2  and  C_4
REMARK    4  A    between atoms: C_4  and  C_5
REMARK    5  A    between atoms: C_4  and  C_17
REMARK    6  A    between atoms: C_5  and  N_6
REMARK    7  A    between atoms: C_7  and  C_9
REMARK                            x       y       z     vdW  Elec       q    Type
REMARK                         _______ _______ _______ _____ _____    ______ ____
ROOT
ATOM      1  N   UNL     1       4.341   6.372  16.979  0.00  0.00    +0.000 N 
ATOM      2  C   UNL     1       3.597   5.299  17.385  0.00  0.00    +0.000 C 
ATOM      3  O   UNL     1       3.596   4.225  16.796  0.00  0.00    +0.000 OA
ATOM      4  H   UNL     1       4.105   7.289  17.341  0.00  0.00    +0.000 HD
ENDROOT
BRANCH   2   5
ATOM      5  C   UNL     1       2.820   5.455  18.657  0.00  0.00    +0.000 A 
ATOM      6  C   UNL     1       2.629   4.273  19.401  0.00  0.00    +0.000 A 
ATOM      7  C   UNL     1       1.997   4.308  20.642  0.00  0.00    +0.000 A 
ATOM      8 BR   UNL     1       1.759   2.708  21.620  0.00  0.00    +0.000 Br
ATOM      9  C   UNL     1       1.548   5.511  21.174  0.00  0.00    +0.000 A 
ATOM     10  C   UNL     1       1.708   6.688  20.440  0.00  0.00    +0.000 A 
ATOM     11  C   UNL     1       2.328   6.664  19.181  0.00  0.00    +0.000 A 
ATOM     12 CL   UNL     1       2.398   8.179  18.353  0.00  0.00    +0.000 Cl
ENDBRANCH   2   5
BRANCH   1  13
ATOM     13  C   UNL     1       5.164   6.358  15.780  0.00  0.00    +0.000 C 
BRANCH  13  14
ATOM     14  C   UNL     1       6.299   5.285  15.785  0.00  0.00    +0.000 C 
BRANCH  14  15
ATOM     15  C   UNL     1       6.713   4.907  14.376  0.00  0.00    +0.000 A 
ATOM     16  C   UNL     1       6.281   3.935  13.493  0.00  0.00    +0.000 A 
ATOM     17  C   UNL     1       7.128   4.010  12.361  0.00  0.00    +0.000 A 
ATOM     18  C   UNL     1       7.988   5.055  12.596  0.00  0.00    +0.000 A 
ATOM     19  O   UNL     1       7.737   5.610  13.807  0.00  0.00    +0.000 OA
ENDBRANCH  14  15
BRANCH  14  21
ATOM     20  C   UNL     1       7.558   6.906  17.208  0.00  0.00    +0.000 C 
ATOM     21  N   UNL     1       7.500   5.565  16.629  0.00  0.00    +0.000 NA
ATOM     22  C   UNL     1       7.694   4.559  17.672  0.00  0.00    +0.000 C 
ENDBRANCH  14  21
ENDBRANCH  13  14
ENDBRANCH   1  13
TORSDOF 5
ENDMDL
MODEL 4
REMARK VINA RESULT:      -6.9      1.133      1.357
REMARK  Name = 
REMARK  7 active torsions:
REMARK  status: ('A' for Active; 'I' for Inactive)
REMARK    1  A    between atoms: C_1  and  N_2
REMARK    2  A    between atoms: N_2  and  C_3
REMARK    3  A    between atoms: N_2  and  C_4
REMARK    4  A    between atoms: C_4  and  C_5
REMARK    5  A    between atoms: C_4  and  C_17
REMARK    6  A    between atoms: C_5  and  N_6
REMARK    7  A    between atoms: C_7  and  C_9
REMARK                            x       y       z     vdW  Elec       q    Type
REMARK                         _______ _______ _______ _____ _____    ______ ____
ROOT
ATOM      1  N   UNL     1       5.638   4.205  18.476  0.00  0.00    +0.000 N 
ATOM      2  C   UNL     1       4.373   3.981  18.007  0.00  0.00    +0.000 C 
ATOM      3  O   UNL     1       4.144   3.585  16.870  0.00  0.00    +0.000 OA
ATOM      4  H   UNL     1       5.750   4.768  19.312  0.00  0.00    +0.000 HD
ENDROOT
BRANCH   2   5
ATOM      5  C   UNL     1       3.247   4.163  18.978  0.00  0.00    +0.000 A 
ATOM      6  C   UNL     1       3.025   5.487  19.409  0.00  0.00    +0.000 A 
ATOM      7  C   UNL     1       1.953   5.792  20.244  0.00  0.00    +0.000 A 
ATOM      8 BR   UNL     1       1.675   7.577  20.802  0.00  0.00    +0.000 Br
ATOM      9  C   UNL     1       1.078   4.798  20.665  0.00  0.00    +0.000 A 
ATOM     10  C   UNL     1       1.298   3.477  20.268  0.00  0.00    +0.000 A 
ATOM     11  C   UNL     1       2.383   3.154  19.439  0.00  0.00    +0.000 A 
ATOM     12 CL   UNL     1       2.576   1.474  19.081  0.00  0.00    +0.000 Cl
ENDBRANCH   2   5
BRANCH   1  13
ATOM     13  C   UNL     1       6.828   4.044  17.657  0.00  0.00    +0.000 C 
BRANCH  13  14
ATOM     14  C   UNL     1       7.158   5.268  16.745  0.00  0.00    +0.000 C 
BRANCH  14  15
ATOM     15  C   UNL     1       7.009   4.923  15.276  0.00  0.00    +0.000 A 
ATOM     16  C   UNL     1       6.191   4.044  14.590  0.00  0.00    +0.000 A 
ATOM     17  C   UNL     1       6.591   4.093  13.233  0.00  0.00    +0.000 A 
ATOM     18  C   UNL     1       7.589   5.035  13.162  0.00  0.00    +0.000 A 
ATOM     19  O   UNL     1       7.839   5.550  14.391  0.00  0.00    +0.000 OA
ENDBRANCH  14  15
BRANCH  14  21
ATOM     20  C   UNL     1       7.348   7.711  17.226  0.00  0.00    +0.000 C 
ATOM     21  N   UNL     1       6.468   6.557  17.055  0.00  0.00    +0.000 NA
ATOM     22  C   UNL     1       5.413   6.868  16.092  0.00  0.00    +0.000 C 
ENDBRANCH  14  21
ENDBRANCH  13  14
ENDBRANCH   1  13
TORSDOF 5
ENDMDL
MODEL 5
REMARK VINA RESULT:      -6.8      0.999      1.060
REMARK  Name = 
REMARK  7 active torsions:
REMARK  status: ('A' for Active; 'I' for Inactive)
REMARK    1  A    between atoms: C_1  and  N_2
REMARK    2  A    between atoms: N_2  and  C_3
REMARK    3  A    between atoms: N_2  and  C_4
REMARK    4  A    between atoms: C_4  and  C_5
REMARK    5  A    between atoms: C_4  and  C_17
REMARK    6  A    between atoms: C_5  and  N_6
REMARK    7  A    between atoms: C_7  and  C_9
REMARK                            x       y       z     vdW  Elec       q    Type
REMARK                         _______ _______ _______ _____ _____    ______ ____
ROOT
ATOM      1  N   UNL     1       5.582   5.022  18.592  0.00  0.00    +0.000 N 
ATOM      2  C   UNL     1       4.891   4.002  19.187  0.00  0.00    +0.000 C 
ATOM      3  O   UNL     1       5.396   2.917  19.449  0.00  0.00    +0.000 OA
ATOM      4  H   UNL     1       5.056   5.780  18.172  0.00  0.00    +0.000 HD
ENDROOT
BRANCH   2   5
ATOM      5  C   UNL     1       3.477   4.287  19.594  0.00  0.00    +0.000 A 
ATOM      6  C   UNL     1       3.214   5.616  19.984  0.00  0.00    +0.000 A 
ATOM      7  C   UNL     1       1.919   6.021  20.301  0.00  0.00    +0.000 A 
ATOM      8 BR   UNL     1       1.594   7.810  20.817  0.00  0.00    +0.000 Br
ATOM      9  C   UNL     1       0.861   5.123  20.232  0.00  0.00    +0.000 A 
ATOM     10  C   UNL     1       1.107   3.797  19.870  0.00  0.00    +0.000 A 
ATOM     11  C   UNL     1       2.409   3.373  19.564  0.00  0.00    +0.000 A 
ATOM     12 CL   UNL     1       2.582   1.692  19.200  0.00  0.00    +0.000 Cl
ENDBRANCH   2   5
BRANCH   1  13
ATOM     13  C   UNL     1       6.966   4.900  18.168  0.00  0.00    +0.000 C 
BRANCH  13  14
ATOM     14  C   UNL     1       7.327   5.718  16.887  0.00  0.00    +0.000 C 
BRANCH  14  15
ATOM     15  C   UNL     1       6.848   5.021  15.629  0.00  0.00    +0.000 A 
ATOM     16  C   UNL     1       5.880   4.064  15.389  0.00  0.00    +0.000 A 
ATOM     17  C   UNL     1       5.969   3.731  14.015  0.00  0.00    +0.000 A 
ATOM     18  C   UNL     1       6.947   4.541  13.490  0.00  0.00    +0.000 A 
ATOM     19  O   UNL     1       7.475   5.332  14.455  0.00  0.00    +0.000 OA
ENDBRANCH  14  15
BRANCH  14  21
ATOM     20  C   UNL     1       5.520   7.432  17.074  0.00  0.00    +0.000 C 
ATOM     21  N   UNL     1       6.941   7.162  16.868  0.00  0.00    +0.000 NA
ATOM     22  C   UNL     1       7.744   7.963  17.790  0.00  0.00    +0.000 C 
ENDBRANCH  14  21
ENDBRANCH  13  14
ENDBRANCH   1  13
TORSDOF 5
ENDMDL
MODEL 6
REMARK VINA RESULT:      -6.8      2.616      3.982
REMARK  Name = 
REMARK  7 active torsions:
REMARK  status: ('A' for Active; 'I' for Inactive)
REMARK    1  A    between atoms: C_1  and  N_2
REMARK    2  A    between atoms: N_2  and  C_3
REMARK    3  A    between atoms: N_2  and  C_4
REMARK    4  A    between atoms: C_4  and  C_5
REMARK    5  A    between atoms: C_4  and  C_17
REMARK    6  A    between atoms: C_5  and  N_6
REMARK    7  A    between atoms: C_7  and  C_9
REMARK                            x       y       z     vdW  Elec       q    Type
REMARK                         _______ _______ _______ _____ _____    ______ ____
ROOT
ATOM      1  N   UNL     1       4.059   5.843  17.653  0.00  0.00    +0.000 N 
ATOM      2  C   UNL     1       2.744   5.745  18.018  0.00  0.00    +0.000 C 
ATOM      3  O   UNL     1       2.003   4.859  17.611  0.00  0.00    +0.000 OA
ATOM      4  H   UNL     1       4.539   6.723  17.808  0.00  0.00    +0.000 HD
ENDROOT
BRANCH   2   5
ATOM      5  C   UNL     1       2.244   6.738  19.024  0.00  0.00    +0.000 A 
ATOM      6  C   UNL     1       2.033   8.043  18.535  0.00  0.00    +0.000 A 
ATOM      7  C   UNL     1       1.488   9.029  19.354  0.00  0.00    +0.000 A 
ATOM      8 BR   UNL     1       1.211  10.770  18.670  0.00  0.00    +0.000 Br
ATOM      9  C   UNL     1       1.136   8.744  20.667  0.00  0.00    +0.000 A 
ATOM     10  C   UNL     1       1.361   7.462  21.175  0.00  0.00    +0.000 A 
ATOM     11  C   UNL     1       1.924   6.464  20.365  0.00  0.00    +0.000 A 
ATOM     12 CL   UNL     1       2.211   4.946  21.140  0.00  0.00    +0.000 Cl
ENDBRANCH   2   5
BRANCH   1  13
ATOM     13  C   UNL     1       4.689   4.936  16.709  0.00  0.00    +0.000 C 
BRANCH  13  14
ATOM     14  C   UNL     1       5.944   5.522  15.985  0.00  0.00    +0.000 C 
BRANCH  14  15
ATOM     15  C   UNL     1       6.852   6.254  16.954  0.00  0.00    +0.000 A 
ATOM     16  C   UNL     1       7.519   5.867  18.101  0.00  0.00    +0.000 A 
ATOM     17  C   UNL     1       8.130   7.031  18.628  0.00  0.00    +0.000 A 
ATOM     18  C   UNL     1       7.844   8.045  17.746  0.00  0.00    +0.000 A 
ATOM     19  O   UNL     1       7.083   7.581  16.724  0.00  0.00    +0.000 OA
ENDBRANCH  14  15
BRANCH  14  21
ATOM     20  C   UNL     1       5.975   3.487  14.538  0.00  0.00    +0.000 C 
ATOM     21  N   UNL     1       6.734   4.589  15.126  0.00  0.00    +0.000 NA
ATOM     22  C   UNL     1       7.485   5.293  14.087  0.00  0.00    +0.000 C 
ENDBRANCH  14  21
ENDBRANCH  13  14
ENDBRANCH   1  13
TORSDOF 5
ENDMDL
MODEL 7
REMARK VINA RESULT:      -6.8      1.250      1.331
REMARK  Name = 
REMARK  7 active torsions:
REMARK  status: ('A' for Active; 'I' for Inactive)
REMARK    1  A    between atoms: C_1  and  N_2
REMARK    2  A    between atoms: N_2  and  C_3
REMARK    3  A    between atoms: N_2  and  C_4
REMARK    4  A    between atoms: C_4  and  C_5
REMARK    5  A    between atoms: C_4  and  C_17
REMARK    6  A    between atoms: C_5  and  N_6
REMARK    7  A    between atoms: C_7  and  C_9
REMARK                            x       y       z     vdW  Elec       q    Type
REMARK                         _______ _______ _______ _____ _____    ______ ____
ROOT
ATOM      1  N   UNL     1       5.833   4.838  18.463  0.00  0.00    +0.000 N 
ATOM      2  C   UNL     1       4.616   4.216  18.445  0.00  0.00    +0.000 C 
ATOM      3  O   UNL     1       4.400   3.189  17.812  0.00  0.00    +0.000 OA
ATOM      4  H   UNL     1       5.879   5.800  18.781  0.00  0.00    +0.000 HD
ENDROOT
BRANCH   2   5
ATOM      5  C   UNL     1       3.542   4.800  19.311  0.00  0.00    +0.000 A 
ATOM      6  C   UNL     1       3.201   6.140  19.036  0.00  0.00    +0.000 A 
ATOM      7  C   UNL     1       2.159   6.763  19.718  0.00  0.00    +0.000 A 
ATOM      8 BR   UNL     1       1.720   8.559  19.324  0.00  0.00    +0.000 Br
ATOM      9  C   UNL     1       1.431   6.073  20.679  0.00  0.00    +0.000 A 
ATOM     10  C   UNL     1       1.770   4.753  20.982  0.00  0.00    +0.000 A 
ATOM     11  C   UNL     1       2.828   4.119  20.314  0.00  0.00    +0.000 A 
ATOM     12 CL   UNL     1       3.185   2.510  20.835  0.00  0.00    +0.000 Cl
ENDBRANCH   2   5
BRANCH   1  13
ATOM     13  C   UNL     1       6.975   4.371  17.694  0.00  0.00    +0.000 C 
BRANCH  13  14
ATOM     14  C   UNL     1       7.423   5.333  16.548  0.00  0.00    +0.000 C 
BRANCH  14  15
ATOM     15  C   UNL     1       6.983   4.823  15.189  0.00  0.00    +0.000 A 
ATOM     16  C   UNL     1       6.073   3.861  14.790  0.00  0.00    +0.000 A 
ATOM     17  C   UNL     1       6.178   3.762  13.382  0.00  0.00    +0.000 A 
ATOM     18  C   UNL     1       7.104   4.704  13.002  0.00  0.00    +0.000 A 
ATOM     19  O   UNL     1       7.586   5.358  14.087  0.00  0.00    +0.000 OA
ENDBRANCH  14  15
BRANCH  14  21
ATOM     20  C   UNL     1       5.660   7.099  16.652  0.00  0.00    +0.000 C 
ATOM     21  N   UNL     1       7.085   6.781  16.700  0.00  0.00    +0.000 NA
ATOM     22  C   UNL     1       7.691   7.369  17.893  0.00  0.00    +0.000 C 
ENDBRANCH  14  21
ENDBRANCH  13  14
ENDBRANCH   1  13
TORSDOF 5
ENDMDL
MODEL 8
REMARK VINA RESULT:      -6.8      3.597      5.523
REMARK  Name = 
REMARK  7 active torsions:
REMARK  status: ('A' for Active; 'I' for Inactive)
REMARK    1  A    between atoms: C_1  and  N_2
REMARK    2  A    between atoms: N_2  and  C_3
REMARK    3  A    between atoms: N_2  and  C_4
REMARK    4  A    between atoms: C_4  and  C_5
REMARK    5  A    between atoms: C_4  and  C_17
REMARK    6  A    between atoms: C_5  and  N_6
REMARK    7  A    between atoms: C_7  and  C_9
REMARK                            x       y       z     vdW  Elec       q    Type
REMARK                         _______ _______ _______ _____ _____    ______ ____
ROOT
ATOM      1  N   UNL     1       2.902   6.659  19.798  0.00  0.00    +0.000 N 
ATOM      2  C   UNL     1       1.722   7.012  20.393  0.00  0.00    +0.000 C 
ATOM      3  O   UNL     1       1.101   6.264  21.139  0.00  0.00    +0.000 OA
ATOM      4  H   UNL     1       3.225   7.204  19.006  0.00  0.00    +0.000 HD
ENDROOT
BRANCH   2   5
ATOM      5  C   UNL     1       1.238   8.411  20.162  0.00  0.00    +0.000 A 
ATOM      6  C   UNL     1       0.503   8.981  21.222  0.00  0.00    +0.000 A 
ATOM      7  C   UNL     1       0.075  10.305  21.159  0.00  0.00    +0.000 A 
ATOM      8 BR   UNL     1      -0.905  11.045  22.596  0.00  0.00    +0.000 Br
ATOM      9  C   UNL     1       0.368  11.091  20.051  0.00  0.00    +0.000 A 
ATOM     10  C   UNL     1       1.074  10.535  18.982  0.00  0.00    +0.000 A 
ATOM     11  C   UNL     1       1.497   9.198  19.027  0.00  0.00    +0.000 A 
ATOM     12 CL   UNL     1       2.300   8.620  17.609  0.00  0.00    +0.000 Cl
ENDBRANCH   2   5
BRANCH   1  13
ATOM     13  C   UNL     1       3.506   5.346  19.952  0.00  0.00    +0.000 C 
BRANCH  13  14
ATOM     14  C   UNL     1       4.303   4.848  18.704  0.00  0.00    +0.000 C 
BRANCH  14  15
ATOM     15  C   UNL     1       5.679   5.482  18.633  0.00  0.00    +0.000 A 
ATOM     16  C   UNL     1       6.295   6.301  17.705  0.00  0.00    +0.000 A 
ATOM     17  C   UNL     1       7.629   6.480  18.145  0.00  0.00    +0.000 A 
ATOM     18  C   UNL     1       7.731   5.807  19.338  0.00  0.00    +0.000 A 
ATOM     19  O   UNL     1       6.553   5.211  19.646  0.00  0.00    +0.000 OA
ENDBRANCH  14  15
BRANCH  14  21
ATOM     20  C   UNL     1       4.271   2.561  19.705  0.00  0.00    +0.000 C 
ATOM     21  N   UNL     1       4.393   3.371  18.495  0.00  0.00    +0.000 NA
ATOM     22  C   UNL     1       3.459   2.897  17.475  0.00  0.00    +0.000 C 
ENDBRANCH  14  21
ENDBRANCH  13  14
ENDBRANCH   1  13
TORSDOF 5
ENDMDL
MODEL 9
REMARK VINA RESULT:      -6.7      1.751      3.189
REMARK  Name = 
REMARK  7 active torsions:
REMARK  status: ('A' for Active; 'I' for Inactive)
REMARK    1  A    between atoms: C_1  and  N_2
REMARK    2  A    between atoms: N_2  and  C_3
REMARK    3  A    between atoms: N_2  and  C_4
REMARK    4  A    between atoms: C_4  and  C_5
REMARK    5  A    between atoms: C_4  and  C_17
REMARK    6  A    between atoms: C_5  and  N_6
REMARK    7  A    between atoms: C_7  and  C_9
REMARK                            x       y       z     vdW  Elec       q    Type
REMARK                         _______ _______ _______ _____ _____    ______ ____
ROOT
ATOM      1  N   UNL     1       4.497   6.016  16.733  0.00  0.00    +0.000 N 
ATOM      2  C   UNL     1       3.910   4.863  17.176  0.00  0.00    +0.000 C 
ATOM      3  O   UNL     1       3.897   3.827  16.522  0.00  0.00    +0.000 OA
ATOM      4  H   UNL     1       4.252   6.888  17.189  0.00  0.00    +0.000 HD
ENDROOT
BRANCH   2   5
ATOM      5  C   UNL     1       3.334   4.882  18.559  0.00  0.00    +0.000 A 
ATOM      6  C   UNL     1       2.799   6.118  18.977  0.00  0.00    +0.000 A 
ATOM      7  C   UNL     1       2.160   6.236  20.209  0.00  0.00    +0.000 A 
ATOM      8 BR   UNL     1       1.447   7.904  20.742  0.00  0.00    +0.000 Br
ATOM      9  C   UNL     1       2.033   5.136  21.048  0.00  0.00    +0.000 A 
ATOM     10  C   UNL     1       2.578   3.910  20.661  0.00  0.00    +0.000 A 
ATOM     11  C   UNL     1       3.238   3.782  19.429  0.00  0.00    +0.000 A 
ATOM     12 CL   UNL     1       3.925   2.229  19.107  0.00  0.00    +0.000 Cl
ENDBRANCH   2   5
BRANCH   1  13
ATOM     13  C   UNL     1       5.118   6.139  15.425  0.00  0.00    +0.000 C 
BRANCH  13  14
ATOM     14  C   UNL     1       6.653   5.850  15.406  0.00  0.00    +0.000 C 
BRANCH  14  15
ATOM     15  C   UNL     1       7.204   5.679  16.808  0.00  0.00    +0.000 A 
ATOM     16  C   UNL     1       7.583   4.573  17.547  0.00  0.00    +0.000 A 
ATOM     17  C   UNL     1       7.921   5.044  18.838  0.00  0.00    +0.000 A 
ATOM     18  C   UNL     1       7.780   6.410  18.795  0.00  0.00    +0.000 A 
ATOM     19  O   UNL     1       7.359   6.803  17.568  0.00  0.00    +0.000 OA
ENDBRANCH  14  15
BRANCH  14  21
ATOM     20  C   UNL     1       6.095   3.822  14.059  0.00  0.00    +0.000 C 
ATOM     21  N   UNL     1       7.129   4.749  14.515  0.00  0.00    +0.000 NA
ATOM     22  C   UNL     1       7.895   5.249  13.375  0.00  0.00    +0.000 C 
ENDBRANCH  14  21
ENDBRANCH  13  14
ENDBRANCH   1  13
TORSDOF 5
ENDMDL
