MODEL 1
REMARK VINA RESULT:      -7.4      0.000      0.000
REMARK  Name = 
REMARK  7 active torsions:
REMARK  status: ('A' for Active; 'I' for Inactive)
REMARK    1  A    between atoms: C_1  and  N_2
REMARK    2  A    between atoms: N_2  and  C_3
REMARK    3  A    between atoms: C_3  and  C_4
REMARK    4  A    between atoms: C_4  and  C_5
REMARK    5  A    between atoms: C_5  and  C_6
REMARK    6  A    between atoms: C_6  and  C_7
REMARK    7  A    between atoms: C_6  and  C_12
REMARK                            x       y       z     vdW  Elec       q    Type
REMARK                         _______ _______ _______ _____ _____    ______ ____
ROOT
ATOM      1  C   UNL     1       3.215   5.706  17.889  0.00  0.00    +0.000 C 
ENDROOT
BRANCH   1   2
ATOM      2  C   UNL     1       4.727   5.491  17.978  0.00  0.00    +0.000 A 
ATOM      3  C   UNL     1       5.416   5.501  19.218  0.00  0.00    +0.000 A 
ATOM      4  C   UNL     1       6.804   5.285  19.292  0.00  0.00    +0.000 A 
ATOM      5  C   UNL     1       7.549   5.051  18.132  0.00  0.00    +0.000 A 
ATOM      6  C   UNL     1       6.874   5.040  16.917  0.00  0.00    +0.000 A 
ATOM      7  N   UNL     1       7.408   4.833  15.705  0.00  0.00    +0.000 N 
ATOM      8  C   UNL     1       6.387   4.913  14.824  0.00  0.00    +0.000 A 
ATOM      9  C   UNL     1       5.192   5.173  15.487  0.00  0.00    +0.000 A 
ATOM     10  C   UNL     1       5.517   5.252  16.832  0.00  0.00    +0.000 A 
ATOM     11  H   UNL     1       8.411   4.649  15.483  0.00  0.00    +0.000 HD
ENDBRANCH   1   2
BRANCH   1  12
ATOM     12  C   UNL     1       2.452   4.487  18.380  0.00  0.00    +0.000 A 
ATOM     13  C   UNL     1       1.599   4.370  19.482  0.00  0.00    +0.000 A 
ATOM     14  C   UNL     1       1.075   3.088  19.655  0.00  0.00    +0.000 A 
ATOM     15  C   UNL     1       1.505   2.179  18.703  0.00  0.00    +0.000 A 
ATOM     16  S   UNL     1       2.534   2.975  17.640  0.00  0.00    +0.000 S 
ENDBRANCH   1  12
BRANCH   1  17
ATOM     17  C   UNL     1       2.718   7.042  18.511  0.00  0.00    +0.000 C 
BRANCH  17  18
ATOM     18  C   UNL     1       2.525   8.228  17.546  0.00  0.00    +0.000 C 
BRANCH  18  19
ATOM     19  C   UNL     1       1.608   9.330  18.086  0.00  0.00    +0.000 C 
BRANCH  19  21
ATOM     20  C   UNL     1       1.618  11.678  18.613  0.00  0.00    +0.000 C 
ATOM     21  N   UNL     1       2.058  10.660  17.660  0.00  0.00    +0.000 NA
ATOM     22  H   UNL     1       3.103  10.684  17.644  0.00  0.00    +0.000 HD
ENDBRANCH  19  21
ENDBRANCH  18  19
ENDBRANCH  17  18
ENDBRANCH   1  17
TORSDOF 6
ENDMDL
MODEL 2
REMARK VINA RESULT:      -7.0      2.423      4.666
REMARK  Name = 
REMARK  7 active torsions:
REMARK  status: ('A' for Active; 'I' for Inactive)
REMARK    1  A    between atoms: C_1  and  N_2
REMARK    2  A    between atoms: N_2  and  C_3
REMARK    3  A    between atoms: C_3  and  C_4
REMARK    4  A    between atoms: C_4  and  C_5
REMARK    5  A    between atoms: C_5  and  C_6
REMARK    6  A    between atoms: C_6  and  C_7
REMARK    7  A    between atoms: C_6  and  C_12
REMARK                            x       y       z     vdW  Elec       q    Type
REMARK                         _______ _______ _______ _____ _____    ______ ____
ROOT
ATOM      1  C   UNL     1       3.257   4.719  18.174  0.00  0.00    +0.000 C 
ENDROOT
BRANCH   1   2
ATOM      2  C   UNL     1       4.585   4.635  17.417  0.00  0.00    +0.000 A 
ATOM      3  C   UNL     1       4.651   4.228  16.060  0.00  0.00    +0.000 A 
ATOM      4  C   UNL     1       5.874   4.170  15.367  0.00  0.00    +0.000 A 
ATOM      5  C   UNL     1       7.069   4.518  16.005  0.00  0.00    +0.000 A 
ATOM      6  C   UNL     1       7.003   4.918  17.334  0.00  0.00    +0.000 A 
ATOM      7  N   UNL     1       8.030   5.289  18.111  0.00  0.00    +0.000 N 
ATOM      8  C   UNL     1       7.502   5.590  19.318  0.00  0.00    +0.000 A 
ATOM      9  C   UNL     1       6.123   5.408  19.304  0.00  0.00    +0.000 A 
ATOM     10  C   UNL     1       5.813   4.976  18.023  0.00  0.00    +0.000 A 
ATOM     11  H   UNL     1       9.038   5.335  17.842  0.00  0.00    +0.000 HD
ENDBRANCH   1   2
BRANCH   1  12
ATOM     12  C   UNL     1       2.832   6.162  18.388  0.00  0.00    +0.000 A 
ATOM     13  C   UNL     1       2.922   7.243  17.505  0.00  0.00    +0.000 A 
ATOM     14  C   UNL     1       2.449   8.444  18.037  0.00  0.00    +0.000 A 
ATOM     15  C   UNL     1       1.987   8.332  19.337  0.00  0.00    +0.000 A 
ATOM     16  S   UNL     1       2.160   6.734  19.824  0.00  0.00    +0.000 S 
ENDBRANCH   1  12
BRANCH   1  17
ATOM     17  C   UNL     1       2.130   3.817  17.597  0.00  0.00    +0.000 C 
BRANCH  17  18
ATOM     18  C   UNL     1       1.943   2.434  18.250  0.00  0.00    +0.000 C 
BRANCH  18  19
ATOM     19  C   UNL     1       0.639   2.287  19.040  0.00  0.00    +0.000 C 
BRANCH  19  21
ATOM     20  C   UNL     1       1.494   2.856  21.216  0.00  0.00    +0.000 C 
ATOM     21  N   UNL     1       0.573   3.245  20.150  0.00  0.00    +0.000 NA
ATOM     22  H   UNL     1       0.872   4.188  19.813  0.00  0.00    +0.000 HD
ENDBRANCH  19  21
ENDBRANCH  18  19
ENDBRANCH  17  18
ENDBRANCH   1  17
TORSDOF 6
ENDMDL
MODEL 3
REMARK VINA RESULT:      -7.0      1.393      1.609
REMARK  Name = 
REMARK  7 active torsions:
REMARK  status: ('A' for Active; 'I' for Inactive)
REMARK    1  A    between atoms: C_1  and  N_2
REMARK    2  A    between atoms: N_2  and  C_3
REMARK    3  A    between atoms: C_3  and  C_4
REMARK    4  A    between atoms: C_4  and  C_5
REMARK    5  A    between atoms: C_5  and  C_6
REMARK    6  A    between atoms: C_6  and  C_7
REMARK    7  A    between atoms: C_6  and  C_12
REMARK                            x       y       z     vdW  Elec       q    Type
REMARK                         _______ _______ _______ _____ _____    ______ ____
ROOT
ATOM      1  C   UNL     1       3.347   4.672  18.163  0.00  0.00    +0.000 C 
ENDROOT
BRANCH   1   2
ATOM      2  C   UNL     1       4.855   4.923  18.100  0.00  0.00    +0.000 A 
ATOM      3  C   UNL     1       5.596   5.339  19.235  0.00  0.00    +0.000 A 
ATOM      4  C   UNL     1       6.985   5.551  19.172  0.00  0.00    +0.000 A 
ATOM      5  C   UNL     1       7.680   5.352  17.975  0.00  0.00    +0.000 A 
ATOM      6  C   UNL     1       6.953   4.943  16.863  0.00  0.00    +0.000 A 
ATOM      7  N   UNL     1       7.436   4.700  15.636  0.00  0.00    +0.000 N 
ATOM      8  C   UNL     1       6.378   4.332  14.880  0.00  0.00    +0.000 A 
ATOM      9  C   UNL     1       5.212   4.341  15.639  0.00  0.00    +0.000 A 
ATOM     10  C   UNL     1       5.594   4.735  16.912  0.00  0.00    +0.000 A 
ATOM     11  H   UNL     1       8.429   4.780  15.322  0.00  0.00    +0.000 HD
ENDBRANCH   1   2
BRANCH   1  12
ATOM     12  C   UNL     1       2.949   4.017  19.475  0.00  0.00    +0.000 A 
ATOM     13  C   UNL     1       3.170   2.704  19.903  0.00  0.00    +0.000 A 
ATOM     14  C   UNL     1       2.650   2.430  21.170  0.00  0.00    +0.000 A 
ATOM     15  C   UNL     1       2.014   3.512  21.755  0.00  0.00    +0.000 A 
ATOM     16  S   UNL     1       2.103   4.813  20.697  0.00  0.00    +0.000 S 
ENDBRANCH   1  12
BRANCH   1  17
ATOM     17  C   UNL     1       2.474   5.905  17.794  0.00  0.00    +0.000 C 
BRANCH  17  18
ATOM     18  C   UNL     1       3.146   7.288  17.892  0.00  0.00    +0.000 C 
BRANCH  18  19
ATOM     19  C   UNL     1       2.264   8.368  18.524  0.00  0.00    +0.000 C 
BRANCH  19  21
ATOM     20  C   UNL     1       0.446   9.867  18.032  0.00  0.00    +0.000 C 
ATOM     21  N   UNL     1       1.648   9.224  17.504  0.00  0.00    +0.000 NA
ATOM     22  H   UNL     1       2.314   9.985  17.240  0.00  0.00    +0.000 HD
ENDBRANCH  19  21
ENDBRANCH  18  19
ENDBRANCH  17  18
ENDBRANCH   1  17
TORSDOF 6
ENDMDL
MODEL 4
REMARK VINA RESULT:      -6.9      2.602      5.000
REMARK  Name = 
REMARK  7 active torsions:
REMARK  status: ('A' for Active; 'I' for Inactive)
REMARK    1  A    between atoms: C_1  and  N_2
REMARK    2  A    between atoms: N_2  and  C_3
REMARK    3  A    between atoms: C_3  and  C_4
REMARK    4  A    between atoms: C_4  and  C_5
REMARK    5  A    between atoms: C_5  and  C_6
REMARK    6  A    between atoms: C_6  and  C_7
REMARK    7  A    between atoms: C_6  and  C_12
REMARK                            x       y       z     vdW  Elec       q    Type
REMARK                         _______ _______ _______ _____ _____    ______ ____
ROOT
ATOM      1  C   UNL     1       2.935   6.015  19.801  0.00  0.00    +0.000 C 
ENDROOT
BRANCH   1   2
ATOM      2  C   UNL     1       3.590   5.176  18.701  0.00  0.00    +0.000 A 
ATOM      3  C   UNL     1       2.824   4.475  17.734  0.00  0.00    +0.000 A 
ATOM      4  C   UNL     1       3.435   3.721  16.716  0.00  0.00    +0.000 A 
ATOM      5  C   UNL     1       4.828   3.643  16.629  0.00  0.00    +0.000 A 
ATOM      6  C   UNL     1       5.578   4.331  17.575  0.00  0.00    +0.000 A 
ATOM      7  N   UNL     1       6.915   4.380  17.657  0.00  0.00    +0.000 N 
ATOM      8  C   UNL     1       7.200   5.158  18.724  0.00  0.00    +0.000 A 
ATOM      9  C   UNL     1       6.029   5.608  19.324  0.00  0.00    +0.000 A 
ATOM     10  C   UNL     1       4.992   5.070  18.577  0.00  0.00    +0.000 A 
ATOM     11  H   UNL     1       7.602   3.911  17.026  0.00  0.00    +0.000 HD
ENDBRANCH   1   2
BRANCH   1  12
ATOM     12  C   UNL     1       2.401   7.327  19.253  0.00  0.00    +0.000 A 
ATOM     13  C   UNL     1       2.585   7.889  17.985  0.00  0.00    +0.000 A 
ATOM     14  C   UNL     1       1.962   9.127  17.822  0.00  0.00    +0.000 A 
ATOM     15  C   UNL     1       1.286   9.561  18.950  0.00  0.00    +0.000 A 
ATOM     16  S   UNL     1       1.458   8.398  20.150  0.00  0.00    +0.000 S 
ENDBRANCH   1  12
BRANCH   1  17
ATOM     17  C   UNL     1       1.907   5.241  20.673  0.00  0.00    +0.000 C 
BRANCH  17  18
ATOM     18  C   UNL     1       2.420   3.982  21.401  0.00  0.00    +0.000 C 
BRANCH  18  19
ATOM     19  C   UNL     1       1.613   2.715  21.101  0.00  0.00    +0.000 C 
BRANCH  19  21
ATOM     20  C   UNL     1       0.708   2.128  18.950  0.00  0.00    +0.000 C 
ATOM     21  N   UNL     1       0.544   2.976  20.130  0.00  0.00    +0.000 NA
ATOM     22  H   UNL     1      -0.379   2.736  20.556  0.00  0.00    +0.000 HD
ENDBRANCH  19  21
ENDBRANCH  18  19
ENDBRANCH  17  18
ENDBRANCH   1  17
TORSDOF 6
ENDMDL
MODEL 5
REMARK VINA RESULT:      -6.8      2.849      6.308
REMARK  Name = 
REMARK  7 active torsions:
REMARK  status: ('A' for Active; 'I' for Inactive)
REMARK    1  A    between atoms: C_1  and  N_2
REMARK    2  A    between atoms: N_2  and  C_3
REMARK    3  A    between atoms: C_3  and  C_4
REMARK    4  A    between atoms: C_4  and  C_5
REMARK    5  A    between atoms: C_5  and  C_6
REMARK    6  A    between atoms: C_6  and  C_7
REMARK    7  A    between atoms: C_6  and  C_12
REMARK                            x       y       z     vdW  Elec       q    Type
REMARK                         _______ _______ _______ _____ _____    ______ ____
ROOT
ATOM      1  C   UNL     1       4.593   4.931  16.912  0.00  0.00    +0.000 C 
ENDROOT
BRANCH   1   2
ATOM      2  C   UNL     1       3.757   4.100  17.887  0.00  0.00    +0.000 A 
ATOM      3  C   UNL     1       3.724   2.683  17.831  0.00  0.00    +0.000 A 
ATOM      4  C   UNL     1       2.966   1.926  18.742  0.00  0.00    +0.000 A 
ATOM      5  C   UNL     1       2.217   2.558  19.740  0.00  0.00    +0.000 A 
ATOM      6  C   UNL     1       2.250   3.946  19.796  0.00  0.00    +0.000 A 
ATOM      7  N   UNL     1       1.607   4.728  20.674  0.00  0.00    +0.000 N 
ATOM      8  C   UNL     1       1.927   6.001  20.352  0.00  0.00    +0.000 A 
ATOM      9  C   UNL     1       2.785   6.024  19.257  0.00  0.00    +0.000 A 
ATOM     10  C   UNL     1       2.986   4.697  18.908  0.00  0.00    +0.000 A 
ATOM     11  H   UNL     1       0.980   4.420  21.450  0.00  0.00    +0.000 HD
ENDBRANCH   1   2
BRANCH   1  12
ATOM     12  C   UNL     1       5.852   5.464  17.577  0.00  0.00    +0.000 A 
ATOM     13  C   UNL     1       6.649   4.862  18.556  0.00  0.00    +0.000 A 
ATOM     14  C   UNL     1       7.732   5.645  18.960  0.00  0.00    +0.000 A 
ATOM     15  C   UNL     1       7.803   6.869  18.315  0.00  0.00    +0.000 A 
ATOM     16  S   UNL     1       6.520   6.972  17.235  0.00  0.00    +0.000 S 
ENDBRANCH   1  12
BRANCH   1  17
ATOM     17  C   UNL     1       4.857   4.244  15.543  0.00  0.00    +0.000 C 
BRANCH  17  18
ATOM     18  C   UNL     1       6.330   4.045  15.137  0.00  0.00    +0.000 C 
BRANCH  18  19
ATOM     19  C   UNL     1       6.602   4.263  13.645  0.00  0.00    +0.000 C 
BRANCH  19  21
ATOM     20  C   UNL     1       5.186   3.284  11.963  0.00  0.00    +0.000 C 
ATOM     21  N   UNL     1       6.313   3.054  12.865  0.00  0.00    +0.000 NA
ATOM     22  H   UNL     1       7.140   2.818  12.271  0.00  0.00    +0.000 HD
ENDBRANCH  19  21
ENDBRANCH  18  19
ENDBRANCH  17  18
ENDBRANCH   1  17
TORSDOF 6
ENDMDL
MODEL 6
REMARK VINA RESULT:      -6.8      2.578      4.954
REMARK  Name = 
REMARK  7 active torsions:
REMARK  status: ('A' for Active; 'I' for Inactive)
REMARK    1  A    between atoms: C_1  and  N_2
REMARK    2  A    between atoms: N_2  and  C_3
REMARK    3  A    between atoms: C_3  and  C_4
REMARK    4  A    between atoms: C_4  and  C_5
REMARK    5  A    between atoms: C_5  and  C_6
REMARK    6  A    between atoms: C_6  and  C_7
REMARK    7  A    between atoms: C_6  and  C_12
REMARK                            x       y       z     vdW  Elec       q    Type
REMARK                         _______ _______ _______ _____ _____    ______ ____
ROOT
ATOM      1  C   UNL     1       3.675   6.025  18.676  0.00  0.00    +0.000 C 
ENDROOT
BRANCH   1   2
ATOM      2  C   UNL     1       3.069   4.621  18.617  0.00  0.00    +0.000 A 
ATOM      3  C   UNL     1       3.035   3.866  17.417  0.00  0.00    +0.000 A 
ATOM      4  C   UNL     1       2.492   2.569  17.376  0.00  0.00    +0.000 A 
ATOM      5  C   UNL     1       1.966   1.984  18.532  0.00  0.00    +0.000 A 
ATOM      6  C   UNL     1       2.001   2.723  19.709  0.00  0.00    +0.000 A 
ATOM      7  N   UNL     1       1.551   2.337  20.911  0.00  0.00    +0.000 N 
ATOM      8  C   UNL     1       1.788   3.368  21.751  0.00  0.00    +0.000 A 
ATOM      9  C   UNL     1       2.395   4.419  21.073  0.00  0.00    +0.000 A 
ATOM     10  C   UNL     1       2.527   3.993  19.760  0.00  0.00    +0.000 A 
ATOM     11  H   UNL     1       1.105   1.424  21.153  0.00  0.00    +0.000 HD
ENDBRANCH   1   2
BRANCH   1  12
ATOM     12  C   UNL     1       5.167   5.997  18.389  0.00  0.00    +0.000 A 
ATOM     13  C   UNL     1       6.187   5.361  19.105  0.00  0.00    +0.000 A 
ATOM     14  C   UNL     1       7.459   5.558  18.566  0.00  0.00    +0.000 A 
ATOM     15  C   UNL     1       7.465   6.348  17.429  0.00  0.00    +0.000 A 
ATOM     16  S   UNL     1       5.882   6.796  17.089  0.00  0.00    +0.000 S 
ENDBRANCH   1  12
BRANCH   1  17
ATOM     17  C   UNL     1       2.903   7.093  17.851  0.00  0.00    +0.000 C 
BRANCH  17  18
ATOM     18  C   UNL     1       2.135   8.165  18.648  0.00  0.00    +0.000 C 
BRANCH  18  19
ATOM     19  C   UNL     1       1.943   9.486  17.894  0.00  0.00    +0.000 C 
BRANCH  19  21
ATOM     20  C   UNL     1       0.079  10.561  18.971  0.00  0.00    +0.000 C 
ATOM     21  N   UNL     1       0.523   9.838  17.781  0.00  0.00    +0.000 NA
ATOM     22  H   UNL     1       0.388  10.476  16.964  0.00  0.00    +0.000 HD
ENDBRANCH  19  21
ENDBRANCH  18  19
ENDBRANCH  17  18
ENDBRANCH   1  17
TORSDOF 6
ENDMDL
MODEL 7
REMARK VINA RESULT:      -6.8      1.803      6.013
REMARK  Name = 
REMARK  7 active torsions:
REMARK  status: ('A' for Active; 'I' for Inactive)
REMARK    1  A    between atoms: C_1  and  N_2
REMARK    2  A    between atoms: N_2  and  C_3
REMARK    3  A    between atoms: C_3  and  C_4
REMARK    4  A    between atoms: C_4  and  C_5
REMARK    5  A    between atoms: C_5  and  C_6
REMARK    6  A    between atoms: C_6  and  C_7
REMARK    7  A    between atoms: C_6  and  C_12
REMARK                            x       y       z     vdW  Elec       q    Type
REMARK                         _______ _______ _______ _____ _____    ______ ____
ROOT
ATOM      1  C   UNL     1       3.162   6.109  19.459  0.00  0.00    +0.000 C 
ENDROOT
BRANCH   1   2
ATOM      2  C   UNL     1       2.424   7.410  19.139  0.00  0.00    +0.000 A 
ATOM      3  C   UNL     1       2.435   7.982  17.841  0.00  0.00    +0.000 A 
ATOM      4  C   UNL     1       1.739   9.170  17.552  0.00  0.00    +0.000 A 
ATOM      5  C   UNL     1       1.008   9.824  18.548  0.00  0.00    +0.000 A 
ATOM      6  C   UNL     1       0.995   9.263  19.819  0.00  0.00    +0.000 A 
ATOM      7  N   UNL     1       0.355   9.737  20.898  0.00  0.00    +0.000 N 
ATOM      8  C   UNL     1       0.623   8.876  21.904  0.00  0.00    +0.000 A 
ATOM      9  C   UNL     1       1.441   7.844  21.457  0.00  0.00    +0.000 A 
ATOM     10  C   UNL     1       1.674   8.103  20.114  0.00  0.00    +0.000 A 
ATOM     11  H   UNL     1      -0.231  10.599  20.954  0.00  0.00    +0.000 HD
ENDBRANCH   1   2
BRANCH   1  12
ATOM     12  C   UNL     1       2.215   4.921  19.459  0.00  0.00    +0.000 A 
ATOM     13  C   UNL     1       1.601   4.288  20.545  0.00  0.00    +0.000 A 
ATOM     14  C   UNL     1       0.798   3.204  20.185  0.00  0.00    +0.000 A 
ATOM     15  C   UNL     1       0.768   2.964  18.821  0.00  0.00    +0.000 A 
ATOM     16  S   UNL     1       1.738   4.107  18.062  0.00  0.00    +0.000 S 
ENDBRANCH   1  12
BRANCH   1  17
ATOM     17  C   UNL     1       4.449   5.877  18.619  0.00  0.00    +0.000 C 
BRANCH  17  18
ATOM     18  C   UNL     1       5.619   5.160  19.322  0.00  0.00    +0.000 C 
BRANCH  18  19
ATOM     19  C   UNL     1       6.996   5.493  18.740  0.00  0.00    +0.000 C 
BRANCH  19  21
ATOM     20  C   UNL     1       7.143   4.507  16.550  0.00  0.00    +0.000 C 
ATOM     21  N   UNL     1       7.531   4.376  17.953  0.00  0.00    +0.000 NA
ATOM     22  H   UNL     1       8.576   4.396  17.987  0.00  0.00    +0.000 HD
ENDBRANCH  19  21
ENDBRANCH  18  19
ENDBRANCH  17  18
ENDBRANCH   1  17
TORSDOF 6
ENDMDL
MODEL 8
REMARK VINA RESULT:      -6.8      1.613      1.710
REMARK  Name = 
REMARK  7 active torsions:
REMARK  status: ('A' for Active; 'I' for Inactive)
REMARK    1  A    between atoms: C_1  and  N_2
REMARK    2  A    between atoms: N_2  and  C_3
REMARK    3  A    between atoms: C_3  and  C_4
REMARK    4  A    between atoms: C_4  and  C_5
REMARK    5  A    between atoms: C_5  and  C_6
REMARK    6  A    between atoms: C_6  and  C_7
REMARK    7  A    between atoms: C_6  and  C_12
REMARK                            x       y       z     vdW  Elec       q    Type
REMARK                         _______ _______ _______ _____ _____    ______ ____
ROOT
ATOM      1  C   UNL     1       3.254   5.416  17.657  0.00  0.00    +0.000 C 
ENDROOT
BRANCH   1   2
ATOM      2  C   UNL     1       4.771   5.358  17.844  0.00  0.00    +0.000 A 
ATOM      3  C   UNL     1       5.377   5.494  19.120  0.00  0.00    +0.000 A 
ATOM      4  C   UNL     1       6.772   5.422  19.285  0.00  0.00    +0.000 A 
ATOM      5  C   UNL     1       7.607   5.211  18.183  0.00  0.00    +0.000 A 
ATOM      6  C   UNL     1       7.013   5.077  16.934  0.00  0.00    +0.000 A 
ATOM      7  N   UNL     1       7.640   4.868  15.767  0.00  0.00    +0.000 N 
ATOM      8  C   UNL     1       6.673   4.805  14.826  0.00  0.00    +0.000 A 
ATOM      9  C   UNL     1       5.419   4.974  15.404  0.00  0.00    +0.000 A 
ATOM     10  C   UNL     1       5.650   5.147  16.760  0.00  0.00    +0.000 A 
ATOM     11  H   UNL     1       8.668   4.776  15.612  0.00  0.00    +0.000 HD
ENDBRANCH   1   2
BRANCH   1  12
ATOM     12  C   UNL     1       2.589   4.132  18.124  0.00  0.00    +0.000 A 
ATOM     13  C   UNL     1       1.273   3.930  18.554  0.00  0.00    +0.000 A 
ATOM     14  C   UNL     1       0.999   2.615  18.932  0.00  0.00    +0.000 A 
ATOM     15  C   UNL     1       2.086   1.765  18.811  0.00  0.00    +0.000 A 
ATOM     16  S   UNL     1       3.388   2.651  18.227  0.00  0.00    +0.000 S 
ENDBRANCH   1  12
BRANCH   1  17
ATOM     17  C   UNL     1       2.585   6.702  18.220  0.00  0.00    +0.000 C 
BRANCH  17  18
ATOM     18  C   UNL     1       2.473   6.814  19.753  0.00  0.00    +0.000 C 
BRANCH  18  19
ATOM     19  C   UNL     1       1.662   8.022  20.233  0.00  0.00    +0.000 C 
BRANCH  19  21
ATOM     20  C   UNL     1       0.946   9.321  22.128  0.00  0.00    +0.000 C 
ATOM     21  N   UNL     1       1.768   8.195  21.687  0.00  0.00    +0.000 NA
ATOM     22  H   UNL     1       1.403   7.341  22.166  0.00  0.00    +0.000 HD
ENDBRANCH  19  21
ENDBRANCH  18  19
ENDBRANCH  17  18
ENDBRANCH   1  17
TORSDOF 6
ENDMDL
MODEL 9
REMARK VINA RESULT:      -6.8      2.293      4.139
REMARK  Name = 
REMARK  7 active torsions:
REMARK  status: ('A' for Active; 'I' for Inactive)
REMARK    1  A    between atoms: C_1  and  N_2
REMARK    2  A    between atoms: N_2  and  C_3
REMARK    3  A    between atoms: C_3  and  C_4
REMARK    4  A    between atoms: C_4  and  C_5
REMARK    5  A    between atoms: C_5  and  C_6
REMARK    6  A    between atoms: C_6  and  C_7
REMARK    7  A    between atoms: C_6  and  C_12
REMARK                            x       y       z     vdW  Elec       q    Type
REMARK                         _______ _______ _______ _____ _____    ______ ____
ROOT
ATOM      1  C   UNL     1       3.537   5.059  18.610  0.00  0.00    +0.000 C 
ENDROOT
BRANCH   1   2
ATOM      2  C   UNL     1       5.051   5.110  18.389  0.00  0.00    +0.000 A 
ATOM      3  C   UNL     1       5.954   5.406  19.443  0.00  0.00    +0.000 A 
ATOM      4  C   UNL     1       7.345   5.434  19.236  0.00  0.00    +0.000 A 
ATOM      5  C   UNL     1       7.880   5.166  17.972  0.00  0.00    +0.000 A 
ATOM      6  C   UNL     1       6.995   4.875  16.940  0.00  0.00    +0.000 A 
ATOM      7  N   UNL     1       7.311   4.591  15.669  0.00  0.00    +0.000 N 
ATOM      8  C   UNL     1       6.142   4.378  15.027  0.00  0.00    +0.000 A 
ATOM      9  C   UNL     1       5.072   4.528  15.903  0.00  0.00    +0.000 A 
ATOM     10  C   UNL     1       5.632   4.847  17.130  0.00  0.00    +0.000 A 
ATOM     11  H   UNL     1       8.268   4.545  15.254  0.00  0.00    +0.000 HD
ENDBRANCH   1   2
BRANCH   1  12
ATOM     12  C   UNL     1       2.926   6.449  18.587  0.00  0.00    +0.000 A 
ATOM     13  C   UNL     1       2.955   7.405  17.565  0.00  0.00    +0.000 A 
ATOM     14  C   UNL     1       2.301   8.595  17.889  0.00  0.00    +0.000 A 
ATOM     15  C   UNL     1       1.755   8.600  19.162  0.00  0.00    +0.000 A 
ATOM     16  S   UNL     1       2.080   7.118  19.882  0.00  0.00    +0.000 S 
ENDBRANCH   1  12
BRANCH   1  17
ATOM     17  C   UNL     1       2.791   4.037  17.706  0.00  0.00    +0.000 C 
BRANCH  17  18
ATOM     18  C   UNL     1       1.285   3.844  17.971  0.00  0.00    +0.000 C 
BRANCH  18  19
ATOM     19  C   UNL     1       0.967   2.752  18.998  0.00  0.00    +0.000 C 
BRANCH  19  21
ATOM     20  C   UNL     1       1.558   2.959  21.321  0.00  0.00    +0.000 C 
ATOM     21  N   UNL     1       0.586   3.326  20.293  0.00  0.00    +0.000 NA
ATOM     22  H   UNL     1       0.590   4.370  20.225  0.00  0.00    +0.000 HD
ENDBRANCH  19  21
ENDBRANCH  18  19
ENDBRANCH  17  18
ENDBRANCH   1  17
TORSDOF 6
ENDMDL
