MODEL 1
REMARK VINA RESULT:      -9.2      0.000      0.000
REMARK  Name = 
REMARK  6 active torsions:
REMARK  status: ('A' for Active; 'I' for Inactive)
REMARK    1  A    between atoms: C_1  and  C_2
REMARK    2  A    between atoms: C_2  and  O_3
REMARK    3  A    between atoms: O_3  and  C_4
REMARK    4  A    between atoms: C_4  and  C_6
REMARK    5  A    between atoms: N_9  and  C_10
REMARK    6  A    between atoms: C_12  and  C_13
REMARK                            x       y       z     vdW  Elec       q    Type
REMARK                         _______ _______ _______ _____ _____    ______ ____
ROOT
ATOM      1  C   UNL     1       5.328   4.818  17.464  0.00  0.00    +0.000 A 
ATOM      2  N   UNL     1       6.081   5.704  18.172  0.00  0.00    +0.000 NA
ATOM      3  C   UNL     1       7.166   6.289  17.607  0.00  0.00    +0.000 A 
ATOM      4  C   UNL     1       7.989   7.190  18.479  0.00  0.00    +0.000 C 
ATOM      5  N   UNL     1       7.598   6.129  16.341  0.00  0.00    +0.000 NA
ATOM      6  C   UNL     1       6.833   5.284  15.616  0.00  0.00    +0.000 A 
ATOM      7  C   UNL     1       5.732   4.629  16.142  0.00  0.00    +0.000 A 
ATOM      8  O   UNL     1       5.141   3.857  15.184  0.00  0.00    +0.000 OA
ATOM      9  C   UNL     1       5.871   4.010  14.048  0.00  0.00    +0.000 A 
ATOM     10  C   UNL     1       5.595   3.385  12.835  0.00  0.00    +0.000 A 
ATOM     11  C   UNL     1       6.456   3.678  11.774  0.00  0.00    +0.000 A 
ATOM     12  C   UNL     1       7.536   4.550  11.941  0.00  0.00    +0.000 A 
ATOM     13  C   UNL     1       7.792   5.160  13.179  0.00  0.00    +0.000 A 
ATOM     14  C   UNL     1       6.934   4.881  14.258  0.00  0.00    +0.000 A 
ENDROOT
BRANCH   1  18
ATOM     15  C   UNL     1       2.224   2.159  18.065  0.00  0.00    +0.000 C 
ATOM     16  C   UNL     1       3.702   1.838  18.362  0.00  0.00    +0.000 C 
ATOM     17  C   UNL     1       4.422   3.049  18.952  0.00  0.00    +0.000 C 
ATOM     18  N   UNL     1       4.257   4.186  18.059  0.00  0.00    +0.000 N 
ATOM     19  C   UNL     1       2.899   4.605  17.749  0.00  0.00    +0.000 C 
ATOM     20  C   UNL     1       2.142   3.405  17.157  0.00  0.00    +0.000 C 
BRANCH  15  21
ATOM     21  C   UNL     1       1.393   2.388  19.322  0.00  0.00    +0.000 C 
ATOM     22  O   UNL     1       0.201   2.684  19.305  0.00  0.00    +0.000 OA
BRANCH  21  23
ATOM     23  O   UNL     1       2.132   2.250  20.456  0.00  0.00    +0.000 OA
BRANCH  23  25
ATOM     24  C   UNL     1       2.177   4.529  21.311  0.00  0.00    +0.000 C 
ATOM     25  C   UNL     1       1.758   3.094  21.554  0.00  0.00    +0.000 C 
ENDBRANCH  23  25
ENDBRANCH  21  23
ENDBRANCH  15  21
ENDBRANCH   1  18
TORSDOF 4
ENDMDL
MODEL 2
REMARK VINA RESULT:      -8.8      0.953      1.130
REMARK  Name = 
REMARK  6 active torsions:
REMARK  status: ('A' for Active; 'I' for Inactive)
REMARK    1  A    between atoms: C_1  and  C_2
REMARK    2  A    between atoms: C_2  and  O_3
REMARK    3  A    between atoms: O_3  and  C_4
REMARK    4  A    between atoms: C_4  and  C_6
REMARK    5  A    between atoms: N_9  and  C_10
REMARK    6  A    between atoms: C_12  and  C_13
REMARK                            x       y       z     vdW  Elec       q    Type
REMARK                         _______ _______ _______ _____ _____    ______ ____
ROOT
ATOM      1  C   UNL     1       5.265   5.411  17.527  0.00  0.00    +0.000 A 
ATOM      2  N   UNL     1       6.121   6.292  18.114  0.00  0.00    +0.000 NA
ATOM      3  C   UNL     1       7.250   6.684  17.472  0.00  0.00    +0.000 A 
ATOM      4  C   UNL     1       8.181   7.591  18.220  0.00  0.00    +0.000 C 
ATOM      5  N   UNL     1       7.637   6.325  16.233  0.00  0.00    +0.000 NA
ATOM      6  C   UNL     1       6.772   5.484  15.624  0.00  0.00    +0.000 A 
ATOM      7  C   UNL     1       5.620   5.019  16.235  0.00  0.00    +0.000 A 
ATOM      8  O   UNL     1       4.931   4.204  15.385  0.00  0.00    +0.000 OA
ATOM      9  C   UNL     1       5.649   4.137  14.233  0.00  0.00    +0.000 A 
ATOM     10  C   UNL     1       5.284   3.402  13.110  0.00  0.00    +0.000 A 
ATOM     11  C   UNL     1       6.149   3.469  12.014  0.00  0.00    +0.000 A 
ATOM     12  C   UNL     1       7.318   4.234  12.063  0.00  0.00    +0.000 A 
ATOM     13  C   UNL     1       7.663   4.960  13.214  0.00  0.00    +0.000 A 
ATOM     14  C   UNL     1       6.802   4.910  14.325  0.00  0.00    +0.000 A 
ENDROOT
BRANCH   1  18
ATOM     15  C   UNL     1       1.488   3.892  18.225  0.00  0.00    +0.000 C 
ATOM     16  C   UNL     1       2.725   3.021  17.932  0.00  0.00    +0.000 C 
ATOM     17  C   UNL     1       3.972   3.588  18.606  0.00  0.00    +0.000 C 
ATOM     18  N   UNL     1       4.146   4.975  18.203  0.00  0.00    +0.000 N 
ATOM     19  C   UNL     1       3.054   5.897  18.478  0.00  0.00    +0.000 C 
ATOM     20  C   UNL     1       1.778   5.352  17.816  0.00  0.00    +0.000 C 
BRANCH  15  21
ATOM     21  C   UNL     1       1.053   3.848  19.685  0.00  0.00    +0.000 C 
ATOM     22  O   UNL     1       0.795   4.849  20.349  0.00  0.00    +0.000 OA
BRANCH  21  23
ATOM     23  O   UNL     1       1.012   2.577  20.168  0.00  0.00    +0.000 OA
BRANCH  23  25
ATOM     24  C   UNL     1       2.887   2.431  21.714  0.00  0.00    +0.000 C 
ATOM     25  C   UNL     1       1.383   2.418  21.545  0.00  0.00    +0.000 C 
ENDBRANCH  23  25
ENDBRANCH  21  23
ENDBRANCH  15  21
ENDBRANCH   1  18
TORSDOF 4
ENDMDL
MODEL 3
REMARK VINA RESULT:      -8.1      2.968      7.528
REMARK  Name = 
REMARK  6 active torsions:
REMARK  status: ('A' for Active; 'I' for Inactive)
REMARK    1  A    between atoms: C_1  and  C_2
REMARK    2  A    between atoms: C_2  and  O_3
REMARK    3  A    between atoms: O_3  and  C_4
REMARK    4  A    between atoms: C_4  and  C_6
REMARK    5  A    between atoms: N_9  and  C_10
REMARK    6  A    between atoms: C_12  and  C_13
REMARK                            x       y       z     vdW  Elec       q    Type
REMARK                         _______ _______ _______ _____ _____    ______ ____
ROOT
ATOM      1  C   UNL     1       3.612   5.003  19.219  0.00  0.00    +0.000 A 
ATOM      2  N   UNL     1       3.319   3.896  19.956  0.00  0.00    +0.000 NA
ATOM      3  C   UNL     1       2.378   3.949  20.932  0.00  0.00    +0.000 A 
ATOM      4  C   UNL     1       2.173   2.710  21.752  0.00  0.00    +0.000 C 
ATOM      5  N   UNL     1       1.618   5.011  21.259  0.00  0.00    +0.000 NA
ATOM      6  C   UNL     1       1.870   6.104  20.505  0.00  0.00    +0.000 A 
ATOM      7  C   UNL     1       2.839   6.127  19.516  0.00  0.00    +0.000 A 
ATOM      8  O   UNL     1       2.863   7.348  18.907  0.00  0.00    +0.000 OA
ATOM      9  C   UNL     1       1.917   8.111  19.515  0.00  0.00    +0.000 A 
ATOM     10  C   UNL     1       1.626   9.431  19.183  0.00  0.00    +0.000 A 
ATOM     11  C   UNL     1       0.607  10.047  19.917  0.00  0.00    +0.000 A 
ATOM     12  C   UNL     1      -0.069   9.360  20.930  0.00  0.00    +0.000 A 
ATOM     13  C   UNL     1       0.252   8.031  21.245  0.00  0.00    +0.000 A 
ATOM     14  C   UNL     1       1.271   7.392  20.515  0.00  0.00    +0.000 A 
ENDROOT
BRANCH   1  18
ATOM     15  C   UNL     1       6.450   6.268  16.499  0.00  0.00    +0.000 C 
ATOM     16  C   UNL     1       6.696   6.176  18.017  0.00  0.00    +0.000 C 
ATOM     17  C   UNL     1       6.018   4.943  18.612  0.00  0.00    +0.000 C 
ATOM     18  N   UNL     1       4.604   4.958  18.265  0.00  0.00    +0.000 N 
ATOM     19  C   UNL     1       4.260   4.997  16.852  0.00  0.00    +0.000 C 
ATOM     20  C   UNL     1       4.932   6.226  16.219  0.00  0.00    +0.000 C 
BRANCH  15  21
ATOM     21  C   UNL     1       7.145   5.165  15.708  0.00  0.00    +0.000 C 
ATOM     22  O   UNL     1       7.958   4.385  16.199  0.00  0.00    +0.000 OA
BRANCH  21  23
ATOM     23  O   UNL     1       6.778   5.166  14.399  0.00  0.00    +0.000 OA
BRANCH  23  25
ATOM     24  C   UNL     1       6.525   3.790  12.406  0.00  0.00    +0.000 C 
ATOM     25  C   UNL     1       6.265   3.926  13.891  0.00  0.00    +0.000 C 
ENDBRANCH  23  25
ENDBRANCH  21  23
ENDBRANCH  15  21
ENDBRANCH   1  18
TORSDOF 4
ENDMDL
MODEL 4
REMARK VINA RESULT:      -8.1      3.273      7.312
REMARK  Name = 
REMARK  6 active torsions:
REMARK  status: ('A' for Active; 'I' for Inactive)
REMARK    1  A    between atoms: C_1  and  C_2
REMARK    2  A    between atoms: C_2  and  O_3
REMARK    3  A    between atoms: O_3  and  C_4
REMARK    4  A    between atoms: C_4  and  C_6
REMARK    5  A    between atoms: N_9  and  C_10
REMARK    6  A    between atoms: C_12  and  C_13
REMARK                            x       y       z     vdW  Elec       q    Type
REMARK                         _______ _______ _______ _____ _____    ______ ____
ROOT
ATOM      1  C   UNL     1       3.644   5.660  18.223  0.00  0.00    +0.000 A 
ATOM      2  N   UNL     1       3.400   4.664  19.118  0.00  0.00    +0.000 NA
ATOM      3  C   UNL     1       2.617   4.892  20.202  0.00  0.00    +0.000 A 
ATOM      4  C   UNL     1       2.466   3.768  21.184  0.00  0.00    +0.000 C 
ATOM      5  N   UNL     1       1.974   6.036  20.504  0.00  0.00    +0.000 NA
ATOM      6  C   UNL     1       2.175   7.019  19.599  0.00  0.00    +0.000 A 
ATOM      7  C   UNL     1       2.988   6.863  18.489  0.00  0.00    +0.000 A 
ATOM      8  O   UNL     1       2.991   8.006  17.742  0.00  0.00    +0.000 OA
ATOM      9  C   UNL     1       2.189   8.897  18.381  0.00  0.00    +0.000 A 
ATOM     10  C   UNL     1       1.927  10.191  17.940  0.00  0.00    +0.000 A 
ATOM     11  C   UNL     1       1.063  10.955  18.729  0.00  0.00    +0.000 A 
ATOM     12  C   UNL     1       0.505  10.434  19.901  0.00  0.00    +0.000 A 
ATOM     13  C   UNL     1       0.794   9.127  20.323  0.00  0.00    +0.000 A 
ATOM     14  C   UNL     1       1.657   8.340  19.539  0.00  0.00    +0.000 A 
ENDROOT
BRANCH   1  18
ATOM     15  C   UNL     1       6.901   4.373  16.033  0.00  0.00    +0.000 C 
ATOM     16  C   UNL     1       5.705   3.475  16.403  0.00  0.00    +0.000 C 
ATOM     17  C   UNL     1       4.389   4.248  16.322  0.00  0.00    +0.000 C 
ATOM     18  N   UNL     1       4.482   5.440  17.151  0.00  0.00    +0.000 N 
ATOM     19  C   UNL     1       5.551   6.382  16.856  0.00  0.00    +0.000 C 
ATOM     20  C   UNL     1       6.893   5.634  16.923  0.00  0.00    +0.000 C 
BRANCH  15  21
ATOM     21  C   UNL     1       6.914   4.784  14.565  0.00  0.00    +0.000 C 
ATOM     22  O   UNL     1       7.719   5.581  14.089  0.00  0.00    +0.000 OA
BRANCH  21  23
ATOM     23  O   UNL     1       5.919   4.185  13.857  0.00  0.00    +0.000 OA
BRANCH  23  25
ATOM     24  C   UNL     1       5.108   3.174  11.797  0.00  0.00    +0.000 C 
ATOM     25  C   UNL     1       6.314   3.561  12.627  0.00  0.00    +0.000 C 
ENDBRANCH  23  25
ENDBRANCH  21  23
ENDBRANCH  15  21
ENDBRANCH   1  18
TORSDOF 4
ENDMDL
MODEL 5
REMARK VINA RESULT:      -7.9      4.806      6.473
REMARK  Name = 
REMARK  6 active torsions:
REMARK  status: ('A' for Active; 'I' for Inactive)
REMARK    1  A    between atoms: C_1  and  C_2
REMARK    2  A    between atoms: C_2  and  O_3
REMARK    3  A    between atoms: O_3  and  C_4
REMARK    4  A    between atoms: C_4  and  C_6
REMARK    5  A    between atoms: N_9  and  C_10
REMARK    6  A    between atoms: C_12  and  C_13
REMARK                            x       y       z     vdW  Elec       q    Type
REMARK                         _______ _______ _______ _____ _____    ______ ____
ROOT
ATOM      1  C   UNL     1       2.194   6.613  19.776  0.00  0.00    +0.000 A 
ATOM      2  N   UNL     1       1.737   5.624  20.591  0.00  0.00    +0.000 NA
ATOM      3  C   UNL     1       2.038   4.326  20.332  0.00  0.00    +0.000 A 
ATOM      4  C   UNL     1       1.429   3.291  21.230  0.00  0.00    +0.000 C 
ATOM      5  N   UNL     1       2.815   3.865  19.334  0.00  0.00    +0.000 NA
ATOM      6  C   UNL     1       3.310   4.843  18.543  0.00  0.00    +0.000 A 
ATOM      7  C   UNL     1       3.015   6.182  18.732  0.00  0.00    +0.000 A 
ATOM      8  O   UNL     1       3.662   6.943  17.802  0.00  0.00    +0.000 OA
ATOM      9  C   UNL     1       4.362   6.089  17.011  0.00  0.00    +0.000 A 
ATOM     10  C   UNL     1       5.159   6.472  15.936  0.00  0.00    +0.000 A 
ATOM     11  C   UNL     1       5.813   5.446  15.249  0.00  0.00    +0.000 A 
ATOM     12  C   UNL     1       5.658   4.109  15.630  0.00  0.00    +0.000 A 
ATOM     13  C   UNL     1       4.842   3.754  16.714  0.00  0.00    +0.000 A 
ATOM     14  C   UNL     1       4.180   4.773  17.422  0.00  0.00    +0.000 A 
ENDROOT
BRANCH   1  18
ATOM     15  C   UNL     1      -0.114  10.024  20.094  0.00  0.00    +0.000 C 
ATOM     16  C   UNL     1      -0.038   8.933  21.180  0.00  0.00    +0.000 C 
ATOM     17  C   UNL     1       1.382   8.385  21.313  0.00  0.00    +0.000 C 
ATOM     18  N   UNL     1       1.842   7.925  20.011  0.00  0.00    +0.000 N 
ATOM     19  C   UNL     1       1.856   8.891  18.923  0.00  0.00    +0.000 C 
ATOM     20  C   UNL     1       0.440   9.467  18.765  0.00  0.00    +0.000 C 
BRANCH  15  21
ATOM     21  C   UNL     1       0.637  11.297  20.467  0.00  0.00    +0.000 C 
ATOM     22  O   UNL     1       1.281  11.968  19.663  0.00  0.00    +0.000 OA
BRANCH  21  23
ATOM     23  O   UNL     1       0.531  11.585  21.792  0.00  0.00    +0.000 OA
BRANCH  23  25
ATOM     24  C   UNL     1      -1.570  11.882  22.986  0.00  0.00    +0.000 C 
ATOM     25  C   UNL     1      -0.488  12.530  22.148  0.00  0.00    +0.000 C 
ENDBRANCH  23  25
ENDBRANCH  21  23
ENDBRANCH  15  21
ENDBRANCH   1  18
TORSDOF 4
ENDMDL
MODEL 6
REMARK VINA RESULT:      -7.9      4.797      6.583
REMARK  Name = 
REMARK  6 active torsions:
REMARK  status: ('A' for Active; 'I' for Inactive)
REMARK    1  A    between atoms: C_1  and  C_2
REMARK    2  A    between atoms: C_2  and  O_3
REMARK    3  A    between atoms: O_3  and  C_4
REMARK    4  A    between atoms: C_4  and  C_6
REMARK    5  A    between atoms: N_9  and  C_10
REMARK    6  A    between atoms: C_12  and  C_13
REMARK                            x       y       z     vdW  Elec       q    Type
REMARK                         _______ _______ _______ _____ _____    ______ ____
ROOT
ATOM      1  C   UNL     1       2.154   6.635  19.808  0.00  0.00    +0.000 A 
ATOM      2  N   UNL     1       1.691   5.641  20.615  0.00  0.00    +0.000 NA
ATOM      3  C   UNL     1       1.988   4.345  20.347  0.00  0.00    +0.000 A 
ATOM      4  C   UNL     1       1.372   3.306  21.236  0.00  0.00    +0.000 C 
ATOM      5  N   UNL     1       2.765   3.887  19.347  0.00  0.00    +0.000 NA
ATOM      6  C   UNL     1       3.265   4.869  18.565  0.00  0.00    +0.000 A 
ATOM      7  C   UNL     1       2.975   6.209  18.763  0.00  0.00    +0.000 A 
ATOM      8  O   UNL     1       3.627   6.974  17.840  0.00  0.00    +0.000 OA
ATOM      9  C   UNL     1       4.326   6.123  17.044  0.00  0.00    +0.000 A 
ATOM     10  C   UNL     1       5.126   6.511  15.974  0.00  0.00    +0.000 A 
ATOM     11  C   UNL     1       5.777   5.486  15.280  0.00  0.00    +0.000 A 
ATOM     12  C   UNL     1       5.616   4.148  15.651  0.00  0.00    +0.000 A 
ATOM     13  C   UNL     1       4.796   3.788  16.731  0.00  0.00    +0.000 A 
ATOM     14  C   UNL     1       4.137   4.804  17.445  0.00  0.00    +0.000 A 
ENDROOT
BRANCH   1  18
ATOM     15  C   UNL     1      -0.150  10.042  20.195  0.00  0.00    +0.000 C 
ATOM     16  C   UNL     1      -0.036   8.953  21.279  0.00  0.00    +0.000 C 
ATOM     17  C   UNL     1       1.388   8.408  21.368  0.00  0.00    +0.000 C 
ATOM     18  N   UNL     1       1.807   7.946  20.053  0.00  0.00    +0.000 N 
ATOM     19  C   UNL     1       1.784   8.910  18.963  0.00  0.00    +0.000 C 
ATOM     20  C   UNL     1       0.362   9.484  18.850  0.00  0.00    +0.000 C 
BRANCH  15  21
ATOM     21  C   UNL     1       0.610  11.317  20.541  0.00  0.00    +0.000 C 
ATOM     22  O   UNL     1       1.063  11.558  21.658  0.00  0.00    +0.000 OA
BRANCH  21  23
ATOM     23  O   UNL     1       0.703  12.161  19.479  0.00  0.00    +0.000 OA
BRANCH  23  25
ATOM     24  C   UNL     1       2.622  12.899  18.175  0.00  0.00    +0.000 C 
ATOM     25  C   UNL     1       1.844  13.031  19.468  0.00  0.00    +0.000 C 
ENDBRANCH  23  25
ENDBRANCH  21  23
ENDBRANCH  15  21
ENDBRANCH   1  18
TORSDOF 4
ENDMDL
MODEL 7
REMARK VINA RESULT:      -7.9      0.896      2.082
REMARK  Name = 
REMARK  6 active torsions:
REMARK  status: ('A' for Active; 'I' for Inactive)
REMARK    1  A    between atoms: C_1  and  C_2
REMARK    2  A    between atoms: C_2  and  O_3
REMARK    3  A    between atoms: O_3  and  C_4
REMARK    4  A    between atoms: C_4  and  C_6
REMARK    5  A    between atoms: N_9  and  C_10
REMARK    6  A    between atoms: C_12  and  C_13
REMARK                            x       y       z     vdW  Elec       q    Type
REMARK                         _______ _______ _______ _____ _____    ______ ____
ROOT
ATOM      1  C   UNL     1       5.261   5.376  17.506  0.00  0.00    +0.000 A 
ATOM      2  N   UNL     1       6.083   6.294  18.085  0.00  0.00    +0.000 NA
ATOM      3  C   UNL     1       7.192   6.729  17.436  0.00  0.00    +0.000 A 
ATOM      4  C   UNL     1       8.089   7.676  18.176  0.00  0.00    +0.000 C 
ATOM      5  N   UNL     1       7.587   6.381  16.197  0.00  0.00    +0.000 NA
ATOM      6  C   UNL     1       6.755   5.503  15.595  0.00  0.00    +0.000 A 
ATOM      7  C   UNL     1       5.625   4.994  16.214  0.00  0.00    +0.000 A 
ATOM      8  O   UNL     1       4.966   4.148  15.370  0.00  0.00    +0.000 OA
ATOM      9  C   UNL     1       5.681   4.106  14.215  0.00  0.00    +0.000 A 
ATOM     10  C   UNL     1       5.340   3.352  13.096  0.00  0.00    +0.000 A 
ATOM     11  C   UNL     1       6.197   3.450  11.995  0.00  0.00    +0.000 A 
ATOM     12  C   UNL     1       7.334   4.263  12.036  0.00  0.00    +0.000 A 
ATOM     13  C   UNL     1       7.654   5.007  13.182  0.00  0.00    +0.000 A 
ATOM     14  C   UNL     1       6.801   4.925  14.298  0.00  0.00    +0.000 A 
ENDROOT
BRANCH   1  18
ATOM     15  C   UNL     1       2.276   5.071  20.345  0.00  0.00    +0.000 C 
ATOM     16  C   UNL     1       2.201   5.995  19.114  0.00  0.00    +0.000 C 
ATOM     17  C   UNL     1       2.808   5.325  17.883  0.00  0.00    +0.000 C 
ATOM     18  N   UNL     1       4.164   4.897  18.190  0.00  0.00    +0.000 N 
ATOM     19  C   UNL     1       4.344   3.983  19.307  0.00  0.00    +0.000 C 
ATOM     20  C   UNL     1       3.738   4.626  20.565  0.00  0.00    +0.000 C 
BRANCH  15  21
ATOM     21  C   UNL     1       1.380   3.843  20.231  0.00  0.00    +0.000 C 
ATOM     22  O   UNL     1       1.114   3.105  21.177  0.00  0.00    +0.000 OA
BRANCH  21  23
ATOM     23  O   UNL     1       0.934   3.650  18.961  0.00  0.00    +0.000 OA
BRANCH  23  25
ATOM     24  C   UNL     1       2.181   1.808  17.972  0.00  0.00    +0.000 C 
ATOM     25  C   UNL     1       0.855   2.286  18.525  0.00  0.00    +0.000 C 
ENDBRANCH  23  25
ENDBRANCH  21  23
ENDBRANCH  15  21
ENDBRANCH   1  18
TORSDOF 4
ENDMDL
MODEL 8
REMARK VINA RESULT:      -7.7      3.105      7.668
REMARK  Name = 
REMARK  6 active torsions:
REMARK  status: ('A' for Active; 'I' for Inactive)
REMARK    1  A    between atoms: C_1  and  C_2
REMARK    2  A    between atoms: C_2  and  O_3
REMARK    3  A    between atoms: O_3  and  C_4
REMARK    4  A    between atoms: C_4  and  C_6
REMARK    5  A    between atoms: N_9  and  C_10
REMARK    6  A    between atoms: C_12  and  C_13
REMARK                            x       y       z     vdW  Elec       q    Type
REMARK                         _______ _______ _______ _____ _____    ______ ____
ROOT
ATOM      1  C   UNL     1       3.470   5.395  19.087  0.00  0.00    +0.000 A 
ATOM      2  N   UNL     1       3.279   4.243  19.787  0.00  0.00    +0.000 NA
ATOM      3  C   UNL     1       2.415   4.209  20.833  0.00  0.00    +0.000 A 
ATOM      4  C   UNL     1       2.324   2.925  21.602  0.00  0.00    +0.000 C 
ATOM      5  N   UNL     1       1.641   5.220  21.270  0.00  0.00    +0.000 NA
ATOM      6  C   UNL     1       1.791   6.358  20.555  0.00  0.00    +0.000 A 
ATOM      7  C   UNL     1       2.679   6.469  19.498  0.00  0.00    +0.000 A 
ATOM      8  O   UNL     1       2.607   7.718  18.952  0.00  0.00    +0.000 OA
ATOM      9  C   UNL     1       1.682   8.409  19.668  0.00  0.00    +0.000 A 
ATOM     10  C   UNL     1       1.314   9.730  19.427  0.00  0.00    +0.000 A 
ATOM     11  C   UNL     1       0.332  10.265  20.265  0.00  0.00    +0.000 A 
ATOM     12  C   UNL     1      -0.236   9.502  21.290  0.00  0.00    +0.000 A 
ATOM     13  C   UNL     1       0.161   8.175  21.513  0.00  0.00    +0.000 A 
ATOM     14  C   UNL     1       1.144   7.617  20.676  0.00  0.00    +0.000 A 
ENDROOT
BRANCH   1  18
ATOM     15  C   UNL     1       6.435   4.212  16.467  0.00  0.00    +0.000 C 
ATOM     16  C   UNL     1       4.944   3.865  16.291  0.00  0.00    +0.000 C 
ATOM     17  C   UNL     1       4.053   5.036  16.702  0.00  0.00    +0.000 C 
ATOM     18  N   UNL     1       4.386   5.439  18.059  0.00  0.00    +0.000 N 
ATOM     19  C   UNL     1       5.762   5.834  18.325  0.00  0.00    +0.000 C 
ATOM     20  C   UNL     1       6.688   4.677  17.917  0.00  0.00    +0.000 C 
BRANCH  15  21
ATOM     21  C   UNL     1       6.923   5.280  15.496  0.00  0.00    +0.000 C 
ATOM     22  O   UNL     1       7.743   6.146  15.792  0.00  0.00    +0.000 OA
BRANCH  21  23
ATOM     23  O   UNL     1       6.326   5.176  14.278  0.00  0.00    +0.000 OA
BRANCH  23  25
ATOM     24  C   UNL     1       6.123   3.416  12.607  0.00  0.00    +0.000 C 
ATOM     25  C   UNL     1       7.036   4.408  13.296  0.00  0.00    +0.000 C 
ENDBRANCH  23  25
ENDBRANCH  21  23
ENDBRANCH  15  21
ENDBRANCH   1  18
TORSDOF 4
ENDMDL
MODEL 9
REMARK VINA RESULT:      -7.3      2.258      7.157
REMARK  Name = 
REMARK  6 active torsions:
REMARK  status: ('A' for Active; 'I' for Inactive)
REMARK    1  A    between atoms: C_1  and  C_2
REMARK    2  A    between atoms: C_2  and  O_3
REMARK    3  A    between atoms: O_3  and  C_4
REMARK    4  A    between atoms: C_4  and  C_6
REMARK    5  A    between atoms: N_9  and  C_10
REMARK    6  A    between atoms: C_12  and  C_13
REMARK                            x       y       z     vdW  Elec       q    Type
REMARK                         _______ _______ _______ _____ _____    ______ ____
ROOT
ATOM      1  C   UNL     1       4.085   6.343  17.258  0.00  0.00    +0.000 A 
ATOM      2  N   UNL     1       3.546   7.592  17.314  0.00  0.00    +0.000 NA
ATOM      3  C   UNL     1       2.628   7.902  18.264  0.00  0.00    +0.000 A 
ATOM      4  C   UNL     1       2.022   9.272  18.206  0.00  0.00    +0.000 C 
ATOM      5  N   UNL     1       2.184   7.096  19.247  0.00  0.00    +0.000 NA
ATOM      6  C   UNL     1       2.745   5.866  19.227  0.00  0.00    +0.000 A 
ATOM      7  C   UNL     1       3.662   5.475  18.267  0.00  0.00    +0.000 A 
ATOM      8  O   UNL     1       4.073   4.195  18.501  0.00  0.00    +0.000 OA
ATOM      9  C   UNL     1       3.409   3.763  19.605  0.00  0.00    +0.000 A 
ATOM     10  C   UNL     1       3.549   2.501  20.175  0.00  0.00    +0.000 A 
ATOM     11  C   UNL     1       2.788   2.247  21.319  0.00  0.00    +0.000 A 
ATOM     12  C   UNL     1       1.933   3.219  21.848  0.00  0.00    +0.000 A 
ATOM     13  C   UNL     1       1.809   4.480  21.247  0.00  0.00    +0.000 A 
ATOM     14  C   UNL     1       2.570   4.757  20.097  0.00  0.00    +0.000 A 
ENDROOT
BRANCH   1  18
ATOM     15  C   UNL     1       7.096   4.380  15.223  0.00  0.00    +0.000 C 
ATOM     16  C   UNL     1       5.637   3.889  15.283  0.00  0.00    +0.000 C 
ATOM     17  C   UNL     1       4.657   5.059  15.213  0.00  0.00    +0.000 C 
ATOM     18  N   UNL     1       4.977   6.016  16.261  0.00  0.00    +0.000 N 
ATOM     19  C   UNL     1       6.319   6.580  16.268  0.00  0.00    +0.000 C 
ATOM     20  C   UNL     1       7.333   5.426  16.333  0.00  0.00    +0.000 C 
BRANCH  15  21
ATOM     21  C   UNL     1       7.476   4.974  13.872  0.00  0.00    +0.000 C 
ATOM     22  O   UNL     1       8.449   5.703  13.698  0.00  0.00    +0.000 OA
BRANCH  21  23
ATOM     23  O   UNL     1       6.598   4.623  12.894  0.00  0.00    +0.000 OA
BRANCH  23  25
ATOM     24  C   UNL     1       6.067   2.503  11.823  0.00  0.00    +0.000 C 
ATOM     25  C   UNL     1       7.061   3.636  11.961  0.00  0.00    +0.000 C 
ENDBRANCH  23  25
ENDBRANCH  21  23
ENDBRANCH  15  21
ENDBRANCH   1  18
TORSDOF 4
ENDMDL
