MODEL 1
REMARK VINA RESULT:      -8.3      0.000      0.000
REMARK  Name = 
REMARK  10 active torsions:
REMARK  status: ('A' for Active; 'I' for Inactive)
REMARK    1  A    between atoms: C_1  and  O_2
REMARK    2  A    between atoms: O_2  and  C_3
REMARK    3  A    between atoms: C_6  and  C_7
REMARK    4  A    between atoms: C_7  and  C_8
REMARK    5  A    between atoms: N_10  and  C_11
REMARK    6  A    between atoms: N_10  and  C_12
REMARK    7  A    between atoms: N_16  and  C_17
REMARK    8  A    between atoms: C_17  and  C_18
REMARK    9  A    between atoms: C_27  and  O_28
REMARK   10  A    between atoms: O_28  and  C_29
REMARK                            x       y       z     vdW  Elec       q    Type
REMARK                         _______ _______ _______ _____ _____    ______ ____
ROOT
ATOM      1  C   UNL     1       7.890   7.988  17.997  0.00  0.00    +0.000 C 
ATOM      2  O   UNL     1       7.579   8.704  17.042  0.00  0.00    +0.000 OA
ATOM      3  N   UNL     1       7.387   6.690  18.166  0.00  0.00    +0.000 N 
ATOM      4  C   UNL     1       7.841   5.841  19.265  0.00  0.00    +0.000 C 
ENDROOT
BRANCH   3   5
ATOM      5  C   UNL     1       6.703   6.017  17.008  0.00  0.00    +0.000 C 
ATOM      6  C   UNL     1       5.533   6.798  16.376  0.00  0.00    +0.000 C 
ATOM      7  C   UNL     1       4.350   6.856  17.328  0.00  0.00    +0.000 C 
ATOM      8  C   UNL     1       3.901   5.456  17.757  0.00  0.00    +0.000 C 
ATOM      9  N   UNL     1       5.006   4.633  18.278  0.00  0.00    +0.000 NA
ATOM     10  C   UNL     1       6.133   4.596  17.318  0.00  0.00    +0.000 C 
BRANCH   9  11
ATOM     11  C   UNL     1       4.567   3.260  18.593  0.00  0.00    +0.000 C 
BRANCH  11  12
ATOM     12  C   UNL     1       3.179   3.176  19.180  0.00  0.00    +0.000 A 
ATOM     13  C   UNL     1       2.900   3.693  20.456  0.00  0.00    +0.000 A 
ATOM     14  C   UNL     1       1.598   3.631  20.968  0.00  0.00    +0.000 A 
ATOM     15  C   UNL     1       0.568   3.064  20.213  0.00  0.00    +0.000 A 
ATOM     16  C   UNL     1       0.842   2.540  18.952  0.00  0.00    +0.000 A 
ATOM     17  C   UNL     1       2.138   2.599  18.447  0.00  0.00    +0.000 A 
ATOM     18  F   UNL     1       2.373   2.097  17.225  0.00  0.00    +0.000 F 
ENDBRANCH  11  12
ENDBRANCH   9  11
ENDBRANCH   3   5
BRANCH   1  19
ATOM     19  C   UNL     1       8.920   8.527  18.994  0.00  0.00    +0.000 C 
BRANCH  19  23
ATOM     20  C   UNL     1       9.451  12.836  19.102  0.00  0.00    +0.000 A 
ATOM     21  C   UNL     1       9.596  12.127  17.898  0.00  0.00    +0.000 A 
ATOM     22  C   UNL     1       9.422  10.739  17.843  0.00  0.00    +0.000 A 
ATOM     23  C   UNL     1       9.125  10.024  19.002  0.00  0.00    +0.000 A 
ATOM     24  C   UNL     1       9.097  10.722  20.220  0.00  0.00    +0.000 A 
ATOM     25  C   UNL     1       9.250  12.117  20.289  0.00  0.00    +0.000 A 
BRANCH  20  27
ATOM     26  C   UNL     1      10.862  14.732  19.005  0.00  0.00    +0.000 C 
ATOM     27  O   UNL     1       9.544  14.200  19.135  0.00  0.00    +0.000 OA
ENDBRANCH  20  27
BRANCH  25  28
ATOM     28  O   UNL     1       9.159  12.577  21.577  0.00  0.00    +0.000 OA
ATOM     29  C   UNL     1       8.447  11.814  22.537  0.00  0.00    +0.000 C 
ENDBRANCH  25  28
ENDBRANCH  19  23
ENDBRANCH   1  19
TORSDOF 7
ENDMDL
MODEL 2
REMARK VINA RESULT:      -8.1      1.018      1.254
REMARK  Name = 
REMARK  10 active torsions:
REMARK  status: ('A' for Active; 'I' for Inactive)
REMARK    1  A    between atoms: C_1  and  O_2
REMARK    2  A    between atoms: O_2  and  C_3
REMARK    3  A    between atoms: C_6  and  C_7
REMARK    4  A    between atoms: C_7  and  C_8
REMARK    5  A    between atoms: N_10  and  C_11
REMARK    6  A    between atoms: N_10  and  C_12
REMARK    7  A    between atoms: N_16  and  C_17
REMARK    8  A    between atoms: C_17  and  C_18
REMARK    9  A    between atoms: C_27  and  O_28
REMARK   10  A    between atoms: O_28  and  C_29
REMARK                            x       y       z     vdW  Elec       q    Type
REMARK                         _______ _______ _______ _____ _____    ______ ____
ROOT
ATOM      1  C   UNL     1       7.649   7.855  17.839  0.00  0.00    +0.000 C 
ATOM      2  O   UNL     1       7.283   8.635  16.955  0.00  0.00    +0.000 OA
ATOM      3  N   UNL     1       7.171   6.541  17.934  0.00  0.00    +0.000 N 
ATOM      4  C   UNL     1       7.689   5.620  18.943  0.00  0.00    +0.000 C 
ENDROOT
BRANCH   3   5
ATOM      5  C   UNL     1       6.441   5.944  16.763  0.00  0.00    +0.000 C 
ATOM      6  C   UNL     1       5.294   6.797  16.184  0.00  0.00    +0.000 C 
ATOM      7  C   UNL     1       4.131   6.865  17.160  0.00  0.00    +0.000 C 
ATOM      8  C   UNL     1       3.630   5.468  17.541  0.00  0.00    +0.000 C 
ATOM      9  N   UNL     1       4.709   4.580  18.007  0.00  0.00    +0.000 NA
ATOM     10  C   UNL     1       5.817   4.535  17.026  0.00  0.00    +0.000 C 
BRANCH   9  11
ATOM     11  C   UNL     1       4.218   3.214  18.275  0.00  0.00    +0.000 C 
BRANCH  11  12
ATOM     12  C   UNL     1       3.171   3.138  19.360  0.00  0.00    +0.000 A 
ATOM     13  C   UNL     1       1.859   3.585  19.133  0.00  0.00    +0.000 A 
ATOM     14  C   UNL     1       0.897   3.476  20.146  0.00  0.00    +0.000 A 
ATOM     15  C   UNL     1       1.232   2.917  21.382  0.00  0.00    +0.000 A 
ATOM     16  C   UNL     1       2.534   2.483  21.615  0.00  0.00    +0.000 A 
ATOM     17  C   UNL     1       3.490   2.597  20.609  0.00  0.00    +0.000 A 
ATOM     18  F   UNL     1       4.734   2.161  20.856  0.00  0.00    +0.000 F 
ENDBRANCH  11  12
ENDBRANCH   9  11
ENDBRANCH   3   5
BRANCH   1  19
ATOM     19  C   UNL     1       8.719   8.336  18.822  0.00  0.00    +0.000 C 
BRANCH  19  23
ATOM     20  C   UNL     1       9.325  12.625  19.135  0.00  0.00    +0.000 A 
ATOM     21  C   UNL     1       9.045  12.031  17.895  0.00  0.00    +0.000 A 
ATOM     22  C   UNL     1       8.840  10.651  17.776  0.00  0.00    +0.000 A 
ATOM     23  C   UNL     1       8.939   9.830  18.896  0.00  0.00    +0.000 A 
ATOM     24  C   UNL     1       9.334  10.413  20.111  0.00  0.00    +0.000 A 
ATOM     25  C   UNL     1       9.524  11.798  20.251  0.00  0.00    +0.000 A 
BRANCH  20  27
ATOM     26  C   UNL     1      10.735  14.516  18.959  0.00  0.00    +0.000 C 
ATOM     27  O   UNL     1       9.446  13.981  19.259  0.00  0.00    +0.000 OA
ENDBRANCH  20  27
BRANCH  25  28
ATOM     28  O   UNL     1       9.879  12.138  21.530  0.00  0.00    +0.000 OA
ATOM     29  C   UNL     1       8.887  12.626  22.418  0.00  0.00    +0.000 C 
ENDBRANCH  25  28
ENDBRANCH  19  23
ENDBRANCH   1  19
TORSDOF 7
ENDMDL
MODEL 3
REMARK VINA RESULT:      -8.0      4.555      7.599
REMARK  Name = 
REMARK  10 active torsions:
REMARK  status: ('A' for Active; 'I' for Inactive)
REMARK    1  A    between atoms: C_1  and  O_2
REMARK    2  A    between atoms: O_2  and  C_3
REMARK    3  A    between atoms: C_6  and  C_7
REMARK    4  A    between atoms: C_7  and  C_8
REMARK    5  A    between atoms: N_10  and  C_11
REMARK    6  A    between atoms: N_10  and  C_12
REMARK    7  A    between atoms: N_16  and  C_17
REMARK    8  A    between atoms: C_17  and  C_18
REMARK    9  A    between atoms: C_27  and  O_28
REMARK   10  A    between atoms: O_28  and  C_29
REMARK                            x       y       z     vdW  Elec       q    Type
REMARK                         _______ _______ _______ _____ _____    ______ ____
ROOT
ATOM      1  C   UNL     1       2.051   6.318  19.061  0.00  0.00    +0.000 C 
ATOM      2  O   UNL     1       2.338   6.769  17.949  0.00  0.00    +0.000 OA
ATOM      3  N   UNL     1       1.499   5.042  19.240  0.00  0.00    +0.000 N 
ATOM      4  C   UNL     1       1.248   4.507  20.577  0.00  0.00    +0.000 C 
ENDROOT
BRANCH   3   5
ATOM      5  C   UNL     1       1.544   4.061  18.100  0.00  0.00    +0.000 C 
ATOM      6  C   UNL     1       1.433   2.574  18.493  0.00  0.00    +0.000 C 
ATOM      7  C   UNL     1       2.683   2.118  19.227  0.00  0.00    +0.000 C 
ATOM      8  C   UNL     1       3.948   2.369  18.400  0.00  0.00    +0.000 C 
ATOM      9  N   UNL     1       4.050   3.757  17.916  0.00  0.00    +0.000 NA
ATOM     10  C   UNL     1       2.817   4.158  17.200  0.00  0.00    +0.000 C 
BRANCH   9  11
ATOM     11  C   UNL     1       5.225   3.948  17.043  0.00  0.00    +0.000 C 
BRANCH  11  12
ATOM     12  C   UNL     1       6.148   5.057  17.488  0.00  0.00    +0.000 A 
ATOM     13  C   UNL     1       7.066   4.859  18.532  0.00  0.00    +0.000 A 
ATOM     14  C   UNL     1       7.934   5.893  18.908  0.00  0.00    +0.000 A 
ATOM     15  C   UNL     1       7.897   7.122  18.244  0.00  0.00    +0.000 A 
ATOM     16  C   UNL     1       6.981   7.326  17.215  0.00  0.00    +0.000 A 
ATOM     17  C   UNL     1       6.117   6.299  16.847  0.00  0.00    +0.000 A 
ATOM     18  F   UNL     1       5.251   6.518  15.846  0.00  0.00    +0.000 F 
ENDBRANCH  11  12
ENDBRANCH   9  11
ENDBRANCH   3   5
BRANCH   1  19
ATOM     19  C   UNL     1       2.378   7.171  20.289  0.00  0.00    +0.000 C 
BRANCH  19  23
ATOM     20  C   UNL     1      -0.428  10.353  21.210  0.00  0.00    +0.000 A 
ATOM     21  C   UNL     1      -0.109   9.381  22.171  0.00  0.00    +0.000 A 
ATOM     22  C   UNL     1       0.798   8.352  21.894  0.00  0.00    +0.000 A 
ATOM     23  C   UNL     1       1.387   8.257  20.635  0.00  0.00    +0.000 A 
ATOM     24  C   UNL     1       0.975   9.162  19.643  0.00  0.00    +0.000 A 
ATOM     25  C   UNL     1       0.081  10.212  19.910  0.00  0.00    +0.000 A 
BRANCH  20  27
ATOM     26  C   UNL     1      -1.230  11.837  22.870  0.00  0.00    +0.000 C 
ATOM     27  O   UNL     1      -1.254  11.401  21.510  0.00  0.00    +0.000 OA
ENDBRANCH  20  27
BRANCH  25  28
ATOM     28  O   UNL     1      -0.151  10.980  18.800  0.00  0.00    +0.000 OA
ATOM     29  C   UNL     1      -1.329  10.764  18.040  0.00  0.00    +0.000 C 
ENDBRANCH  25  28
ENDBRANCH  19  23
ENDBRANCH   1  19
TORSDOF 7
ENDMDL
MODEL 4
REMARK VINA RESULT:      -8.0      4.961      6.153
REMARK  Name = 
REMARK  10 active torsions:
REMARK  status: ('A' for Active; 'I' for Inactive)
REMARK    1  A    between atoms: C_1  and  O_2
REMARK    2  A    between atoms: O_2  and  C_3
REMARK    3  A    between atoms: C_6  and  C_7
REMARK    4  A    between atoms: C_7  and  C_8
REMARK    5  A    between atoms: N_10  and  C_11
REMARK    6  A    between atoms: N_10  and  C_12
REMARK    7  A    between atoms: N_16  and  C_17
REMARK    8  A    between atoms: C_17  and  C_18
REMARK    9  A    between atoms: C_27  and  O_28
REMARK   10  A    between atoms: O_28  and  C_29
REMARK                            x       y       z     vdW  Elec       q    Type
REMARK                         _______ _______ _______ _____ _____    ______ ____
ROOT
ATOM      1  C   UNL     1       3.793   6.705  18.358  0.00  0.00    +0.000 C 
ATOM      2  O   UNL     1       3.755   6.112  19.440  0.00  0.00    +0.000 OA
ATOM      3  N   UNL     1       4.880   6.607  17.479  0.00  0.00    +0.000 N 
ATOM      4  C   UNL     1       4.854   7.257  16.170  0.00  0.00    +0.000 C 
ENDROOT
BRANCH   3   5
ATOM      5  C   UNL     1       5.891   5.514  17.688  0.00  0.00    +0.000 C 
ATOM      6  C   UNL     1       6.699   5.101  16.441  0.00  0.00    +0.000 C 
ATOM      7  C   UNL     1       5.808   4.390  15.436  0.00  0.00    +0.000 C 
ATOM      8  C   UNL     1       5.112   3.176  16.058  0.00  0.00    +0.000 C 
ATOM      9  N   UNL     1       4.406   3.499  17.310  0.00  0.00    +0.000 NA
ATOM     10  C   UNL     1       5.310   4.182  18.264  0.00  0.00    +0.000 C 
BRANCH   9  11
ATOM     11  C   UNL     1       3.826   2.296  17.939  0.00  0.00    +0.000 C 
BRANCH  11  12
ATOM     12  C   UNL     1       2.943   2.589  19.128  0.00  0.00    +0.000 A 
ATOM     13  C   UNL     1       1.632   3.064  18.957  0.00  0.00    +0.000 A 
ATOM     14  C   UNL     1       0.821   3.300  20.075  0.00  0.00    +0.000 A 
ATOM     15  C   UNL     1       1.305   3.059  21.363  0.00  0.00    +0.000 A 
ATOM     16  C   UNL     1       2.609   2.600  21.538  0.00  0.00    +0.000 A 
ATOM     17  C   UNL     1       3.414   2.370  20.426  0.00  0.00    +0.000 A 
ATOM     18  F   UNL     1       4.662   1.917  20.622  0.00  0.00    +0.000 F 
ENDBRANCH  11  12
ENDBRANCH   9  11
ENDBRANCH   3   5
BRANCH   1  19
ATOM     19  C   UNL     1       2.567   7.523  17.945  0.00  0.00    +0.000 C 
BRANCH  19  23
ATOM     20  C   UNL     1       0.692   9.938  21.029  0.00  0.00    +0.000 A 
ATOM     21  C   UNL     1       1.053   8.605  21.284  0.00  0.00    +0.000 A 
ATOM     22  C   UNL     1       1.663   7.814  20.305  0.00  0.00    +0.000 A 
ATOM     23  C   UNL     1       1.903   8.333  19.034  0.00  0.00    +0.000 A 
ATOM     24  C   UNL     1       1.434   9.626  18.749  0.00  0.00    +0.000 A 
ATOM     25  C   UNL     1       0.837  10.440  19.727  0.00  0.00    +0.000 A 
BRANCH  20  27
ATOM     26  C   UNL     1      -0.466  10.040  23.090  0.00  0.00    +0.000 C 
ATOM     27  O   UNL     1       0.167  10.730  22.012  0.00  0.00    +0.000 OA
ENDBRANCH  20  27
BRANCH  25  28
ATOM     28  O   UNL     1       0.486  11.666  19.226  0.00  0.00    +0.000 OA
ATOM     29  C   UNL     1      -0.784  11.829  18.617  0.00  0.00    +0.000 C 
ENDBRANCH  25  28
ENDBRANCH  19  23
ENDBRANCH   1  19
TORSDOF 7
ENDMDL
MODEL 5
REMARK VINA RESULT:      -7.9      4.901      6.019
REMARK  Name = 
REMARK  10 active torsions:
REMARK  status: ('A' for Active; 'I' for Inactive)
REMARK    1  A    between atoms: C_1  and  O_2
REMARK    2  A    between atoms: O_2  and  C_3
REMARK    3  A    between atoms: C_6  and  C_7
REMARK    4  A    between atoms: C_7  and  C_8
REMARK    5  A    between atoms: N_10  and  C_11
REMARK    6  A    between atoms: N_10  and  C_12
REMARK    7  A    between atoms: N_16  and  C_17
REMARK    8  A    between atoms: C_17  and  C_18
REMARK    9  A    between atoms: C_27  and  O_28
REMARK   10  A    between atoms: O_28  and  C_29
REMARK                            x       y       z     vdW  Elec       q    Type
REMARK                         _______ _______ _______ _____ _____    ______ ____
ROOT
ATOM      1  C   UNL     1       3.586   6.755  18.434  0.00  0.00    +0.000 C 
ATOM      2  O   UNL     1       3.574   6.118  19.491  0.00  0.00    +0.000 OA
ATOM      3  N   UNL     1       4.680   6.746  17.558  0.00  0.00    +0.000 N 
ATOM      4  C   UNL     1       4.626   7.446  16.276  0.00  0.00    +0.000 C 
ENDROOT
BRANCH   3   5
ATOM      5  C   UNL     1       5.744   5.698  17.730  0.00  0.00    +0.000 C 
ATOM      6  C   UNL     1       6.550   5.348  16.463  0.00  0.00    +0.000 C 
ATOM      7  C   UNL     1       5.677   4.616  15.457  0.00  0.00    +0.000 C 
ATOM      8  C   UNL     1       5.048   3.358  16.064  0.00  0.00    +0.000 C 
ATOM      9  N   UNL     1       4.348   3.623  17.333  0.00  0.00    +0.000 NA
ATOM     10  C   UNL     1       5.234   4.330  18.287  0.00  0.00    +0.000 C 
BRANCH   9  11
ATOM     11  C   UNL     1       3.835   2.383  17.947  0.00  0.00    +0.000 C 
BRANCH  11  12
ATOM     12  C   UNL     1       2.952   2.612  19.150  0.00  0.00    +0.000 A 
ATOM     13  C   UNL     1       3.396   2.297  20.444  0.00  0.00    +0.000 A 
ATOM     14  C   UNL     1       2.571   2.545  21.549  0.00  0.00    +0.000 A 
ATOM     15  C   UNL     1       1.307   3.113  21.372  0.00  0.00    +0.000 A 
ATOM     16  C   UNL     1       0.857   3.417  20.089  0.00  0.00    +0.000 A 
ATOM     17  C   UNL     1       1.677   3.165  18.993  0.00  0.00    +0.000 A 
ATOM     18  F   UNL     1       1.225   3.477  17.769  0.00  0.00    +0.000 F 
ENDBRANCH  11  12
ENDBRANCH   9  11
ENDBRANCH   3   5
BRANCH   1  19
ATOM     19  C   UNL     1       2.322   7.527  18.047  0.00  0.00    +0.000 C 
BRANCH  19  23
ATOM     20  C   UNL     1       0.815  10.386  20.946  0.00  0.00    +0.000 A 
ATOM     21  C   UNL     1       1.089   9.062  21.323  0.00  0.00    +0.000 A 
ATOM     22  C   UNL     1       1.581   8.128  20.404  0.00  0.00    +0.000 A 
ATOM     23  C   UNL     1       1.784   8.494  19.075  0.00  0.00    +0.000 A 
ATOM     24  C   UNL     1       1.398   9.785  18.678  0.00  0.00    +0.000 A 
ATOM     25  C   UNL     1       0.921  10.739  19.592  0.00  0.00    +0.000 A 
BRANCH  20  27
ATOM     26  C   UNL     1      -0.960  11.234  22.261  0.00  0.00    +0.000 C 
ATOM     27  O   UNL     1       0.409  11.314  21.865  0.00  0.00    +0.000 OA
ENDBRANCH  20  27
BRANCH  25  28
ATOM     28  O   UNL     1       0.634  11.932  18.982  0.00  0.00    +0.000 OA
ATOM     29  C   UNL     1      -0.693  12.191  18.555  0.00  0.00    +0.000 C 
ENDBRANCH  25  28
ENDBRANCH  19  23
ENDBRANCH   1  19
TORSDOF 7
ENDMDL
MODEL 6
REMARK VINA RESULT:      -7.8      4.928      5.805
REMARK  Name = 
REMARK  10 active torsions:
REMARK  status: ('A' for Active; 'I' for Inactive)
REMARK    1  A    between atoms: C_1  and  O_2
REMARK    2  A    between atoms: O_2  and  C_3
REMARK    3  A    between atoms: C_6  and  C_7
REMARK    4  A    between atoms: C_7  and  C_8
REMARK    5  A    between atoms: N_10  and  C_11
REMARK    6  A    between atoms: N_10  and  C_12
REMARK    7  A    between atoms: N_16  and  C_17
REMARK    8  A    between atoms: C_17  and  C_18
REMARK    9  A    between atoms: C_27  and  O_28
REMARK   10  A    between atoms: O_28  and  C_29
REMARK                            x       y       z     vdW  Elec       q    Type
REMARK                         _______ _______ _______ _____ _____    ______ ____
ROOT
ATOM      1  C   UNL     1       3.488   6.802  18.343  0.00  0.00    +0.000 C 
ATOM      2  O   UNL     1       3.424   6.247  19.443  0.00  0.00    +0.000 OA
ATOM      3  N   UNL     1       4.633   6.754  17.537  0.00  0.00    +0.000 N 
ATOM      4  C   UNL     1       4.645   7.352  16.203  0.00  0.00    +0.000 C 
ENDROOT
BRANCH   3   5
ATOM      5  C   UNL     1       5.706   5.748  17.852  0.00  0.00    +0.000 C 
ATOM      6  C   UNL     1       6.647   5.385  16.686  0.00  0.00    +0.000 C 
ATOM      7  C   UNL     1       5.904   4.591  15.624  0.00  0.00    +0.000 C 
ATOM      8  C   UNL     1       5.255   3.334  16.209  0.00  0.00    +0.000 C 
ATOM      9  N   UNL     1       4.421   3.616  17.390  0.00  0.00    +0.000 NA
ATOM     10  C   UNL     1       5.184   4.382  18.403  0.00  0.00    +0.000 C 
BRANCH   9  11
ATOM     11  C   UNL     1       3.886   2.379  17.992  0.00  0.00    +0.000 C 
BRANCH  11  12
ATOM     12  C   UNL     1       2.980   2.614  19.177  0.00  0.00    +0.000 A 
ATOM     13  C   UNL     1       3.400   2.311  20.482  0.00  0.00    +0.000 A 
ATOM     14  C   UNL     1       2.553   2.565  21.568  0.00  0.00    +0.000 A 
ATOM     15  C   UNL     1       1.290   3.127  21.363  0.00  0.00    +0.000 A 
ATOM     16  C   UNL     1       0.865   3.419  20.069  0.00  0.00    +0.000 A 
ATOM     17  C   UNL     1       1.706   3.161  18.991  0.00  0.00    +0.000 A 
ATOM     18  F   UNL     1       1.276   3.461  17.756  0.00  0.00    +0.000 F 
ENDBRANCH  11  12
ENDBRANCH   9  11
ENDBRANCH   3   5
BRANCH   1  19
ATOM     19  C   UNL     1       2.235   7.510  17.822  0.00  0.00    +0.000 C 
BRANCH  19  23
ATOM     20  C   UNL     1       0.909  10.977  20.076  0.00  0.00    +0.000 A 
ATOM     21  C   UNL     1       1.326  11.108  18.742  0.00  0.00    +0.000 A 
ATOM     22  C   UNL     1       1.750  10.001  17.998  0.00  0.00    +0.000 A 
ATOM     23  C   UNL     1       1.793   8.738  18.585  0.00  0.00    +0.000 A 
ATOM     24  C   UNL     1       1.487   8.633  19.951  0.00  0.00    +0.000 A 
ATOM     25  C   UNL     1       1.041   9.731  20.706  0.00  0.00    +0.000 A 
BRANCH  20  27
ATOM     26  C   UNL     1      -0.983  12.275  20.654  0.00  0.00    +0.000 C 
ATOM     27  O   UNL     1       0.421  12.048  20.773  0.00  0.00    +0.000 OA
ENDBRANCH  20  27
BRANCH  25  28
ATOM     28  O   UNL     1       0.778   9.384  22.005  0.00  0.00    +0.000 OA
ATOM     29  C   UNL     1      -0.524   8.945  22.356  0.00  0.00    +0.000 C 
ENDBRANCH  25  28
ENDBRANCH  19  23
ENDBRANCH   1  19
TORSDOF 7
ENDMDL
MODEL 7
REMARK VINA RESULT:      -7.8      1.057      1.393
REMARK  Name = 
REMARK  10 active torsions:
REMARK  status: ('A' for Active; 'I' for Inactive)
REMARK    1  A    between atoms: C_1  and  O_2
REMARK    2  A    between atoms: O_2  and  C_3
REMARK    3  A    between atoms: C_6  and  C_7
REMARK    4  A    between atoms: C_7  and  C_8
REMARK    5  A    between atoms: N_10  and  C_11
REMARK    6  A    between atoms: N_10  and  C_12
REMARK    7  A    between atoms: N_16  and  C_17
REMARK    8  A    between atoms: C_17  and  C_18
REMARK    9  A    between atoms: C_27  and  O_28
REMARK   10  A    between atoms: O_28  and  C_29
REMARK                            x       y       z     vdW  Elec       q    Type
REMARK                         _______ _______ _______ _____ _____    ______ ____
ROOT
ATOM      1  C   UNL     1       7.872   7.937  17.982  0.00  0.00    +0.000 C 
ATOM      2  O   UNL     1       7.514   8.613  17.013  0.00  0.00    +0.000 OA
ATOM      3  N   UNL     1       7.397   6.639  18.216  0.00  0.00    +0.000 N 
ATOM      4  C   UNL     1       7.905   5.837  19.327  0.00  0.00    +0.000 C 
ENDROOT
BRANCH   3   5
ATOM      5  C   UNL     1       6.683   5.914  17.109  0.00  0.00    +0.000 C 
ATOM      6  C   UNL     1       5.513   6.677  16.454  0.00  0.00    +0.000 C 
ATOM      7  C   UNL     1       4.349   6.806  17.422  0.00  0.00    +0.000 C 
ATOM      8  C   UNL     1       3.886   5.440  17.936  0.00  0.00    +0.000 C 
ATOM      9  N   UNL     1       4.988   4.630  18.483  0.00  0.00    +0.000 NA
ATOM     10  C   UNL     1       6.097   4.521  17.507  0.00  0.00    +0.000 C 
BRANCH   9  11
ATOM     11  C   UNL     1       4.535   3.283  18.881  0.00  0.00    +0.000 C 
BRANCH  11  12
ATOM     12  C   UNL     1       3.053   3.189  19.158  0.00  0.00    +0.000 A 
ATOM     13  C   UNL     1       2.206   2.444  18.321  0.00  0.00    +0.000 A 
ATOM     14  C   UNL     1       0.840   2.347  18.614  0.00  0.00    +0.000 A 
ATOM     15  C   UNL     1       0.312   2.981  19.742  0.00  0.00    +0.000 A 
ATOM     16  C   UNL     1       1.147   3.730  20.568  0.00  0.00    +0.000 A 
ATOM     17  C   UNL     1       2.503   3.829  20.272  0.00  0.00    +0.000 A 
ATOM     18  F   UNL     1       3.287   4.547  21.091  0.00  0.00    +0.000 F 
ENDBRANCH  11  12
ENDBRANCH   9  11
ENDBRANCH   3   5
BRANCH   1  19
ATOM     19  C   UNL     1       8.928   8.529  18.919  0.00  0.00    +0.000 C 
BRANCH  19  23
ATOM     20  C   UNL     1       9.162  12.859  19.142  0.00  0.00    +0.000 A 
ATOM     21  C   UNL     1       8.918  12.218  17.917  0.00  0.00    +0.000 A 
ATOM     22  C   UNL     1       8.833  10.824  17.827  0.00  0.00    +0.000 A 
ATOM     23  C   UNL     1       9.018  10.036  18.962  0.00  0.00    +0.000 A 
ATOM     24  C   UNL     1       9.377  10.676  20.159  0.00  0.00    +0.000 A 
ATOM     25  C   UNL     1       9.448  12.075  20.270  0.00  0.00    +0.000 A 
BRANCH  20  27
ATOM     26  C   UNL     1       8.155  14.899  18.491  0.00  0.00    +0.000 C 
ATOM     27  O   UNL     1       9.167  14.223  19.238  0.00  0.00    +0.000 OA
ENDBRANCH  20  27
BRANCH  25  28
ATOM     28  O   UNL     1       9.789  12.471  21.537  0.00  0.00    +0.000 OA
ATOM     29  C   UNL     1       8.769  12.865  22.439  0.00  0.00    +0.000 C 
ENDBRANCH  25  28
ENDBRANCH  19  23
ENDBRANCH   1  19
TORSDOF 7
ENDMDL
MODEL 8
REMARK VINA RESULT:      -7.7      4.861      5.730
REMARK  Name = 
REMARK  10 active torsions:
REMARK  status: ('A' for Active; 'I' for Inactive)
REMARK    1  A    between atoms: C_1  and  O_2
REMARK    2  A    between atoms: O_2  and  C_3
REMARK    3  A    between atoms: C_6  and  C_7
REMARK    4  A    between atoms: C_7  and  C_8
REMARK    5  A    between atoms: N_10  and  C_11
REMARK    6  A    between atoms: N_10  and  C_12
REMARK    7  A    between atoms: N_16  and  C_17
REMARK    8  A    between atoms: C_17  and  C_18
REMARK    9  A    between atoms: C_27  and  O_28
REMARK   10  A    between atoms: O_28  and  C_29
REMARK                            x       y       z     vdW  Elec       q    Type
REMARK                         _______ _______ _______ _____ _____    ______ ____
ROOT
ATOM      1  C   UNL     1       3.416   7.065  18.291  0.00  0.00    +0.000 C 
ATOM      2  O   UNL     1       3.350   6.629  19.444  0.00  0.00    +0.000 OA
ATOM      3  N   UNL     1       4.553   6.908  17.487  0.00  0.00    +0.000 N 
ATOM      4  C   UNL     1       4.565   7.364  16.098  0.00  0.00    +0.000 C 
ENDROOT
BRANCH   3   5
ATOM      5  C   UNL     1       5.606   5.917  17.899  0.00  0.00    +0.000 C 
ATOM      6  C   UNL     1       6.653   5.567  16.821  0.00  0.00    +0.000 C 
ATOM      7  C   UNL     1       6.018   4.762  15.699  0.00  0.00    +0.000 C 
ATOM      8  C   UNL     1       5.336   3.496  16.226  0.00  0.00    +0.000 C 
ATOM      9  N   UNL     1       4.397   3.767  17.328  0.00  0.00    +0.000 NA
ATOM     10  C   UNL     1       5.056   4.544  18.404  0.00  0.00    +0.000 C 
BRANCH   9  11
ATOM     11  C   UNL     1       3.828   2.524  17.883  0.00  0.00    +0.000 C 
BRANCH  11  12
ATOM     12  C   UNL     1       2.928   2.738  19.077  0.00  0.00    +0.000 A 
ATOM     13  C   UNL     1       1.617   3.214  18.919  0.00  0.00    +0.000 A 
ATOM     14  C   UNL     1       0.790   3.377  20.039  0.00  0.00    +0.000 A 
ATOM     15  C   UNL     1       1.261   3.060  21.316  0.00  0.00    +0.000 A 
ATOM     16  C   UNL     1       2.565   2.599  21.478  0.00  0.00    +0.000 A 
ATOM     17  C   UNL     1       3.385   2.443  20.365  0.00  0.00    +0.000 A 
ATOM     18  F   UNL     1       4.634   1.986  20.548  0.00  0.00    +0.000 F 
ENDBRANCH  11  12
ENDBRANCH   9  11
ENDBRANCH   3   5
BRANCH   1  19
ATOM     19  C   UNL     1       2.173   7.742  17.708  0.00  0.00    +0.000 C 
BRANCH  19  23
ATOM     20  C   UNL     1       0.908  11.461  19.559  0.00  0.00    +0.000 A 
ATOM     21  C   UNL     1       1.835  11.466  18.505  0.00  0.00    +0.000 A 
ATOM     22  C   UNL     1       2.249  10.278  17.892  0.00  0.00    +0.000 A 
ATOM     23  C   UNL     1       1.764   9.052  18.341  0.00  0.00    +0.000 A 
ATOM     24  C   UNL     1       0.928   9.045  19.470  0.00  0.00    +0.000 A 
ATOM     25  C   UNL     1       0.488  10.230  20.084  0.00  0.00    +0.000 A 
BRANCH  20  27
ATOM     26  C   UNL     1       1.421  13.421  20.781  0.00  0.00    +0.000 C 
ATOM     27  O   UNL     1       0.447  12.629  20.102  0.00  0.00    +0.000 OA
ENDBRANCH  20  27
BRANCH  25  28
ATOM     28  O   UNL     1      -0.339   9.977  21.147  0.00  0.00    +0.000 OA
ATOM     29  C   UNL     1      -0.223   8.744  21.837  0.00  0.00    +0.000 C 
ENDBRANCH  25  28
ENDBRANCH  19  23
ENDBRANCH   1  19
TORSDOF 7
ENDMDL
MODEL 9
REMARK VINA RESULT:      -7.7      4.614      5.778
REMARK  Name = 
REMARK  10 active torsions:
REMARK  status: ('A' for Active; 'I' for Inactive)
REMARK    1  A    between atoms: C_1  and  O_2
REMARK    2  A    between atoms: O_2  and  C_3
REMARK    3  A    between atoms: C_6  and  C_7
REMARK    4  A    between atoms: C_7  and  C_8
REMARK    5  A    between atoms: N_10  and  C_11
REMARK    6  A    between atoms: N_10  and  C_12
REMARK    7  A    between atoms: N_16  and  C_17
REMARK    8  A    between atoms: C_17  and  C_18
REMARK    9  A    between atoms: C_27  and  O_28
REMARK   10  A    between atoms: O_28  and  C_29
REMARK                            x       y       z     vdW  Elec       q    Type
REMARK                         _______ _______ _______ _____ _____    ______ ____
ROOT
ATOM      1  C   UNL     1       3.513   6.855  18.355  0.00  0.00    +0.000 C 
ATOM      2  O   UNL     1       3.479   6.283  19.449  0.00  0.00    +0.000 OA
ATOM      3  N   UNL     1       4.640   6.826  17.522  0.00  0.00    +0.000 N 
ATOM      4  C   UNL     1       4.616   7.445  16.198  0.00  0.00    +0.000 C 
ENDROOT
BRANCH   3   5
ATOM      5  C   UNL     1       5.725   5.822  17.797  0.00  0.00    +0.000 C 
ATOM      6  C   UNL     1       6.637   5.479  16.601  0.00  0.00    +0.000 C 
ATOM      7  C   UNL     1       5.870   4.694  15.550  0.00  0.00    +0.000 C 
ATOM      8  C   UNL     1       5.243   3.425  16.137  0.00  0.00    +0.000 C 
ATOM      9  N   UNL     1       4.440   3.689  17.343  0.00  0.00    +0.000 NA
ATOM     10  C   UNL     1       5.225   4.447  18.345  0.00  0.00    +0.000 C 
BRANCH   9  11
ATOM     11  C   UNL     1       3.927   2.443  17.945  0.00  0.00    +0.000 C 
BRANCH  11  12
ATOM     12  C   UNL     1       2.983   2.661  19.103  0.00  0.00    +0.000 A 
ATOM     13  C   UNL     1       1.655   3.065  18.888  0.00  0.00    +0.000 A 
ATOM     14  C   UNL     1       0.788   3.232  19.976  0.00  0.00    +0.000 A 
ATOM     15  C   UNL     1       1.235   2.992  21.278  0.00  0.00    +0.000 A 
ATOM     16  C   UNL     1       2.554   2.602  21.497  0.00  0.00    +0.000 A 
ATOM     17  C   UNL     1       3.414   2.441  20.414  0.00  0.00    +0.000 A 
ATOM     18  F   UNL     1       4.677   2.055  20.652  0.00  0.00    +0.000 F 
ENDBRANCH  11  12
ENDBRANCH   9  11
ENDBRANCH   3   5
BRANCH   1  19
ATOM     19  C   UNL     1       2.244   7.563  17.875  0.00  0.00    +0.000 C 
BRANCH  19  23
ATOM     20  C   UNL     1       0.969  11.001  20.201  0.00  0.00    +0.000 A 
ATOM     21  C   UNL     1       0.830   9.701  20.711  0.00  0.00    +0.000 A 
ATOM     22  C   UNL     1       1.241   8.582  19.979  0.00  0.00    +0.000 A 
ATOM     23  C   UNL     1       1.777   8.738  18.703  0.00  0.00    +0.000 A 
ATOM     24  C   UNL     1       1.806  10.029  18.151  0.00  0.00    +0.000 A 
ATOM     25  C   UNL     1       1.415  11.165  18.881  0.00  0.00    +0.000 A 
BRANCH  20  27
ATOM     26  C   UNL     1      -0.729  12.500  20.885  0.00  0.00    +0.000 C 
ATOM     27  O   UNL     1       0.638  12.096  20.951  0.00  0.00    +0.000 OA
ENDBRANCH  20  27
BRANCH  25  28
ATOM     28  O   UNL     1       1.554  12.315  18.149  0.00  0.00    +0.000 OA
ATOM     29  C   UNL     1       2.663  13.164  18.395  0.00  0.00    +0.000 C 
ENDBRANCH  25  28
ENDBRANCH  19  23
ENDBRANCH   1  19
TORSDOF 7
ENDMDL
