MODEL 1
REMARK VINA RESULT:      -8.5      0.000      0.000
REMARK  Name = 
REMARK  7 active torsions:
REMARK  status: ('A' for Active; 'I' for Inactive)
REMARK    1  A    between atoms: C_1  and  C_2
REMARK    2  A    between atoms: N_4  and  C_5
REMARK    3  A    between atoms: C_5  and  C_6
REMARK    4  A    between atoms: C_5  and  C_7
REMARK    5  A    between atoms: C_5  and  C_13
REMARK    6  A    between atoms: C_15  and  C_16
REMARK    7  A    between atoms: C_20  and  C_21
REMARK                            x       y       z     vdW  Elec       q    Type
REMARK                         _______ _______ _______ _____ _____    ______ ____
ROOT
ATOM      1  C   UNL     1       2.785   5.150  18.725  0.00  0.00    +0.000 C 
ATOM      2  C   UNL     1       1.739   4.428  17.822  0.00  0.00    +0.000 C 
ENDROOT
BRANCH   1   3
ATOM      3  C   UNL     1       2.377   6.606  19.066  0.00  0.00    +0.000 A 
ATOM      4  C   UNL     1       1.938   6.945  20.367  0.00  0.00    +0.000 A 
ATOM      5  C   UNL     1       1.431   8.212  20.662  0.00  0.00    +0.000 A 
ATOM      6  C   UNL     1       1.353   9.175  19.666  0.00  0.00    +0.000 A 
ATOM      7  C   UNL     1       1.805   8.879  18.383  0.00  0.00    +0.000 A 
ATOM      8  C   UNL     1       2.325   7.614  18.089  0.00  0.00    +0.000 A 
ENDBRANCH   1   3
BRANCH   1  12
ATOM      9  C   UNL     1       2.117   2.984  21.816  0.00  0.00    +0.000 C 
ATOM     10  C   UNL     1       1.818   3.690  20.526  0.00  0.00    +0.000 C 
ATOM     11  O   UNL     1       0.700   3.635  20.023  0.00  0.00    +0.000 OA
ATOM     12  N   UNL     1       2.895   4.365  19.986  0.00  0.00    +0.000 N 
ATOM     13  H   UNL     1       3.686   4.563  20.584  0.00  0.00    +0.000 HD
ENDBRANCH   1  12
BRANCH   1  14
ATOM     14  C   UNL     1       4.173   5.088  17.994  0.00  0.00    +0.000 A 
ATOM     15  N   UNL     1       4.345   5.048  16.680  0.00  0.00    +0.000 NA
ATOM     16  C   UNL     1       5.675   4.813  16.353  0.00  0.00    +0.000 A 
ATOM     17  C   UNL     1       6.534   4.766  17.430  0.00  0.00    +0.000 A 
ATOM     18  S   UNL     1       5.658   4.969  18.887  0.00  0.00    +0.000 S 
BRANCH  16  19
ATOM     19  C   UNL     1       6.108   4.626  14.973  0.00  0.00    +0.000 A 
ATOM     20  C   UNL     1       7.379   5.045  14.545  0.00  0.00    +0.000 A 
ATOM     21  C   UNL     1       7.778   4.880  13.219  0.00  0.00    +0.000 A 
ATOM     22  C   UNL     1       6.910   4.290  12.303  0.00  0.00    +0.000 A 
ATOM     23  C   UNL     1       5.647   3.851  12.714  0.00  0.00    +0.000 A 
ATOM     24  C   UNL     1       5.250   4.010  14.051  0.00  0.00    +0.000 A 
BRANCH  23  25
ATOM     25  C   UNL     1       4.755   3.249  11.772  0.00  0.00    +0.000 C 
ATOM     26  N   UNL     1       4.019   2.769  11.008  0.00  0.00    +0.000 NA
ENDBRANCH  23  25
ENDBRANCH  16  19
ENDBRANCH   1  14
TORSDOF 5
ENDMDL
MODEL 2
REMARK VINA RESULT:      -8.2      1.232      1.232
REMARK  Name = 
REMARK  7 active torsions:
REMARK  status: ('A' for Active; 'I' for Inactive)
REMARK    1  A    between atoms: C_1  and  C_2
REMARK    2  A    between atoms: N_4  and  C_5
REMARK    3  A    between atoms: C_5  and  C_6
REMARK    4  A    between atoms: C_5  and  C_7
REMARK    5  A    between atoms: C_5  and  C_13
REMARK    6  A    between atoms: C_15  and  C_16
REMARK    7  A    between atoms: C_20  and  C_21
REMARK                            x       y       z     vdW  Elec       q    Type
REMARK                         _______ _______ _______ _____ _____    ______ ____
ROOT
ATOM      1  C   UNL     1       3.327   5.058  18.424  0.00  0.00    +0.000 C 
ATOM      2  C   UNL     1       2.339   4.261  17.518  0.00  0.00    +0.000 C 
ENDROOT
BRANCH   1   3
ATOM      3  C   UNL     1       2.759   6.431  18.863  0.00  0.00    +0.000 A 
ATOM      4  C   UNL     1       2.258   6.617  20.173  0.00  0.00    +0.000 A 
ATOM      5  C   UNL     1       1.613   7.797  20.550  0.00  0.00    +0.000 A 
ATOM      6  C   UNL     1       1.454   8.823  19.629  0.00  0.00    +0.000 A 
ATOM      7  C   UNL     1       1.963   8.679  18.342  0.00  0.00    +0.000 A 
ATOM      8  C   UNL     1       2.621   7.503  17.967  0.00  0.00    +0.000 A 
ENDBRANCH   1   3
BRANCH   1  12
ATOM      9  C   UNL     1       4.056   2.201  20.873  0.00  0.00    +0.000 C 
ATOM     10  C   UNL     1       3.855   2.873  19.547  0.00  0.00    +0.000 C 
ATOM     11  O   UNL     1       3.942   2.240  18.500  0.00  0.00    +0.000 OA
ATOM     12  N   UNL     1       3.586   4.226  19.632  0.00  0.00    +0.000 N 
ATOM     13  H   UNL     1       3.287   4.601  20.521  0.00  0.00    +0.000 HD
ENDBRANCH   1  12
BRANCH   1  14
ATOM     14  C   UNL     1       4.680   5.208  17.641  0.00  0.00    +0.000 A 
ATOM     15  N   UNL     1       4.828   5.056  16.332  0.00  0.00    +0.000 NA
ATOM     16  C   UNL     1       6.170   5.072  15.972  0.00  0.00    +0.000 A 
ATOM     17  C   UNL     1       7.042   5.332  17.008  0.00  0.00    +0.000 A 
ATOM     18  S   UNL     1       6.175   5.508  18.474  0.00  0.00    +0.000 S 
BRANCH  16  19
ATOM     19  C   UNL     1       6.604   4.826  14.602  0.00  0.00    +0.000 A 
ATOM     20  C   UNL     1       7.644   5.571  14.022  0.00  0.00    +0.000 A 
ATOM     21  C   UNL     1       8.039   5.342  12.704  0.00  0.00    +0.000 A 
ATOM     22  C   UNL     1       7.400   4.361  11.950  0.00  0.00    +0.000 A 
ATOM     23  C   UNL     1       6.374   3.597  12.515  0.00  0.00    +0.000 A 
ATOM     24  C   UNL     1       5.982   3.823  13.845  0.00  0.00    +0.000 A 
BRANCH  23  25
ATOM     25  C   UNL     1       5.715   2.592  11.740  0.00  0.00    +0.000 C 
ATOM     26  N   UNL     1       5.186   1.764  11.115  0.00  0.00    +0.000 NA
ENDBRANCH  23  25
ENDBRANCH  16  19
ENDBRANCH   1  14
TORSDOF 5
ENDMDL
MODEL 3
REMARK VINA RESULT:      -8.1      3.855      8.498
REMARK  Name = 
REMARK  7 active torsions:
REMARK  status: ('A' for Active; 'I' for Inactive)
REMARK    1  A    between atoms: C_1  and  C_2
REMARK    2  A    between atoms: N_4  and  C_5
REMARK    3  A    between atoms: C_5  and  C_6
REMARK    4  A    between atoms: C_5  and  C_7
REMARK    5  A    between atoms: C_5  and  C_13
REMARK    6  A    between atoms: C_15  and  C_16
REMARK    7  A    between atoms: C_20  and  C_21
REMARK                            x       y       z     vdW  Elec       q    Type
REMARK                         _______ _______ _______ _____ _____    ______ ____
ROOT
ATOM      1  C   UNL     1       3.089   5.921  18.870  0.00  0.00    +0.000 C 
ATOM      2  C   UNL     1       3.146   5.638  17.338  0.00  0.00    +0.000 C 
ENDROOT
BRANCH   1   3
ATOM      3  C   UNL     1       2.338   4.816  19.655  0.00  0.00    +0.000 A 
ATOM      4  C   UNL     1       2.632   4.574  21.017  0.00  0.00    +0.000 A 
ATOM      5  C   UNL     1       2.076   3.494  21.706  0.00  0.00    +0.000 A 
ATOM      6  C   UNL     1       1.207   2.630  21.053  0.00  0.00    +0.000 A 
ATOM      7  C   UNL     1       0.877   2.861  19.721  0.00  0.00    +0.000 A 
ATOM      8  C   UNL     1       1.424   3.949  19.033  0.00  0.00    +0.000 A 
ENDBRANCH   1   3
BRANCH   1  12
ATOM      9  C   UNL     1       6.814   5.336  19.555  0.00  0.00    +0.000 C 
ATOM     10  C   UNL     1       5.469   5.119  18.927  0.00  0.00    +0.000 C 
ATOM     11  O   UNL     1       5.296   4.232  18.098  0.00  0.00    +0.000 OA
ATOM     12  N   UNL     1       4.494   5.999  19.357  0.00  0.00    +0.000 N 
ATOM     13  H   UNL     1       4.657   6.518  20.209  0.00  0.00    +0.000 HD
ENDBRANCH   1  12
BRANCH   1  14
ATOM     14  C   UNL     1       2.428   7.332  19.071  0.00  0.00    +0.000 A 
ATOM     15  N   UNL     1       1.865   7.760  20.192  0.00  0.00    +0.000 NA
ATOM     16  C   UNL     1       1.212   8.972  19.996  0.00  0.00    +0.000 A 
ATOM     17  C   UNL     1       1.363   9.511  18.737  0.00  0.00    +0.000 A 
ATOM     18  S   UNL     1       2.295   8.461  17.757  0.00  0.00    +0.000 S 
BRANCH  16  19
ATOM     19  C   UNL     1       0.429   9.605  21.052  0.00  0.00    +0.000 A 
ATOM     20  C   UNL     1       0.409   9.082  22.355  0.00  0.00    +0.000 A 
ATOM     21  C   UNL     1      -0.357   9.683  23.355  0.00  0.00    +0.000 A 
ATOM     22  C   UNL     1      -1.111  10.817  23.062  0.00  0.00    +0.000 A 
ATOM     23  C   UNL     1      -1.090  11.361  21.774  0.00  0.00    +0.000 A 
ATOM     24  C   UNL     1      -0.312  10.761  20.771  0.00  0.00    +0.000 A 
BRANCH  23  25
ATOM     25  C   UNL     1      -1.867  12.523  21.473  0.00  0.00    +0.000 C 
ATOM     26  N   UNL     1      -2.507  13.468  21.239  0.00  0.00    +0.000 NA
ENDBRANCH  23  25
ENDBRANCH  16  19
ENDBRANCH   1  14
TORSDOF 5
ENDMDL
MODEL 4
REMARK VINA RESULT:      -7.9      0.950      1.350
REMARK  Name = 
REMARK  7 active torsions:
REMARK  status: ('A' for Active; 'I' for Inactive)
REMARK    1  A    between atoms: C_1  and  C_2
REMARK    2  A    between atoms: N_4  and  C_5
REMARK    3  A    between atoms: C_5  and  C_6
REMARK    4  A    between atoms: C_5  and  C_7
REMARK    5  A    between atoms: C_5  and  C_13
REMARK    6  A    between atoms: C_15  and  C_16
REMARK    7  A    between atoms: C_20  and  C_21
REMARK                            x       y       z     vdW  Elec       q    Type
REMARK                         _______ _______ _______ _____ _____    ______ ____
ROOT
ATOM      1  C   UNL     1       2.878   4.895  18.661  0.00  0.00    +0.000 C 
ATOM      2  C   UNL     1       1.894   4.075  17.771  0.00  0.00    +0.000 C 
ENDROOT
BRANCH   1   3
ATOM      3  C   UNL     1       2.298   6.267  19.086  0.00  0.00    +0.000 A 
ATOM      4  C   UNL     1       2.325   7.367  18.196  0.00  0.00    +0.000 A 
ATOM      5  C   UNL     1       1.940   8.647  18.602  0.00  0.00    +0.000 A 
ATOM      6  C   UNL     1       1.515   8.861  19.906  0.00  0.00    +0.000 A 
ATOM      7  C   UNL     1       1.451   7.792  20.794  0.00  0.00    +0.000 A 
ATOM      8  C   UNL     1       1.823   6.507  20.386  0.00  0.00    +0.000 A 
ENDBRANCH   1   3
BRANCH   1  12
ATOM      9  C   UNL     1       3.703   2.088  21.138  0.00  0.00    +0.000 C 
ATOM     10  C   UNL     1       3.496   2.745  19.804  0.00  0.00    +0.000 C 
ATOM     11  O   UNL     1       3.640   2.113  18.762  0.00  0.00    +0.000 OA
ATOM     12  N   UNL     1       3.154   4.082  19.877  0.00  0.00    +0.000 N 
ATOM     13  H   UNL     1       2.816   4.443  20.759  0.00  0.00    +0.000 HD
ENDBRANCH   1  12
BRANCH   1  14
ATOM     14  C   UNL     1       4.225   5.050  17.867  0.00  0.00    +0.000 A 
ATOM     15  N   UNL     1       4.363   4.902  16.557  0.00  0.00    +0.000 NA
ATOM     16  C   UNL     1       5.702   4.922  16.187  0.00  0.00    +0.000 A 
ATOM     17  C   UNL     1       6.582   5.182  17.216  0.00  0.00    +0.000 A 
ATOM     18  S   UNL     1       5.725   5.353  18.689  0.00  0.00    +0.000 S 
BRANCH  16  19
ATOM     19  C   UNL     1       6.125   4.680  14.812  0.00  0.00    +0.000 A 
ATOM     20  C   UNL     1       7.395   5.075  14.361  0.00  0.00    +0.000 A 
ATOM     21  C   UNL     1       7.785   4.856  13.039  0.00  0.00    +0.000 A 
ATOM     22  C   UNL     1       6.908   4.235  12.153  0.00  0.00    +0.000 A 
ATOM     23  C   UNL     1       5.646   3.819  12.588  0.00  0.00    +0.000 A 
ATOM     24  C   UNL     1       5.258   4.033  13.921  0.00  0.00    +0.000 A 
BRANCH  23  25
ATOM     25  C   UNL     1       4.745   3.185  11.677  0.00  0.00    +0.000 C 
ATOM     26  N   UNL     1       4.020   2.670  10.924  0.00  0.00    +0.000 NA
ENDBRANCH  23  25
ENDBRANCH  16  19
ENDBRANCH   1  14
TORSDOF 5
ENDMDL
MODEL 5
REMARK VINA RESULT:      -7.9      3.657      8.108
REMARK  Name = 
REMARK  7 active torsions:
REMARK  status: ('A' for Active; 'I' for Inactive)
REMARK    1  A    between atoms: C_1  and  C_2
REMARK    2  A    between atoms: N_4  and  C_5
REMARK    3  A    between atoms: C_5  and  C_6
REMARK    4  A    between atoms: C_5  and  C_7
REMARK    5  A    between atoms: C_5  and  C_13
REMARK    6  A    between atoms: C_15  and  C_16
REMARK    7  A    between atoms: C_20  and  C_21
REMARK                            x       y       z     vdW  Elec       q    Type
REMARK                         _______ _______ _______ _____ _____    ______ ____
ROOT
ATOM      1  C   UNL     1       3.603   5.289  18.726  0.00  0.00    +0.000 C 
ATOM      2  C   UNL     1       3.732   4.925  17.215  0.00  0.00    +0.000 C 
ENDROOT
BRANCH   1   3
ATOM      3  C   UNL     1       2.784   4.244  19.525  0.00  0.00    +0.000 A 
ATOM      4  C   UNL     1       1.528   3.798  19.050  0.00  0.00    +0.000 A 
ATOM      5  C   UNL     1       0.708   2.968  19.817  0.00  0.00    +0.000 A 
ATOM      6  C   UNL     1       1.121   2.560  21.077  0.00  0.00    +0.000 A 
ATOM      7  C   UNL     1       2.364   2.960  21.558  0.00  0.00    +0.000 A 
ATOM      8  C   UNL     1       3.193   3.780  20.786  0.00  0.00    +0.000 A 
ENDBRANCH   1   3
BRANCH   1  12
ATOM      9  C   UNL     1       7.375   5.730  19.243  0.00  0.00    +0.000 C 
ATOM     10  C   UNL     1       6.062   5.756  18.516  0.00  0.00    +0.000 C 
ATOM     11  O   UNL     1       5.998   6.118  17.346  0.00  0.00    +0.000 OA
ATOM     12  N   UNL     1       4.983   5.358  19.282  0.00  0.00    +0.000 N 
ATOM     13  H   UNL     1       5.162   4.846  20.135  0.00  0.00    +0.000 HD
ENDBRANCH   1  12
BRANCH   1  14
ATOM     14  C   UNL     1       2.971   6.723  18.820  0.00  0.00    +0.000 A 
ATOM     15  N   UNL     1       2.375   7.228  19.892  0.00  0.00    +0.000 NA
ATOM     16  C   UNL     1       1.762   8.441  19.601  0.00  0.00    +0.000 A 
ATOM     17  C   UNL     1       1.975   8.904  18.320  0.00  0.00    +0.000 A 
ATOM     18  S   UNL     1       2.917   7.777  17.440  0.00  0.00    +0.000 S 
BRANCH  16  19
ATOM     19  C   UNL     1       0.955   9.152  20.587  0.00  0.00    +0.000 A 
ATOM     20  C   UNL     1       0.979   8.790  21.944  0.00  0.00    +0.000 A 
ATOM     21  C   UNL     1       0.189   9.462  22.878  0.00  0.00    +0.000 A 
ATOM     22  C   UNL     1      -0.632  10.508  22.464  0.00  0.00    +0.000 A 
ATOM     23  C   UNL     1      -0.656  10.894  21.120  0.00  0.00    +0.000 A 
ATOM     24  C   UNL     1       0.144  10.222  20.183  0.00  0.00    +0.000 A 
BRANCH  23  25
ATOM     25  C   UNL     1      -1.503  11.966  20.695  0.00  0.00    +0.000 C 
ATOM     26  N   UNL     1      -2.197  12.839  20.362  0.00  0.00    +0.000 NA
ENDBRANCH  23  25
ENDBRANCH  16  19
ENDBRANCH   1  14
TORSDOF 5
ENDMDL
MODEL 6
REMARK VINA RESULT:      -7.8      5.076      7.839
REMARK  Name = 
REMARK  7 active torsions:
REMARK  status: ('A' for Active; 'I' for Inactive)
REMARK    1  A    between atoms: C_1  and  C_2
REMARK    2  A    between atoms: N_4  and  C_5
REMARK    3  A    between atoms: C_5  and  C_6
REMARK    4  A    between atoms: C_5  and  C_7
REMARK    5  A    between atoms: C_5  and  C_13
REMARK    6  A    between atoms: C_15  and  C_16
REMARK    7  A    between atoms: C_20  and  C_21
REMARK                            x       y       z     vdW  Elec       q    Type
REMARK                         _______ _______ _______ _____ _____    ______ ____
ROOT
ATOM      1  C   UNL     1      -0.275  11.571  19.408  0.00  0.00    +0.000 C 
ATOM      2  C   UNL     1      -0.649  12.642  20.478  0.00  0.00    +0.000 C 
ENDROOT
BRANCH   1   3
ATOM      3  C   UNL     1      -1.491  11.125  18.557  0.00  0.00    +0.000 A 
ATOM      4  C   UNL     1      -1.334  10.179  17.517  0.00  0.00    +0.000 A 
ATOM      5  C   UNL     1      -2.380   9.867  16.646  0.00  0.00    +0.000 A 
ATOM      6  C   UNL     1      -3.611  10.491  16.792  0.00  0.00    +0.000 A 
ATOM      7  C   UNL     1      -3.803  11.406  17.823  0.00  0.00    +0.000 A 
ATOM      8  C   UNL     1      -2.760  11.709  18.705  0.00  0.00    +0.000 A 
ENDBRANCH   1   3
BRANCH   1  12
ATOM      9  C   UNL     1       2.769  13.397  17.960  0.00  0.00    +0.000 C 
ATOM     10  C   UNL     1       1.868  12.821  19.013  0.00  0.00    +0.000 C 
ATOM     11  O   UNL     1       2.147  12.923  20.204  0.00  0.00    +0.000 OA
ATOM     12  N   UNL     1       0.750  12.179  18.515  0.00  0.00    +0.000 N 
ATOM     13  H   UNL     1       0.478  12.362  17.559  0.00  0.00    +0.000 HD
ENDBRANCH   1  12
BRANCH   1  14
ATOM     14  C   UNL     1       0.391  10.361  20.155  0.00  0.00    +0.000 A 
ATOM     15  N   UNL     1       1.017   9.350  19.568  0.00  0.00    +0.000 NA
ATOM     16  C   UNL     1       1.332   8.353  20.484  0.00  0.00    +0.000 A 
ATOM     17  C   UNL     1       1.023   8.655  21.794  0.00  0.00    +0.000 A 
ATOM     18  S   UNL     1       0.276  10.193  21.880  0.00  0.00    +0.000 S 
BRANCH  16  19
ATOM     19  C   UNL     1       1.936   7.091  20.073  0.00  0.00    +0.000 A 
ATOM     20  C   UNL     1       2.678   6.993  18.885  0.00  0.00    +0.000 A 
ATOM     21  C   UNL     1       3.237   5.778  18.488  0.00  0.00    +0.000 A 
ATOM     22  C   UNL     1       3.062   4.644  19.279  0.00  0.00    +0.000 A 
ATOM     23  C   UNL     1       2.341   4.726  20.474  0.00  0.00    +0.000 A 
ATOM     24  C   UNL     1       1.785   5.952  20.876  0.00  0.00    +0.000 A 
BRANCH  23  25
ATOM     25  C   UNL     1       2.158   3.562  21.284  0.00  0.00    +0.000 C 
ATOM     26  N   UNL     1       2.022   2.612  21.944  0.00  0.00    +0.000 NA
ENDBRANCH  23  25
ENDBRANCH  16  19
ENDBRANCH   1  14
TORSDOF 5
ENDMDL
MODEL 7
REMARK VINA RESULT:      -7.6      3.913      6.497
REMARK  Name = 
REMARK  7 active torsions:
REMARK  status: ('A' for Active; 'I' for Inactive)
REMARK    1  A    between atoms: C_1  and  C_2
REMARK    2  A    between atoms: N_4  and  C_5
REMARK    3  A    between atoms: C_5  and  C_6
REMARK    4  A    between atoms: C_5  and  C_7
REMARK    5  A    between atoms: C_5  and  C_13
REMARK    6  A    between atoms: C_15  and  C_16
REMARK    7  A    between atoms: C_20  and  C_21
REMARK                            x       y       z     vdW  Elec       q    Type
REMARK                         _______ _______ _______ _____ _____    ______ ____
ROOT
ATOM      1  C   UNL     1       0.625  10.702  19.611  0.00  0.00    +0.000 C 
ATOM      2  C   UNL     1       0.509  11.377  21.013  0.00  0.00    +0.000 C 
ENDROOT
BRANCH   1   3
ATOM      3  C   UNL     1      -0.729  10.652  18.859  0.00  0.00    +0.000 A 
ATOM      4  C   UNL     1      -0.866   9.889  17.675  0.00  0.00    +0.000 A 
ATOM      5  C   UNL     1      -2.028   9.940  16.902  0.00  0.00    +0.000 A 
ATOM      6  C   UNL     1      -3.085  10.751  17.293  0.00  0.00    +0.000 A 
ATOM      7  C   UNL     1      -2.988  11.490  18.468  0.00  0.00    +0.000 A 
ATOM      8  C   UNL     1      -1.831  11.431  19.250  0.00  0.00    +0.000 A 
ENDBRANCH   1   3
BRANCH   1  12
ATOM      9  C   UNL     1       2.612  13.508  17.917  0.00  0.00    +0.000 C 
ATOM     10  C   UNL     1       1.574  12.883  18.803  0.00  0.00    +0.000 C 
ATOM     11  O   UNL     1       0.798  13.578  19.452  0.00  0.00    +0.000 OA
ATOM     12  N   UNL     1       1.598  11.501  18.816  0.00  0.00    +0.000 N 
ATOM     13  H   UNL     1       2.089  11.023  18.074  0.00  0.00    +0.000 HD
ENDBRANCH   1  12
BRANCH   1  14
ATOM     14  C   UNL     1       1.232   9.269  19.819  0.00  0.00    +0.000 A 
ATOM     15  N   UNL     1       1.951   8.605  18.924  0.00  0.00    +0.000 NA
ATOM     16  C   UNL     1       2.184   7.298  19.336  0.00  0.00    +0.000 A 
ATOM     17  C   UNL     1       1.716   6.998  20.597  0.00  0.00    +0.000 A 
ATOM     18  S   UNL     1       0.920   8.359  21.266  0.00  0.00    +0.000 S 
BRANCH  16  19
ATOM     19  C   UNL     1       2.867   6.332  18.483  0.00  0.00    +0.000 A 
ATOM     20  C   UNL     1       2.274   5.102  18.155  0.00  0.00    +0.000 A 
ATOM     21  C   UNL     1       2.942   4.176  17.354  0.00  0.00    +0.000 A 
ATOM     22  C   UNL     1       4.214   4.471  16.868  0.00  0.00    +0.000 A 
ATOM     23  C   UNL     1       4.813   5.698  17.168  0.00  0.00    +0.000 A 
ATOM     24  C   UNL     1       4.136   6.633  17.968  0.00  0.00    +0.000 A 
BRANCH  23  25
ATOM     25  C   UNL     1       6.120   6.000  16.672  0.00  0.00    +0.000 C 
ATOM     26  N   UNL     1       7.188   6.233  16.271  0.00  0.00    +0.000 NA
ENDBRANCH  23  25
ENDBRANCH  16  19
ENDBRANCH   1  14
TORSDOF 5
ENDMDL
MODEL 8
REMARK VINA RESULT:      -7.6      2.820      7.649
REMARK  Name = 
REMARK  7 active torsions:
REMARK  status: ('A' for Active; 'I' for Inactive)
REMARK    1  A    between atoms: C_1  and  C_2
REMARK    2  A    between atoms: N_4  and  C_5
REMARK    3  A    between atoms: C_5  and  C_6
REMARK    4  A    between atoms: C_5  and  C_7
REMARK    5  A    between atoms: C_5  and  C_13
REMARK    6  A    between atoms: C_15  and  C_16
REMARK    7  A    between atoms: C_20  and  C_21
REMARK                            x       y       z     vdW  Elec       q    Type
REMARK                         _______ _______ _______ _____ _____    ______ ____
ROOT
ATOM      1  C   UNL     1       5.095   4.901  17.760  0.00  0.00    +0.000 C 
ATOM      2  C   UNL     1       5.388   3.466  18.295  0.00  0.00    +0.000 C 
ENDROOT
BRANCH   1   3
ATOM      3  C   UNL     1       6.303   5.859  17.925  0.00  0.00    +0.000 A 
ATOM      4  C   UNL     1       7.277   5.622  18.923  0.00  0.00    +0.000 A 
ATOM      5  C   UNL     1       8.294   6.543  19.186  0.00  0.00    +0.000 A 
ATOM      6  C   UNL     1       8.366   7.722  18.457  0.00  0.00    +0.000 A 
ATOM      7  C   UNL     1       7.438   7.967  17.450  0.00  0.00    +0.000 A 
ATOM      8  C   UNL     1       6.427   7.041  17.176  0.00  0.00    +0.000 A 
ENDBRANCH   1   3
BRANCH   1  12
ATOM      9  C   UNL     1       5.165   4.243  13.984  0.00  0.00    +0.000 C 
ATOM     10  C   UNL     1       5.667   4.262  15.399  0.00  0.00    +0.000 C 
ATOM     11  O   UNL     1       6.784   3.837  15.676  0.00  0.00    +0.000 OA
ATOM     12  N   UNL     1       4.766   4.773  16.313  0.00  0.00    +0.000 N 
ATOM     13  H   UNL     1       3.990   5.322  15.968  0.00  0.00    +0.000 HD
ENDBRANCH   1  12
BRANCH   1  14
ATOM     14  C   UNL     1       3.819   5.438  18.501  0.00  0.00    +0.000 A 
ATOM     15  N   UNL     1       3.351   6.676  18.421  0.00  0.00    +0.000 NA
ATOM     16  C   UNL     1       2.322   6.884  19.332  0.00  0.00    +0.000 A 
ATOM     17  C   UNL     1       1.945   5.765  20.043  0.00  0.00    +0.000 A 
ATOM     18  S   UNL     1       2.930   4.434  19.606  0.00  0.00    +0.000 S 
BRANCH  16  19
ATOM     19  C   UNL     1       1.705   8.194  19.510  0.00  0.00    +0.000 A 
ATOM     20  C   UNL     1       1.631   9.113  18.452  0.00  0.00    +0.000 A 
ATOM     21  C   UNL     1       1.056  10.371  18.636  0.00  0.00    +0.000 A 
ATOM     22  C   UNL     1       0.545  10.723  19.883  0.00  0.00    +0.000 A 
ATOM     23  C   UNL     1       0.594   9.814  20.944  0.00  0.00    +0.000 A 
ATOM     24  C   UNL     1       1.165   8.545  20.756  0.00  0.00    +0.000 A 
BRANCH  23  25
ATOM     25  C   UNL     1       0.072  10.177  22.226  0.00  0.00    +0.000 C 
ATOM     26  N   UNL     1      -0.348  10.460  23.274  0.00  0.00    +0.000 NA
ENDBRANCH  23  25
ENDBRANCH  16  19
ENDBRANCH   1  14
TORSDOF 5
ENDMDL
MODEL 9
REMARK VINA RESULT:      -7.6      4.253      7.180
REMARK  Name = 
REMARK  7 active torsions:
REMARK  status: ('A' for Active; 'I' for Inactive)
REMARK    1  A    between atoms: C_1  and  C_2
REMARK    2  A    between atoms: N_4  and  C_5
REMARK    3  A    between atoms: C_5  and  C_6
REMARK    4  A    between atoms: C_5  and  C_7
REMARK    5  A    between atoms: C_5  and  C_13
REMARK    6  A    between atoms: C_15  and  C_16
REMARK    7  A    between atoms: C_20  and  C_21
REMARK                            x       y       z     vdW  Elec       q    Type
REMARK                         _______ _______ _______ _____ _____    ______ ____
ROOT
ATOM      1  C   UNL     1      -0.365  11.394  19.698  0.00  0.00    +0.000 C 
ATOM      2  C   UNL     1      -0.873  12.182  20.945  0.00  0.00    +0.000 C 
ENDROOT
BRANCH   1   3
ATOM      3  C   UNL     1      -1.507  11.028  18.716  0.00  0.00    +0.000 A 
ATOM      4  C   UNL     1      -1.288  10.100  17.671  0.00  0.00    +0.000 A 
ATOM      5  C   UNL     1      -2.252   9.861  16.690  0.00  0.00    +0.000 A 
ATOM      6  C   UNL     1      -3.463  10.539  16.730  0.00  0.00    +0.000 A 
ATOM      7  C   UNL     1      -3.717  11.436  17.762  0.00  0.00    +0.000 A 
ATOM      8  C   UNL     1      -2.757  11.667  18.753  0.00  0.00    +0.000 A 
ENDBRANCH   1   3
BRANCH   1  12
ATOM      9  C   UNL     1       2.573  13.681  18.789  0.00  0.00    +0.000 C 
ATOM     10  C   UNL     1       1.710  12.808  19.653  0.00  0.00    +0.000 C 
ATOM     11  O   UNL     1       1.992  12.612  20.831  0.00  0.00    +0.000 OA
ATOM     12  N   UNL     1       0.622  12.262  18.999  0.00  0.00    +0.000 N 
ATOM     13  H   UNL     1       0.334  12.672  18.122  0.00  0.00    +0.000 HD
ENDBRANCH   1  12
BRANCH   1  14
ATOM     14  C   UNL     1       0.393  10.119  20.214  0.00  0.00    +0.000 A 
ATOM     15  N   UNL     1       1.147   9.322  19.469  0.00  0.00    +0.000 NA
ATOM     16  C   UNL     1       1.526   8.186  20.173  0.00  0.00    +0.000 A 
ATOM     17  C   UNL     1       1.132   8.166  21.494  0.00  0.00    +0.000 A 
ATOM     18  S   UNL     1       0.223   9.572  21.855  0.00  0.00    +0.000 S 
BRANCH  16  19
ATOM     19  C   UNL     1       2.278   7.106  19.544  0.00  0.00    +0.000 A 
ATOM     20  C   UNL     1       2.245   5.799  20.059  0.00  0.00    +0.000 A 
ATOM     21  C   UNL     1       2.982   4.776  19.463  0.00  0.00    +0.000 A 
ATOM     22  C   UNL     1       3.760   5.047  18.340  0.00  0.00    +0.000 A 
ATOM     23  C   UNL     1       3.792   6.337  17.802  0.00  0.00    +0.000 A 
ATOM     24  C   UNL     1       3.044   7.365  18.399  0.00  0.00    +0.000 A 
BRANCH  23  25
ATOM     25  C   UNL     1       4.594   6.616  16.652  0.00  0.00    +0.000 C 
ATOM     26  N   UNL     1       5.242   6.857  15.714  0.00  0.00    +0.000 NA
ENDBRANCH  23  25
ENDBRANCH  16  19
ENDBRANCH   1  14
TORSDOF 5
ENDMDL
