MODEL 1
REMARK VINA RESULT:      -7.2      0.000      0.000
REMARK  Name = 
REMARK  6 active torsions:
REMARK  status: ('A' for Active; 'I' for Inactive)
REMARK    1  A    between atoms: C_1  and  S_2
REMARK    2  A    between atoms: S_2  and  C_3
REMARK    3  A    between atoms: C_6  and  C_7
REMARK    4  A    between atoms: N_8  and  N_9
REMARK    5  A    between atoms: C_10  and  C_12
REMARK    6  A    between atoms: C_15  and  N_16
REMARK                            x       y       z     vdW  Elec       q    Type
REMARK                         _______ _______ _______ _____ _____    ______ ____
ROOT
ATOM      1  N   UNL     1       1.834   8.425  19.167  0.00  0.00    +0.000 N 
ATOM      2  C   UNL     1       2.246   7.105  19.372  0.00  0.00    +0.000 C 
ATOM      3  O   UNL     1       1.890   6.407  20.305  0.00  0.00    +0.000 OA
ATOM      4  H   UNL     1       2.125   8.972  18.371  0.00  0.00    +0.000 HD
ENDROOT
BRANCH   2   5
ATOM      5  C   UNL     1       3.227   6.534  18.400  0.00  0.00    +0.000 A 
ATOM      6  C   UNL     1       4.017   7.443  17.676  0.00  0.00    +0.000 A 
ATOM      7  C   UNL     1       4.892   7.002  16.684  0.00  0.00    +0.000 A 
ATOM      8  C   UNL     1       4.988   5.639  16.397  0.00  0.00    +0.000 A 
ATOM      9  C   UNL     1       4.217   4.717  17.127  0.00  0.00    +0.000 A 
ATOM     10  C   UNL     1       3.349   5.164  18.138  0.00  0.00    +0.000 A 
BRANCH   8  11
ATOM     11  N   UNL     1       5.852   5.212  15.365  0.00  0.00    +0.000 N 
ATOM     12  C   UNL     1       5.625   4.295  14.369  0.00  0.00    +0.000 A 
ATOM     13  N   UNL     1       6.721   4.138  13.664  0.00  0.00    +0.000 NA
ATOM     14  N   UNL     1       7.630   5.012  14.200  0.00  0.00    +0.000 NA
ATOM     15  N   UNL     1       7.103   5.697  15.207  0.00  0.00    +0.000 NA
ENDBRANCH   8  11
ENDBRANCH   2   5
BRANCH   1  17
ATOM     16  C   UNL     1       0.522  10.164  19.880  0.00  0.00    +0.000 C 
ATOM     17  N   UNL     1       0.971   8.965  20.085  0.00  0.00    +0.000 NA
BRANCH  16  21
ATOM     18  C   UNL     1      -2.155  12.011  22.694  0.00  0.00    +0.000 A 
ATOM     19  C   UNL     1      -1.333  10.952  23.089  0.00  0.00    +0.000 A 
ATOM     20  C   UNL     1      -0.454  10.357  22.178  0.00  0.00    +0.000 A 
ATOM     21  C   UNL     1      -0.400  10.807  20.854  0.00  0.00    +0.000 A 
ATOM     22  C   UNL     1      -1.230  11.859  20.450  0.00  0.00    +0.000 A 
ATOM     23  C   UNL     1      -2.108  12.454  21.367  0.00  0.00    +0.000 A 
BRANCH  18  25
ATOM     24  C   UNL     1      -2.402  14.351  24.101  0.00  0.00    +0.000 C 
ATOM     25  S   UNL     1      -3.274  12.780  23.850  0.00  0.00    +0.000 S 
ENDBRANCH  18  25
ENDBRANCH  16  21
ENDBRANCH   1  17
TORSDOF 5
ENDMDL
MODEL 2
REMARK VINA RESULT:      -7.2      7.210     10.037
REMARK  Name = 
REMARK  6 active torsions:
REMARK  status: ('A' for Active; 'I' for Inactive)
REMARK    1  A    between atoms: C_1  and  S_2
REMARK    2  A    between atoms: S_2  and  C_3
REMARK    3  A    between atoms: C_6  and  C_7
REMARK    4  A    between atoms: N_8  and  N_9
REMARK    5  A    between atoms: C_10  and  C_12
REMARK    6  A    between atoms: C_15  and  N_16
REMARK                            x       y       z     vdW  Elec       q    Type
REMARK                         _______ _______ _______ _____ _____    ______ ____
ROOT
ATOM      1  N   UNL     1       7.804   8.811  17.240  0.00  0.00    +0.000 N 
ATOM      2  C   UNL     1       8.599   9.424  18.213  0.00  0.00    +0.000 C 
ATOM      3  O   UNL     1       8.882   8.926  19.289  0.00  0.00    +0.000 OA
ATOM      4  H   UNL     1       7.607   9.237  16.347  0.00  0.00    +0.000 HD
ENDROOT
BRANCH   2   5
ATOM      5  C   UNL     1       9.094  10.805  17.926  0.00  0.00    +0.000 A 
ATOM      6  C   UNL     1      10.486  10.984  17.844  0.00  0.00    +0.000 A 
ATOM      7  C   UNL     1      11.037  12.252  17.670  0.00  0.00    +0.000 A 
ATOM      8  C   UNL     1      10.202  13.367  17.579  0.00  0.00    +0.000 A 
ATOM      9  C   UNL     1       8.807  13.200  17.640  0.00  0.00    +0.000 A 
ATOM     10  C   UNL     1       8.254  11.917  17.798  0.00  0.00    +0.000 A 
BRANCH   8  11
ATOM     11  N   UNL     1      10.777  14.648  17.439  0.00  0.00    +0.000 N 
ATOM     12  C   UNL     1      12.098  14.994  17.290  0.00  0.00    +0.000 A 
ATOM     13  N   UNL     1      12.206  16.302  17.272  0.00  0.00    +0.000 NA
ATOM     14  N   UNL     1      10.924  16.777  17.359  0.00  0.00    +0.000 NA
ATOM     15  N   UNL     1      10.047  15.784  17.421  0.00  0.00    +0.000 NA
ENDBRANCH   8  11
ENDBRANCH   2   5
BRANCH   1  17
ATOM     16  C   UNL     1       6.083   7.298  17.207  0.00  0.00    +0.000 C 
ATOM     17  N   UNL     1       7.312   7.564  17.524  0.00  0.00    +0.000 NA
BRANCH  16  21
ATOM     18  C   UNL     1       4.352   3.461  18.086  0.00  0.00    +0.000 A 
ATOM     19  C   UNL     1       4.328   3.967  16.783  0.00  0.00    +0.000 A 
ATOM     20  C   UNL     1       4.900   5.210  16.494  0.00  0.00    +0.000 A 
ATOM     21  C   UNL     1       5.490   5.968  17.511  0.00  0.00    +0.000 A 
ATOM     22  C   UNL     1       5.505   5.472  18.819  0.00  0.00    +0.000 A 
ATOM     23  C   UNL     1       4.932   4.225  19.105  0.00  0.00    +0.000 A 
BRANCH  18  25
ATOM     24  C   UNL     1       2.057   2.432  19.177  0.00  0.00    +0.000 C 
ATOM     25  S   UNL     1       3.630   1.875  18.464  0.00  0.00    +0.000 S 
ENDBRANCH  18  25
ENDBRANCH  16  21
ENDBRANCH   1  17
TORSDOF 5
ENDMDL
MODEL 3
REMARK VINA RESULT:      -7.1      7.477      8.982
REMARK  Name = 
REMARK  6 active torsions:
REMARK  status: ('A' for Active; 'I' for Inactive)
REMARK    1  A    between atoms: C_1  and  S_2
REMARK    2  A    between atoms: S_2  and  C_3
REMARK    3  A    between atoms: C_6  and  C_7
REMARK    4  A    between atoms: N_8  and  N_9
REMARK    5  A    between atoms: C_10  and  C_12
REMARK    6  A    between atoms: C_15  and  N_16
REMARK                            x       y       z     vdW  Elec       q    Type
REMARK                         _______ _______ _______ _____ _____    ______ ____
ROOT
ATOM      1  N   UNL     1       8.229   7.726  18.819  0.00  0.00    +0.000 N 
ATOM      2  C   UNL     1       7.541   7.222  17.711  0.00  0.00    +0.000 C 
ATOM      3  O   UNL     1       7.669   7.634  16.572  0.00  0.00    +0.000 OA
ATOM      4  H   UNL     1       8.122   7.348  19.748  0.00  0.00    +0.000 HD
ENDROOT
BRANCH   2   5
ATOM      5  C   UNL     1       6.547   6.133  17.958  0.00  0.00    +0.000 A 
ATOM      6  C   UNL     1       5.525   5.971  17.008  0.00  0.00    +0.000 A 
ATOM      7  C   UNL     1       4.504   5.042  17.204  0.00  0.00    +0.000 A 
ATOM      8  C   UNL     1       4.488   4.259  18.360  0.00  0.00    +0.000 A 
ATOM      9  C   UNL     1       5.516   4.398  19.310  0.00  0.00    +0.000 A 
ATOM     10  C   UNL     1       6.553   5.323  19.100  0.00  0.00    +0.000 A 
BRANCH   8  11
ATOM     11  N   UNL     1       3.428   3.348  18.561  0.00  0.00    +0.000 N 
ATOM     12  C   UNL     1       2.640   2.717  17.630  0.00  0.00    +0.000 A 
ATOM     13  N   UNL     1       1.721   2.011  18.246  0.00  0.00    +0.000 NA
ATOM     14  N   UNL     1       1.975   2.165  19.583  0.00  0.00    +0.000 NA
ATOM     15  N   UNL     1       3.031   2.941  19.786  0.00  0.00    +0.000 NA
ENDBRANCH   8  11
ENDBRANCH   2   5
BRANCH   1  17
ATOM     16  C   UNL     1       8.657   9.971  18.653  0.00  0.00    +0.000 C 
ATOM     17  N   UNL     1       9.106   8.756  18.600  0.00  0.00    +0.000 NA
BRANCH  16  21
ATOM     18  C   UNL     1      11.263  13.318  17.941  0.00  0.00    +0.000 A 
ATOM     19  C   UNL     1      11.724  12.198  18.639  0.00  0.00    +0.000 A 
ATOM     20  C   UNL     1      10.880  11.104  18.862  0.00  0.00    +0.000 A 
ATOM     21  C   UNL     1       9.559  11.127  18.401  0.00  0.00    +0.000 A 
ATOM     22  C   UNL     1       9.090  12.251  17.714  0.00  0.00    +0.000 A 
ATOM     23  C   UNL     1       9.939  13.345  17.490  0.00  0.00    +0.000 A 
BRANCH  18  25
ATOM     24  C   UNL     1      11.097  16.042  17.690  0.00  0.00    +0.000 C 
ATOM     25  S   UNL     1      12.332  14.715  17.647  0.00  0.00    +0.000 S 
ENDBRANCH  18  25
ENDBRANCH  16  21
ENDBRANCH   1  17
TORSDOF 5
ENDMDL
MODEL 4
REMARK VINA RESULT:      -7.1      0.303      1.029
REMARK  Name = 
REMARK  6 active torsions:
REMARK  status: ('A' for Active; 'I' for Inactive)
REMARK    1  A    between atoms: C_1  and  S_2
REMARK    2  A    between atoms: S_2  and  C_3
REMARK    3  A    between atoms: C_6  and  C_7
REMARK    4  A    between atoms: N_8  and  N_9
REMARK    5  A    between atoms: C_10  and  C_12
REMARK    6  A    between atoms: C_15  and  N_16
REMARK                            x       y       z     vdW  Elec       q    Type
REMARK                         _______ _______ _______ _____ _____    ______ ____
ROOT
ATOM      1  N   UNL     1       1.937   8.428  19.220  0.00  0.00    +0.000 N 
ATOM      2  C   UNL     1       2.281   7.084  19.385  0.00  0.00    +0.000 C 
ATOM      3  O   UNL     1       1.883   6.375  20.294  0.00  0.00    +0.000 OA
ATOM      4  H   UNL     1       2.261   8.984  18.443  0.00  0.00    +0.000 HD
ENDROOT
BRANCH   2   5
ATOM      5  C   UNL     1       3.240   6.494  18.402  0.00  0.00    +0.000 A 
ATOM      6  C   UNL     1       4.101   7.381  17.735  0.00  0.00    +0.000 A 
ATOM      7  C   UNL     1       4.963   6.930  16.737  0.00  0.00    +0.000 A 
ATOM      8  C   UNL     1       4.975   5.578  16.387  0.00  0.00    +0.000 A 
ATOM      9  C   UNL     1       4.132   4.676  17.060  0.00  0.00    +0.000 A 
ATOM     10  C   UNL     1       3.277   5.133  18.078  0.00  0.00    +0.000 A 
BRANCH   8  11
ATOM     11  N   UNL     1       5.828   5.143  15.350  0.00  0.00    +0.000 N 
ATOM     12  C   UNL     1       5.549   4.320  14.286  0.00  0.00    +0.000 A 
ATOM     13  N   UNL     1       6.648   4.109  13.600  0.00  0.00    +0.000 NA
ATOM     14  N   UNL     1       7.615   4.857  14.217  0.00  0.00    +0.000 NA
ATOM     15  N   UNL     1       7.122   5.519  15.256  0.00  0.00    +0.000 NA
ENDBRANCH   8  11
ENDBRANCH   2   5
BRANCH   1  17
ATOM     16  C   UNL     1       0.472  10.077  19.841  0.00  0.00    +0.000 C 
ATOM     17  N   UNL     1       1.094   8.982  20.147  0.00  0.00    +0.000 NA
BRANCH  16  21
ATOM     18  C   UNL     1      -2.148  11.990  22.666  0.00  0.00    +0.000 A 
ATOM     19  C   UNL     1      -2.185  12.343  21.314  0.00  0.00    +0.000 A 
ATOM     20  C   UNL     1      -1.341  11.714  20.392  0.00  0.00    +0.000 A 
ATOM     21  C   UNL     1      -0.438  10.734  20.818  0.00  0.00    +0.000 A 
ATOM     22  C   UNL     1      -0.388  10.385  22.172  0.00  0.00    +0.000 A 
ATOM     23  C   UNL     1      -1.237  11.017  23.093  0.00  0.00    +0.000 A 
BRANCH  18  25
ATOM     24  C   UNL     1      -3.340  14.422  23.083  0.00  0.00    +0.000 C 
ATOM     25  S   UNL     1      -3.224  12.781  23.847  0.00  0.00    +0.000 S 
ENDBRANCH  18  25
ENDBRANCH  16  21
ENDBRANCH   1  17
TORSDOF 5
ENDMDL
MODEL 5
REMARK VINA RESULT:      -7.1      1.371      2.076
REMARK  Name = 
REMARK  6 active torsions:
REMARK  status: ('A' for Active; 'I' for Inactive)
REMARK    1  A    between atoms: C_1  and  S_2
REMARK    2  A    between atoms: S_2  and  C_3
REMARK    3  A    between atoms: C_6  and  C_7
REMARK    4  A    between atoms: N_8  and  N_9
REMARK    5  A    between atoms: C_10  and  C_12
REMARK    6  A    between atoms: C_15  and  N_16
REMARK                            x       y       z     vdW  Elec       q    Type
REMARK                         _______ _______ _______ _____ _____    ______ ____
ROOT
ATOM      1  N   UNL     1       1.377   9.019  19.633  0.00  0.00    +0.000 N 
ATOM      2  C   UNL     1       1.784   7.728  19.982  0.00  0.00    +0.000 C 
ATOM      3  O   UNL     1       1.368   7.109  20.946  0.00  0.00    +0.000 OA
ATOM      4  H   UNL     1       1.720   9.499  18.814  0.00  0.00    +0.000 HD
ENDROOT
BRANCH   2   5
ATOM      5  C   UNL     1       2.838   7.088  19.136  0.00  0.00    +0.000 A 
ATOM      6  C   UNL     1       3.472   5.947  19.656  0.00  0.00    +0.000 A 
ATOM      7  C   UNL     1       4.527   5.341  18.977  0.00  0.00    +0.000 A 
ATOM      8  C   UNL     1       4.970   5.871  17.763  0.00  0.00    +0.000 A 
ATOM      9  C   UNL     1       4.331   7.002  17.223  0.00  0.00    +0.000 A 
ATOM     10  C   UNL     1       3.256   7.600  17.902  0.00  0.00    +0.000 A 
BRANCH   8  11
ATOM     11  N   UNL     1       6.063   5.267  17.105  0.00  0.00    +0.000 N 
ATOM     12  C   UNL     1       7.168   4.654  17.644  0.00  0.00    +0.000 A 
ATOM     13  N   UNL     1       7.980   4.295  16.679  0.00  0.00    +0.000 NA
ATOM     14  N   UNL     1       7.345   4.644  15.516  0.00  0.00    +0.000 NA
ATOM     15  N   UNL     1       6.165   5.198  15.760  0.00  0.00    +0.000 NA
ENDBRANCH   8  11
ENDBRANCH   2   5
BRANCH   1  17
ATOM     16  C   UNL     1      -0.171  10.672  19.985  0.00  0.00    +0.000 C 
ATOM     17  N   UNL     1       0.446   9.624  20.435  0.00  0.00    +0.000 NA
BRANCH  16  21
ATOM     18  C   UNL     1      -3.066  12.739  22.402  0.00  0.00    +0.000 A 
ATOM     19  C   UNL     1      -3.051  12.909  21.015  0.00  0.00    +0.000 A 
ATOM     20  C   UNL     1      -2.117  12.229  20.226  0.00  0.00    +0.000 A 
ATOM     21  C   UNL     1      -1.176  11.382  20.821  0.00  0.00    +0.000 A 
ATOM     22  C   UNL     1      -1.178  11.218  22.211  0.00  0.00    +0.000 A 
ATOM     23  C   UNL     1      -2.118  11.900  22.997  0.00  0.00    +0.000 A 
BRANCH  18  25
ATOM     24  C   UNL     1      -4.346  12.436  24.806  0.00  0.00    +0.000 C 
ATOM     25  S   UNL     1      -4.257  13.597  23.415  0.00  0.00    +0.000 S 
ENDBRANCH  18  25
ENDBRANCH  16  21
ENDBRANCH   1  17
TORSDOF 5
ENDMDL
MODEL 6
REMARK VINA RESULT:      -7.0      1.176      1.606
REMARK  Name = 
REMARK  6 active torsions:
REMARK  status: ('A' for Active; 'I' for Inactive)
REMARK    1  A    between atoms: C_1  and  S_2
REMARK    2  A    between atoms: S_2  and  C_3
REMARK    3  A    between atoms: C_6  and  C_7
REMARK    4  A    between atoms: N_8  and  N_9
REMARK    5  A    between atoms: C_10  and  C_12
REMARK    6  A    between atoms: C_15  and  N_16
REMARK                            x       y       z     vdW  Elec       q    Type
REMARK                         _______ _______ _______ _____ _____    ______ ____
ROOT
ATOM      1  N   UNL     1       1.506   9.086  19.815  0.00  0.00    +0.000 N 
ATOM      2  C   UNL     1       1.809   7.731  19.974  0.00  0.00    +0.000 C 
ATOM      3  O   UNL     1       1.321   7.010  20.827  0.00  0.00    +0.000 OA
ATOM      4  H   UNL     1       1.905   9.654  19.083  0.00  0.00    +0.000 HD
ENDROOT
BRANCH   2   5
ATOM      5  C   UNL     1       2.837   7.145  19.061  0.00  0.00    +0.000 A 
ATOM      6  C   UNL     1       3.542   6.022  19.526  0.00  0.00    +0.000 A 
ATOM      7  C   UNL     1       4.581   5.468  18.780  0.00  0.00    +0.000 A 
ATOM      8  C   UNL     1       4.935   6.033  17.553  0.00  0.00    +0.000 A 
ATOM      9  C   UNL     1       4.225   7.146  17.068  0.00  0.00    +0.000 A 
ATOM     10  C   UNL     1       3.167   7.691  17.815  0.00  0.00    +0.000 A 
BRANCH   8  11
ATOM     11  N   UNL     1       6.012   5.482  16.826  0.00  0.00    +0.000 N 
ATOM     12  C   UNL     1       6.992   4.618  17.251  0.00  0.00    +0.000 A 
ATOM     13  N   UNL     1       7.846   4.416  16.275  0.00  0.00    +0.000 NA
ATOM     14  N   UNL     1       7.359   5.125  15.208  0.00  0.00    +0.000 NA
ATOM     15  N   UNL     1       6.227   5.744  15.519  0.00  0.00    +0.000 NA
ENDBRANCH   8  11
ENDBRANCH   2   5
BRANCH   1  17
ATOM     16  C   UNL     1      -0.088  10.664  20.290  0.00  0.00    +0.000 C 
ATOM     17  N   UNL     1       0.597   9.634  20.682  0.00  0.00    +0.000 NA
BRANCH  16  21
ATOM     18  C   UNL     1      -2.942  12.526  22.914  0.00  0.00    +0.000 A 
ATOM     19  C   UNL     1      -2.012  11.611  23.414  0.00  0.00    +0.000 A 
ATOM     20  C   UNL     1      -1.076  11.012  22.564  0.00  0.00    +0.000 A 
ATOM     21  C   UNL     1      -1.072  11.313  21.198  0.00  0.00    +0.000 A 
ATOM     22  C   UNL     1      -2.008  12.219  20.689  0.00  0.00    +0.000 A 
ATOM     23  C   UNL     1      -2.943  12.818  21.545  0.00  0.00    +0.000 A 
BRANCH  18  25
ATOM     24  C   UNL     1      -3.104  14.634  24.658  0.00  0.00    +0.000 C 
ATOM     25  S   UNL     1      -4.135  13.299  23.990  0.00  0.00    +0.000 S 
ENDBRANCH  18  25
ENDBRANCH  16  21
ENDBRANCH   1  17
TORSDOF 5
ENDMDL
MODEL 7
REMARK VINA RESULT:      -7.0      7.135      9.939
REMARK  Name = 
REMARK  6 active torsions:
REMARK  status: ('A' for Active; 'I' for Inactive)
REMARK    1  A    between atoms: C_1  and  S_2
REMARK    2  A    between atoms: S_2  and  C_3
REMARK    3  A    between atoms: C_6  and  C_7
REMARK    4  A    between atoms: N_8  and  N_9
REMARK    5  A    between atoms: C_10  and  C_12
REMARK    6  A    between atoms: C_15  and  N_16
REMARK                            x       y       z     vdW  Elec       q    Type
REMARK                         _______ _______ _______ _____ _____    ______ ____
ROOT
ATOM      1  N   UNL     1       7.642   8.848  17.306  0.00  0.00    +0.000 N 
ATOM      2  C   UNL     1       8.548   9.244  18.294  0.00  0.00    +0.000 C 
ATOM      3  O   UNL     1       8.932   8.532  19.205  0.00  0.00    +0.000 OA
ATOM      4  H   UNL     1       7.360   9.451  16.548  0.00  0.00    +0.000 HD
ENDROOT
BRANCH   2   5
ATOM      5  C   UNL     1       9.038  10.656  18.250  0.00  0.00    +0.000 A 
ATOM      6  C   UNL     1       8.204  11.606  17.636  0.00  0.00    +0.000 A 
ATOM      7  C   UNL     1       8.620  12.925  17.470  0.00  0.00    +0.000 A 
ATOM      8  C   UNL     1       9.885  13.317  17.914  0.00  0.00    +0.000 A 
ATOM      9  C   UNL     1      10.722  12.381  18.547  0.00  0.00    +0.000 A 
ATOM     10  C   UNL     1      10.291  11.055  18.729  0.00  0.00    +0.000 A 
BRANCH   8  11
ATOM     11  N   UNL     1      10.306  14.648  17.706  0.00  0.00    +0.000 N 
ATOM     12  C   UNL     1      11.284  15.127  16.868  0.00  0.00    +0.000 A 
ATOM     13  N   UNL     1      11.405  16.422  17.037  0.00  0.00    +0.000 NA
ATOM     14  N   UNL     1      10.451  16.763  17.959  0.00  0.00    +0.000 NA
ATOM     15  N   UNL     1       9.752  15.702  18.342  0.00  0.00    +0.000 NA
ENDBRANCH   8  11
ENDBRANCH   2   5
BRANCH   1  17
ATOM     16  C   UNL     1       5.894   7.398  17.611  0.00  0.00    +0.000 C 
ATOM     17  N   UNL     1       7.157   7.568  17.373  0.00  0.00    +0.000 NA
BRANCH  16  21
ATOM     18  C   UNL     1       4.211   3.452  17.918  0.00  0.00    +0.000 A 
ATOM     19  C   UNL     1       4.222   4.124  16.693  0.00  0.00    +0.000 A 
ATOM     20  C   UNL     1       4.778   5.403  16.589  0.00  0.00    +0.000 A 
ATOM     21  C   UNL     1       5.317   6.031  17.718  0.00  0.00    +0.000 A 
ATOM     22  C   UNL     1       5.298   5.368  18.949  0.00  0.00    +0.000 A 
ATOM     23  C   UNL     1       4.740   4.085  19.049  0.00  0.00    +0.000 A 
BRANCH  18  25
ATOM     24  C   UNL     1       2.201   2.167  19.268  0.00  0.00    +0.000 C 
ATOM     25  S   UNL     1       3.509   1.819  18.060  0.00  0.00    +0.000 S 
ENDBRANCH  18  25
ENDBRANCH  16  21
ENDBRANCH   1  17
TORSDOF 5
ENDMDL
MODEL 8
REMARK VINA RESULT:      -6.9      1.004      1.420
REMARK  Name = 
REMARK  6 active torsions:
REMARK  status: ('A' for Active; 'I' for Inactive)
REMARK    1  A    between atoms: C_1  and  S_2
REMARK    2  A    between atoms: S_2  and  C_3
REMARK    3  A    between atoms: C_6  and  C_7
REMARK    4  A    between atoms: N_8  and  N_9
REMARK    5  A    between atoms: C_10  and  C_12
REMARK    6  A    between atoms: C_15  and  N_16
REMARK                            x       y       z     vdW  Elec       q    Type
REMARK                         _______ _______ _______ _____ _____    ______ ____
ROOT
ATOM      1  N   UNL     1       1.406   8.906  19.356  0.00  0.00    +0.000 N 
ATOM      2  C   UNL     1       1.891   7.658  19.757  0.00  0.00    +0.000 C 
ATOM      3  O   UNL     1       1.564   7.086  20.782  0.00  0.00    +0.000 OA
ATOM      4  H   UNL     1       1.675   9.345  18.488  0.00  0.00    +0.000 HD
ENDROOT
BRANCH   2   5
ATOM      5  C   UNL     1       2.916   7.007  18.885  0.00  0.00    +0.000 A 
ATOM      6  C   UNL     1       3.423   7.765  17.816  0.00  0.00    +0.000 A 
ATOM      7  C   UNL     1       4.313   7.207  16.900  0.00  0.00    +0.000 A 
ATOM      8  C   UNL     1       4.710   5.875  17.037  0.00  0.00    +0.000 A 
ATOM      9  C   UNL     1       4.224   5.111  18.114  0.00  0.00    +0.000 A 
ATOM     10  C   UNL     1       3.340   5.683  19.045  0.00  0.00    +0.000 A 
BRANCH   8  11
ATOM     11  N   UNL     1       5.583   5.315  16.081  0.00  0.00    +0.000 N 
ATOM     12  C   UNL     1       5.484   4.119  15.412  0.00  0.00    +0.000 A 
ATOM     13  N   UNL     1       6.551   3.948  14.667  0.00  0.00    +0.000 NA
ATOM     14  N   UNL     1       7.302   5.081  14.836  0.00  0.00    +0.000 NA
ATOM     15  N   UNL     1       6.707   5.934  15.660  0.00  0.00    +0.000 NA
ENDBRANCH   8  11
ENDBRANCH   2   5
BRANCH   1  17
ATOM     16  C   UNL     1      -0.007  10.655  19.799  0.00  0.00    +0.000 C 
ATOM     17  N   UNL     1       0.501   9.524  20.179  0.00  0.00    +0.000 NA
BRANCH  16  21
ATOM     18  C   UNL     1      -2.803  12.768  22.293  0.00  0.00    +0.000 A 
ATOM     19  C   UNL     1      -2.873  12.876  20.901  0.00  0.00    +0.000 A 
ATOM     20  C   UNL     1      -1.971  12.180  20.089  0.00  0.00    +0.000 A 
ATOM     21  C   UNL     1      -0.977  11.381  20.663  0.00  0.00    +0.000 A 
ATOM     22  C   UNL     1      -0.894  11.280  22.056  0.00  0.00    +0.000 A 
ATOM     23  C   UNL     1      -1.801  11.976  22.867  0.00  0.00    +0.000 A 
BRANCH  18  25
ATOM     24  C   UNL     1      -4.282  12.349  24.562  0.00  0.00    +0.000 C 
ATOM     25  S   UNL     1      -3.951  13.645  23.338  0.00  0.00    +0.000 S 
ENDBRANCH  18  25
ENDBRANCH  16  21
ENDBRANCH   1  17
TORSDOF 5
ENDMDL
MODEL 9
REMARK VINA RESULT:      -6.9      4.470     10.911
REMARK  Name = 
REMARK  6 active torsions:
REMARK  status: ('A' for Active; 'I' for Inactive)
REMARK    1  A    between atoms: C_1  and  S_2
REMARK    2  A    between atoms: S_2  and  C_3
REMARK    3  A    between atoms: C_6  and  C_7
REMARK    4  A    between atoms: N_8  and  N_9
REMARK    5  A    between atoms: C_10  and  C_12
REMARK    6  A    between atoms: C_15  and  N_16
REMARK                            x       y       z     vdW  Elec       q    Type
REMARK                         _______ _______ _______ _____ _____    ______ ____
ROOT
ATOM      1  N   UNL     1       1.337   8.584  19.713  0.00  0.00    +0.000 N 
ATOM      2  C   UNL     1       0.926   9.907  19.529  0.00  0.00    +0.000 C 
ATOM      3  O   UNL     1       1.299  10.627  18.619  0.00  0.00    +0.000 OA
ATOM      4  H   UNL     1       0.992   8.002  20.461  0.00  0.00    +0.000 HD
ENDROOT
BRANCH   2   5
ATOM      5  C   UNL     1      -0.000  10.486  20.550  0.00  0.00    +0.000 A 
ATOM      6  C   UNL     1      -0.862  11.512  20.125  0.00  0.00    +0.000 A 
ATOM      7  C   UNL     1      -1.693  12.170  21.029  0.00  0.00    +0.000 A 
ATOM      8  C   UNL     1      -1.673  11.815  22.380  0.00  0.00    +0.000 A 
ATOM      9  C   UNL     1      -0.828  10.778  22.814  0.00  0.00    +0.000 A 
ATOM     10  C   UNL     1      -0.004  10.105  21.896  0.00  0.00    +0.000 A 
BRANCH   8  11
ATOM     11  N   UNL     1      -2.493  12.517  23.289  0.00  0.00    +0.000 N 
ATOM     12  C   UNL     1      -2.405  13.822  23.708  0.00  0.00    +0.000 A 
ATOM     13  N   UNL     1      -3.322  14.049  24.619  0.00  0.00    +0.000 NA
ATOM     14  N   UNL     1      -4.027  12.880  24.729  0.00  0.00    +0.000 NA
ATOM     15  N   UNL     1      -3.559  11.956  23.900  0.00  0.00    +0.000 NA
ENDBRANCH   8  11
ENDBRANCH   2   5
BRANCH   1  17
ATOM     16  C   UNL     1       2.636   6.850  18.966  0.00  0.00    +0.000 C 
ATOM     17  N   UNL     1       2.222   8.068  18.803  0.00  0.00    +0.000 NA
BRANCH  16  21
ATOM     18  C   UNL     1       5.456   5.112  16.222  0.00  0.00    +0.000 A 
ATOM     19  C   UNL     1       5.565   6.455  16.593  0.00  0.00    +0.000 A 
ATOM     20  C   UNL     1       4.654   7.019  17.494  0.00  0.00    +0.000 A 
ATOM     21  C   UNL     1       3.615   6.246  18.022  0.00  0.00    +0.000 A 
ATOM     22  C   UNL     1       3.494   4.905  17.644  0.00  0.00    +0.000 A 
ATOM     23  C   UNL     1       4.410   4.343  16.743  0.00  0.00    +0.000 A 
BRANCH  18  25
ATOM     24  C   UNL     1       5.470   3.946  13.742  0.00  0.00    +0.000 C 
ATOM     25  S   UNL     1       6.615   4.383  15.080  0.00  0.00    +0.000 S 
ENDBRANCH  18  25
ENDBRANCH  16  21
ENDBRANCH   1  17
TORSDOF 5
ENDMDL
