MODEL 1
REMARK VINA RESULT:      -7.7      0.000      0.000
REMARK  Name = 
REMARK  6 active torsions:
REMARK  status: ('A' for Active; 'I' for Inactive)
REMARK    1  A    between atoms: C_1  and  C_2
REMARK    2  A    between atoms: C_2  and  C_3
REMARK    3  A    between atoms: C_4  and  C_5
REMARK    4  A    between atoms: N_7  and  C_8
REMARK    5  A    between atoms: C_8  and  C_9
REMARK    6  A    between atoms: C_8  and  C_15
REMARK                            x       y       z     vdW  Elec       q    Type
REMARK                         _______ _______ _______ _____ _____    ______ ____
ROOT
ATOM      1  C   UNL     1       3.183   6.177  18.623  0.00  0.00    +0.000 C 
ENDROOT
BRANCH   1   2
ATOM      2  C   UNL     1       4.167   5.801  17.511  0.00  0.00    +0.000 A 
ATOM      3  C   UNL     1       4.636   4.476  17.435  0.00  0.00    +0.000 A 
ATOM      4  C   UNL     1       5.468   4.067  16.390  0.00  0.00    +0.000 A 
ATOM      5  C   UNL     1       5.835   4.977  15.402  0.00  0.00    +0.000 A 
ATOM      6 CL   UNL     1       6.834   4.469  14.098  0.00  0.00    +0.000 Cl
ATOM      7  C   UNL     1       5.386   6.294  15.457  0.00  0.00    +0.000 A 
ATOM      8  C   UNL     1       4.561   6.705  16.509  0.00  0.00    +0.000 A 
ENDBRANCH   1   2
BRANCH   1   9
ATOM      9  C   UNL     1       2.338   5.005  19.112  0.00  0.00    +0.000 A 
ATOM     10  C   UNL     1       1.557   4.218  18.248  0.00  0.00    +0.000 A 
ATOM     11  C   UNL     1       0.830   3.128  18.731  0.00  0.00    +0.000 A 
ATOM     12  C   UNL     1       0.854   2.819  20.088  0.00  0.00    +0.000 A 
ATOM     13  C   UNL     1       1.597   3.605  20.965  0.00  0.00    +0.000 A 
ATOM     14  C   UNL     1       2.329   4.692  20.482  0.00  0.00    +0.000 A 
ENDBRANCH   1   9
BRANCH   1  17
ATOM     15  C   UNL     1       1.894   8.204  19.181  0.00  0.00    +0.000 C 
ATOM     16  O   UNL     1       2.118   8.104  20.380  0.00  0.00    +0.000 OA
ATOM     17  N   UNL     1       2.328   7.293  18.251  0.00  0.00    +0.000 N 
ATOM     18  H   UNL     1       2.063   7.377  17.282  0.00  0.00    +0.000 HD
BRANCH  15  22
ATOM     19  C   UNL     1      -0.500  11.194  18.520  0.00  0.00    +0.000 C 
ATOM     20  C   UNL     1       0.151  10.022  19.206  0.00  0.00    +0.000 C 
ATOM     21  C   UNL     1      -0.352   9.695  20.586  0.00  0.00    +0.000 C 
ATOM     22  C   UNL     1       1.135   9.342  18.581  0.00  0.00    +0.000 C 
ENDBRANCH  15  22
ENDBRANCH   1  17
TORSDOF 4
ENDMDL
MODEL 2
REMARK VINA RESULT:      -7.7      0.498      1.157
REMARK  Name = 
REMARK  6 active torsions:
REMARK  status: ('A' for Active; 'I' for Inactive)
REMARK    1  A    between atoms: C_1  and  C_2
REMARK    2  A    between atoms: C_2  and  C_3
REMARK    3  A    between atoms: C_4  and  C_5
REMARK    4  A    between atoms: N_7  and  C_8
REMARK    5  A    between atoms: C_8  and  C_9
REMARK    6  A    between atoms: C_8  and  C_15
REMARK                            x       y       z     vdW  Elec       q    Type
REMARK                         _______ _______ _______ _____ _____    ______ ____
ROOT
ATOM      1  C   UNL     1       3.187   6.309  18.917  0.00  0.00    +0.000 C 
ENDROOT
BRANCH   1   2
ATOM      2  C   UNL     1       4.288   6.011  17.894  0.00  0.00    +0.000 A 
ATOM      3  C   UNL     1       5.188   4.959  18.149  0.00  0.00    +0.000 A 
ATOM      4  C   UNL     1       6.155   4.596  17.208  0.00  0.00    +0.000 A 
ATOM      5  C   UNL     1       6.227   5.276  15.995  0.00  0.00    +0.000 A 
ATOM      6 CL   UNL     1       7.396   4.813  14.821  0.00  0.00    +0.000 Cl
ATOM      7  C   UNL     1       5.349   6.321  15.721  0.00  0.00    +0.000 A 
ATOM      8  C   UNL     1       4.388   6.690  16.667  0.00  0.00    +0.000 A 
ENDBRANCH   1   2
BRANCH   1   9
ATOM      9  C   UNL     1       2.349   5.088  19.285  0.00  0.00    +0.000 A 
ATOM     10  C   UNL     1       2.143   4.678  20.614  0.00  0.00    +0.000 A 
ATOM     11  C   UNL     1       1.335   3.579  20.909  0.00  0.00    +0.000 A 
ATOM     12  C   UNL     1       0.736   2.857  19.880  0.00  0.00    +0.000 A 
ATOM     13  C   UNL     1       0.951   3.229  18.555  0.00  0.00    +0.000 A 
ATOM     14  C   UNL     1       1.756   4.332  18.259  0.00  0.00    +0.000 A 
ENDBRANCH   1   9
BRANCH   1  17
ATOM     15  C   UNL     1       1.792   8.282  19.409  0.00  0.00    +0.000 C 
ATOM     16  O   UNL     1       1.929   8.167  20.620  0.00  0.00    +0.000 OA
ATOM     17  N   UNL     1       2.325   7.403  18.499  0.00  0.00    +0.000 N 
ATOM     18  H   UNL     1       2.132   7.497  17.515  0.00  0.00    +0.000 HD
BRANCH  15  22
ATOM     19  C   UNL     1      -0.567  11.278  18.653  0.00  0.00    +0.000 C 
ATOM     20  C   UNL     1       0.076  10.125  19.378  0.00  0.00    +0.000 C 
ATOM     21  C   UNL     1      -0.417   9.860  20.776  0.00  0.00    +0.000 C 
ATOM     22  C   UNL     1       1.043   9.406  18.772  0.00  0.00    +0.000 C 
ENDBRANCH  15  22
ENDBRANCH   1  17
TORSDOF 4
ENDMDL
MODEL 3
REMARK VINA RESULT:      -7.7      0.214      1.071
REMARK  Name = 
REMARK  6 active torsions:
REMARK  status: ('A' for Active; 'I' for Inactive)
REMARK    1  A    between atoms: C_1  and  C_2
REMARK    2  A    between atoms: C_2  and  C_3
REMARK    3  A    between atoms: C_4  and  C_5
REMARK    4  A    between atoms: N_7  and  C_8
REMARK    5  A    between atoms: C_8  and  C_9
REMARK    6  A    between atoms: C_8  and  C_15
REMARK                            x       y       z     vdW  Elec       q    Type
REMARK                         _______ _______ _______ _____ _____    ______ ____
ROOT
ATOM      1  C   UNL     1       3.185   6.127  18.600  0.00  0.00    +0.000 C 
ENDROOT
BRANCH   1   2
ATOM      2  C   UNL     1       4.057   5.674  17.425  0.00  0.00    +0.000 A 
ATOM      3  C   UNL     1       4.570   6.645  16.544  0.00  0.00    +0.000 A 
ATOM      4  C   UNL     1       5.438   6.290  15.508  0.00  0.00    +0.000 A 
ATOM      5  C   UNL     1       5.809   4.958  15.345  0.00  0.00    +0.000 A 
ATOM      6 CL   UNL     1       6.900   4.520  14.090  0.00  0.00    +0.000 Cl
ATOM      7  C   UNL     1       5.312   3.979  16.202  0.00  0.00    +0.000 A 
ATOM      8  C   UNL     1       4.437   4.334  17.233  0.00  0.00    +0.000 A 
ENDBRANCH   1   2
BRANCH   1   9
ATOM      9  C   UNL     1       2.391   4.994  19.242  0.00  0.00    +0.000 A 
ATOM     10  C   UNL     1       1.487   4.194  18.522  0.00  0.00    +0.000 A 
ATOM     11  C   UNL     1       0.810   3.141  19.139  0.00  0.00    +0.000 A 
ATOM     12  C   UNL     1       1.009   2.881  20.492  0.00  0.00    +0.000 A 
ATOM     13  C   UNL     1       1.878   3.680  21.232  0.00  0.00    +0.000 A 
ATOM     14  C   UNL     1       2.559   4.732  20.613  0.00  0.00    +0.000 A 
ENDBRANCH   1   9
BRANCH   1  17
ATOM     15  C   UNL     1       1.900   8.155  19.166  0.00  0.00    +0.000 C 
ATOM     16  O   UNL     1       2.186   8.091  20.355  0.00  0.00    +0.000 OA
ATOM     17  N   UNL     1       2.298   7.222  18.241  0.00  0.00    +0.000 N 
ATOM     18  H   UNL     1       1.983   7.276  17.285  0.00  0.00    +0.000 HD
BRANCH  15  22
ATOM     19  C   UNL     1      -0.565  11.095  18.544  0.00  0.00    +0.000 C 
ATOM     20  C   UNL     1       0.135   9.950  19.228  0.00  0.00    +0.000 C 
ATOM     21  C   UNL     1      -0.298   9.652  20.638  0.00  0.00    +0.000 C 
ATOM     22  C   UNL     1       1.097   9.266  18.574  0.00  0.00    +0.000 C 
ENDBRANCH  15  22
ENDBRANCH   1  17
TORSDOF 4
ENDMDL
MODEL 4
REMARK VINA RESULT:      -7.6      0.158      1.496
REMARK  Name = 
REMARK  6 active torsions:
REMARK  status: ('A' for Active; 'I' for Inactive)
REMARK    1  A    between atoms: C_1  and  C_2
REMARK    2  A    between atoms: C_2  and  C_3
REMARK    3  A    between atoms: C_4  and  C_5
REMARK    4  A    between atoms: N_7  and  C_8
REMARK    5  A    between atoms: C_8  and  C_9
REMARK    6  A    between atoms: C_8  and  C_15
REMARK                            x       y       z     vdW  Elec       q    Type
REMARK                         _______ _______ _______ _____ _____    ______ ____
ROOT
ATOM      1  C   UNL     1       3.211   6.137  18.584  0.00  0.00    +0.000 C 
ENDROOT
BRANCH   1   2
ATOM      2  C   UNL     1       4.158   5.742  17.446  0.00  0.00    +0.000 A 
ATOM      3  C   UNL     1       4.505   6.708  16.482  0.00  0.00    +0.000 A 
ATOM      4  C   UNL     1       5.430   6.419  15.476  0.00  0.00    +0.000 A 
ATOM      5  C   UNL     1       6.026   5.162  15.426  0.00  0.00    +0.000 A 
ATOM      6 CL   UNL     1       7.188   4.813  14.206  0.00  0.00    +0.000 Cl
ATOM      7  C   UNL     1       5.697   4.190  16.366  0.00  0.00    +0.000 A 
ATOM      8  C   UNL     1       4.765   4.476  17.368  0.00  0.00    +0.000 A 
ENDBRANCH   1   2
BRANCH   1   9
ATOM      9  C   UNL     1       2.374   4.976  19.111  0.00  0.00    +0.000 A 
ATOM     10  C   UNL     1       2.309   4.642  20.475  0.00  0.00    +0.000 A 
ATOM     11  C   UNL     1       1.498   3.597  20.920  0.00  0.00    +0.000 A 
ATOM     12  C   UNL     1       0.753   2.854  20.008  0.00  0.00    +0.000 A 
ATOM     13  C   UNL     1       0.826   3.149  18.649  0.00  0.00    +0.000 A 
ATOM     14  C   UNL     1       1.634   4.198  18.203  0.00  0.00    +0.000 A 
ENDBRANCH   1   9
BRANCH   1  17
ATOM     15  C   UNL     1       1.915   8.152  19.166  0.00  0.00    +0.000 C 
ATOM     16  O   UNL     1       2.139   8.039  20.364  0.00  0.00    +0.000 OA
ATOM     17  N   UNL     1       2.352   7.254  18.225  0.00  0.00    +0.000 N 
ATOM     18  H   UNL     1       2.087   7.349  17.257  0.00  0.00    +0.000 HD
BRANCH  15  22
ATOM     19  C   UNL     1      -0.467  11.162  18.551  0.00  0.00    +0.000 C 
ATOM     20  C   UNL     1       0.190   9.987  19.225  0.00  0.00    +0.000 C 
ATOM     21  C   UNL     1      -0.283   9.669  20.619  0.00  0.00    +0.000 C 
ATOM     22  C   UNL     1       1.152   9.294  18.580  0.00  0.00    +0.000 C 
ENDBRANCH  15  22
ENDBRANCH   1  17
TORSDOF 4
ENDMDL
MODEL 5
REMARK VINA RESULT:      -7.6      4.465      7.267
REMARK  Name = 
REMARK  6 active torsions:
REMARK  status: ('A' for Active; 'I' for Inactive)
REMARK    1  A    between atoms: C_1  and  C_2
REMARK    2  A    between atoms: C_2  and  C_3
REMARK    3  A    between atoms: C_4  and  C_5
REMARK    4  A    between atoms: N_7  and  C_8
REMARK    5  A    between atoms: C_8  and  C_9
REMARK    6  A    between atoms: C_8  and  C_15
REMARK                            x       y       z     vdW  Elec       q    Type
REMARK                         _______ _______ _______ _____ _____    ______ ____
ROOT
ATOM      1  C   UNL     1       5.315   4.035  16.767  0.00  0.00    +0.000 C 
ENDROOT
BRANCH   1   2
ATOM      2  C   UNL     1       4.199   3.690  17.757  0.00  0.00    +0.000 A 
ATOM      3  C   UNL     1       4.546   3.220  19.038  0.00  0.00    +0.000 A 
ATOM      4  C   UNL     1       3.567   2.973  20.003  0.00  0.00    +0.000 A 
ATOM      5  C   UNL     1       2.227   3.200  19.701  0.00  0.00    +0.000 A 
ATOM      6 CL   UNL     1       1.020   2.924  20.896  0.00  0.00    +0.000 Cl
ATOM      7  C   UNL     1       1.858   3.661  18.440  0.00  0.00    +0.000 A 
ATOM      8  C   UNL     1       2.838   3.900  17.472  0.00  0.00    +0.000 A 
ENDBRANCH   1   2
BRANCH   1   9
ATOM      9  C   UNL     1       6.183   5.208  17.210  0.00  0.00    +0.000 A 
ATOM     10  C   UNL     1       5.981   6.521  16.752  0.00  0.00    +0.000 A 
ATOM     11  C   UNL     1       6.773   7.573  17.214  0.00  0.00    +0.000 A 
ATOM     12  C   UNL     1       7.795   7.329  18.128  0.00  0.00    +0.000 A 
ATOM     13  C   UNL     1       8.032   6.030  18.572  0.00  0.00    +0.000 A 
ATOM     14  C   UNL     1       7.236   4.977  18.113  0.00  0.00    +0.000 A 
ENDBRANCH   1   9
BRANCH   1  17
ATOM     15  C   UNL     1       5.592   4.045  14.316  0.00  0.00    +0.000 C 
ATOM     16  O   UNL     1       6.773   3.729  14.376  0.00  0.00    +0.000 OA
ATOM     17  N   UNL     1       4.809   4.264  15.422  0.00  0.00    +0.000 N 
ATOM     18  H   UNL     1       3.860   4.590  15.328  0.00  0.00    +0.000 HD
BRANCH  15  22
ATOM     19  C   UNL     1       4.116   3.627  10.744  0.00  0.00    +0.000 C 
ATOM     20  C   UNL     1       4.962   3.389  11.967  0.00  0.00    +0.000 C 
ATOM     21  C   UNL     1       5.887   2.202  11.916  0.00  0.00    +0.000 C 
ATOM     22  C   UNL     1       4.853   4.214  13.029  0.00  0.00    +0.000 C 
ENDBRANCH  15  22
ENDBRANCH   1  17
TORSDOF 4
ENDMDL
MODEL 6
REMARK VINA RESULT:      -7.6      3.527      5.223
REMARK  Name = 
REMARK  6 active torsions:
REMARK  status: ('A' for Active; 'I' for Inactive)
REMARK    1  A    between atoms: C_1  and  C_2
REMARK    2  A    between atoms: C_2  and  C_3
REMARK    3  A    between atoms: C_4  and  C_5
REMARK    4  A    between atoms: N_7  and  C_8
REMARK    5  A    between atoms: C_8  and  C_9
REMARK    6  A    between atoms: C_8  and  C_15
REMARK                            x       y       z     vdW  Elec       q    Type
REMARK                         _______ _______ _______ _____ _____    ______ ____
ROOT
ATOM      1  C   UNL     1       6.299   6.165  17.248  0.00  0.00    +0.000 C 
ENDROOT
BRANCH   1   2
ATOM      2  C   UNL     1       6.269   5.433  15.903  0.00  0.00    +0.000 A 
ATOM      3  C   UNL     1       7.343   5.606  15.009  0.00  0.00    +0.000 A 
ATOM      4  C   UNL     1       7.400   4.894  13.808  0.00  0.00    +0.000 A 
ATOM      5  C   UNL     1       6.386   3.995  13.490  0.00  0.00    +0.000 A 
ATOM      6 CL   UNL     1       6.468   3.095  12.026  0.00  0.00    +0.000 Cl
ATOM      7  C   UNL     1       5.312   3.810  14.356  0.00  0.00    +0.000 A 
ATOM      8  C   UNL     1       5.251   4.528  15.554  0.00  0.00    +0.000 A 
ENDBRANCH   1   2
BRANCH   1   9
ATOM      9  C   UNL     1       4.964   6.143  17.985  0.00  0.00    +0.000 A 
ATOM     10  C   UNL     1       4.708   5.288  19.071  0.00  0.00    +0.000 A 
ATOM     11  C   UNL     1       3.485   5.328  19.743  0.00  0.00    +0.000 A 
ATOM     12  C   UNL     1       2.490   6.210  19.331  0.00  0.00    +0.000 A 
ATOM     13  C   UNL     1       2.713   7.045  18.238  0.00  0.00    +0.000 A 
ATOM     14  C   UNL     1       3.938   7.008  17.568  0.00  0.00    +0.000 A 
ENDBRANCH   1   9
BRANCH   1  17
ATOM     15  C   UNL     1       7.850   7.984  17.857  0.00  0.00    +0.000 C 
ATOM     16  O   UNL     1       8.413   7.315  18.714  0.00  0.00    +0.000 OA
ATOM     17  N   UNL     1       6.782   7.532  17.123  0.00  0.00    +0.000 N 
ATOM     18  H   UNL     1       6.305   8.139  16.476  0.00  0.00    +0.000 HD
BRANCH  15  22
ATOM     19  C   UNL     1       9.302  11.590  17.836  0.00  0.00    +0.000 C 
ATOM     20  C   UNL     1       8.867  10.238  18.336  0.00  0.00    +0.000 C 
ATOM     21  C   UNL     1       9.150   9.942  19.785  0.00  0.00    +0.000 C 
ATOM     22  C   UNL     1       8.270   9.370  17.493  0.00  0.00    +0.000 C 
ENDBRANCH  15  22
ENDBRANCH   1  17
TORSDOF 4
ENDMDL
MODEL 7
REMARK VINA RESULT:      -7.6      3.527      5.088
REMARK  Name = 
REMARK  6 active torsions:
REMARK  status: ('A' for Active; 'I' for Inactive)
REMARK    1  A    between atoms: C_1  and  C_2
REMARK    2  A    between atoms: C_2  and  C_3
REMARK    3  A    between atoms: C_4  and  C_5
REMARK    4  A    between atoms: N_7  and  C_8
REMARK    5  A    between atoms: C_8  and  C_9
REMARK    6  A    between atoms: C_8  and  C_15
REMARK                            x       y       z     vdW  Elec       q    Type
REMARK                         _______ _______ _______ _____ _____    ______ ____
ROOT
ATOM      1  C   UNL     1       6.322   6.142  17.357  0.00  0.00    +0.000 C 
ENDROOT
BRANCH   1   2
ATOM      2  C   UNL     1       6.363   5.352  16.046  0.00  0.00    +0.000 A 
ATOM      3  C   UNL     1       5.303   4.477  15.744  0.00  0.00    +0.000 A 
ATOM      4  C   UNL     1       5.255   3.799  14.524  0.00  0.00    +0.000 A 
ATOM      5  C   UNL     1       6.264   3.994  13.585  0.00  0.00    +0.000 A 
ATOM      6 CL   UNL     1       6.193   3.184  12.069  0.00  0.00    +0.000 Cl
ATOM      7  C   UNL     1       7.325   4.852  13.862  0.00  0.00    +0.000 A 
ATOM      8  C   UNL     1       7.377   5.524  15.087  0.00  0.00    +0.000 A 
ENDBRANCH   1   2
BRANCH   1   9
ATOM      9  C   UNL     1       4.954   6.134  18.032  0.00  0.00    +0.000 A 
ATOM     10  C   UNL     1       3.887   6.938  17.598  0.00  0.00    +0.000 A 
ATOM     11  C   UNL     1       2.638   6.870  18.219  0.00  0.00    +0.000 A 
ATOM     12  C   UNL     1       2.441   6.012  19.297  0.00  0.00    +0.000 A 
ATOM     13  C   UNL     1       3.494   5.228  19.762  0.00  0.00    +0.000 A 
ATOM     14  C   UNL     1       4.743   5.292  19.138  0.00  0.00    +0.000 A 
ENDBRANCH   1   9
BRANCH   1  17
ATOM     15  C   UNL     1       7.858   7.990  17.915  0.00  0.00    +0.000 C 
ATOM     16  O   UNL     1       8.426   7.350  18.790  0.00  0.00    +0.000 OA
ATOM     17  N   UNL     1       6.794   7.508  17.194  0.00  0.00    +0.000 N 
ATOM     18  H   UNL     1       6.312   8.094  16.530  0.00  0.00    +0.000 HD
BRANCH  15  22
ATOM     19  C   UNL     1       9.297  11.598  17.786  0.00  0.00    +0.000 C 
ATOM     20  C   UNL     1       8.876  10.257  18.325  0.00  0.00    +0.000 C 
ATOM     21  C   UNL     1       9.186   9.995  19.774  0.00  0.00    +0.000 C 
ATOM     22  C   UNL     1       8.267   9.368  17.512  0.00  0.00    +0.000 C 
ENDBRANCH  15  22
ENDBRANCH   1  17
TORSDOF 4
ENDMDL
MODEL 8
REMARK VINA RESULT:      -7.5      3.544      5.202
REMARK  Name = 
REMARK  6 active torsions:
REMARK  status: ('A' for Active; 'I' for Inactive)
REMARK    1  A    between atoms: C_1  and  C_2
REMARK    2  A    between atoms: C_2  and  C_3
REMARK    3  A    between atoms: C_4  and  C_5
REMARK    4  A    between atoms: N_7  and  C_8
REMARK    5  A    between atoms: C_8  and  C_9
REMARK    6  A    between atoms: C_8  and  C_15
REMARK                            x       y       z     vdW  Elec       q    Type
REMARK                         _______ _______ _______ _____ _____    ______ ____
ROOT
ATOM      1  C   UNL     1       6.396   6.110  17.289  0.00  0.00    +0.000 C 
ENDROOT
BRANCH   1   2
ATOM      2  C   UNL     1       6.415   5.328  15.972  0.00  0.00    +0.000 A 
ATOM      3  C   UNL     1       5.381   4.409  15.710  0.00  0.00    +0.000 A 
ATOM      4  C   UNL     1       5.310   3.735  14.489  0.00  0.00    +0.000 A 
ATOM      5  C   UNL     1       6.269   3.978  13.509  0.00  0.00    +0.000 A 
ATOM      6 CL   UNL     1       6.168   3.172  11.993  0.00  0.00    +0.000 Cl
ATOM      7  C   UNL     1       7.303   4.880  13.746  0.00  0.00    +0.000 A 
ATOM      8  C   UNL     1       7.379   5.547  14.972  0.00  0.00    +0.000 A 
ENDBRANCH   1   2
BRANCH   1   9
ATOM      9  C   UNL     1       5.036   6.110  17.979  0.00  0.00    +0.000 A 
ATOM     10  C   UNL     1       4.744   5.294  19.086  0.00  0.00    +0.000 A 
ATOM     11  C   UNL     1       3.498   5.355  19.713  0.00  0.00    +0.000 A 
ATOM     12  C   UNL     1       2.516   6.216  19.234  0.00  0.00    +0.000 A 
ATOM     13  C   UNL     1       2.775   7.012  18.120  0.00  0.00    +0.000 A 
ATOM     14  C   UNL     1       4.022   6.955  17.494  0.00  0.00    +0.000 A 
ENDBRANCH   1   9
BRANCH   1  17
ATOM     15  C   UNL     1       7.914   7.959  17.888  0.00  0.00    +0.000 C 
ATOM     16  O   UNL     1       8.442   7.328  18.794  0.00  0.00    +0.000 OA
ATOM     17  N   UNL     1       6.879   7.473  17.129  0.00  0.00    +0.000 N 
ATOM     18  H   UNL     1       6.428   8.052  16.438  0.00  0.00    +0.000 HD
BRANCH  15  22
ATOM     19  C   UNL     1       9.350  11.570  17.784  0.00  0.00    +0.000 C 
ATOM     20  C   UNL     1       8.898  10.237  18.320  0.00  0.00    +0.000 C 
ATOM     21  C   UNL     1       9.117  10.003  19.790  0.00  0.00    +0.000 C 
ATOM     22  C   UNL     1       8.344   9.332  17.487  0.00  0.00    +0.000 C 
ENDBRANCH  15  22
ENDBRANCH   1  17
TORSDOF 4
ENDMDL
MODEL 9
REMARK VINA RESULT:      -7.5      4.331      7.294
REMARK  Name = 
REMARK  6 active torsions:
REMARK  status: ('A' for Active; 'I' for Inactive)
REMARK    1  A    between atoms: C_1  and  C_2
REMARK    2  A    between atoms: C_2  and  C_3
REMARK    3  A    between atoms: C_4  and  C_5
REMARK    4  A    between atoms: N_7  and  C_8
REMARK    5  A    between atoms: C_8  and  C_9
REMARK    6  A    between atoms: C_8  and  C_15
REMARK                            x       y       z     vdW  Elec       q    Type
REMARK                         _______ _______ _______ _____ _____    ______ ____
ROOT
ATOM      1  C   UNL     1       5.362   4.100  16.969  0.00  0.00    +0.000 C 
ENDROOT
BRANCH   1   2
ATOM      2  C   UNL     1       4.251   3.761  17.968  0.00  0.00    +0.000 A 
ATOM      3  C   UNL     1       4.572   3.007  19.113  0.00  0.00    +0.000 A 
ATOM      4  C   UNL     1       3.612   2.744  20.093  0.00  0.00    +0.000 A 
ATOM      5  C   UNL     1       2.320   3.240  19.944  0.00  0.00    +0.000 A 
ATOM      6 CL   UNL     1       1.142   2.944  21.164  0.00  0.00    +0.000 Cl
ATOM      7  C   UNL     1       1.977   3.985  18.819  0.00  0.00    +0.000 A 
ATOM      8  C   UNL     1       2.936   4.240  17.834  0.00  0.00    +0.000 A 
ENDBRANCH   1   2
BRANCH   1   9
ATOM      9  C   UNL     1       6.215   5.293  17.387  0.00  0.00    +0.000 A 
ATOM     10  C   UNL     1       7.272   5.188  18.308  0.00  0.00    +0.000 A 
ATOM     11  C   UNL     1       8.054   6.297  18.632  0.00  0.00    +0.000 A 
ATOM     12  C   UNL     1       7.781   7.536  18.059  0.00  0.00    +0.000 A 
ATOM     13  C   UNL     1       6.719   7.669  17.168  0.00  0.00    +0.000 A 
ATOM     14  C   UNL     1       5.939   6.558  16.838  0.00  0.00    +0.000 A 
ENDBRANCH   1   9
BRANCH   1  17
ATOM     15  C   UNL     1       5.642   4.085  14.519  0.00  0.00    +0.000 C 
ATOM     16  O   UNL     1       6.832   3.806  14.584  0.00  0.00    +0.000 OA
ATOM     17  N   UNL     1       4.851   4.295  15.621  0.00  0.00    +0.000 N 
ATOM     18  H   UNL     1       3.893   4.589  15.521  0.00  0.00    +0.000 HD
BRANCH  15  22
ATOM     19  C   UNL     1       4.252   3.622  10.918  0.00  0.00    +0.000 C 
ATOM     20  C   UNL     1       5.108   3.438  12.144  0.00  0.00    +0.000 C 
ATOM     21  C   UNL     1       6.156   2.361  12.069  0.00  0.00    +0.000 C 
ATOM     22  C   UNL     1       4.901   4.213  13.229  0.00  0.00    +0.000 C 
ENDBRANCH  15  22
ENDBRANCH   1  17
TORSDOF 4
ENDMDL
