MODEL 1
REMARK VINA RESULT:      -8.4      0.000      0.000
REMARK  Name = 
REMARK  7 active torsions:
REMARK  status: ('A' for Active; 'I' for Inactive)
REMARK    1  A    between atoms: C_2  and  C_24
REMARK    2  A    between atoms: N_3  and  C_4
REMARK    3  A    between atoms: C_7  and  C_8
REMARK    4  A    between atoms: C_8  and  O_10
REMARK    5  A    between atoms: O_10  and  C_11
REMARK    6  A    between atoms: C_11  and  C_12
REMARK    7  A    between atoms: C_27  and  N_28
REMARK                            x       y       z     vdW  Elec       q    Type
REMARK                         _______ _______ _______ _____ _____    ______ ____
ROOT
ATOM      1  C   UNL     1       0.768   8.888  21.432  0.00  0.00    +0.000 A 
ATOM      2  C   UNL     1       0.012   9.073  22.586  0.00  0.00    +0.000 A 
ATOM      3  C   UNL     1      -0.533  10.317  22.901  0.00  0.00    +0.000 A 
ATOM      4  C   UNL     1      -0.329  11.412  22.058  0.00  0.00    +0.000 A 
ATOM      5  C   UNL     1       0.408  11.234  20.879  0.00  0.00    +0.000 A 
ATOM      6  C   UNL     1       0.971   9.981  20.580  0.00  0.00    +0.000 A 
ENDROOT
BRANCH   1   9
ATOM      7  O   UNL     1       2.252   8.100  19.014  0.00  0.00    +0.000 OA
ATOM      8  C   UNL     1       2.003   7.341  19.933  0.00  0.00    +0.000 C 
ATOM      9  N   UNL     1       1.327   7.629  21.118  0.00  0.00    +0.000 N 
ATOM     10  H   UNL     1       1.365   6.958  21.872  0.00  0.00    +0.000 HD
BRANCH   8  11
ATOM     11  C   UNL     1       2.550   5.961  19.838  0.00  0.00    +0.000 A 
ATOM     12  C   UNL     1       3.606   5.706  18.952  0.00  0.00    +0.000 A 
ATOM     13  C   UNL     1       4.176   4.430  18.900  0.00  0.00    +0.000 A 
ATOM     14  C   UNL     1       3.666   3.412  19.720  0.00  0.00    +0.000 A 
ATOM     15  C   UNL     1       2.591   3.664  20.584  0.00  0.00    +0.000 A 
ATOM     16  C   UNL     1       2.030   4.938  20.635  0.00  0.00    +0.000 A 
BRANCH  14  17
ATOM     17  N   UNL     1       4.271   2.078  19.691  0.00  0.00    +0.000 N 
ATOM     18  O   UNL     1       5.126   1.812  20.546  0.00  0.00    +0.000 OA
ATOM     19  O   UNL     1       3.883   1.289  18.814  0.00  0.00    +0.000 OA
ENDBRANCH  14  17
ENDBRANCH   8  11
ENDBRANCH   1   9
BRANCH   4  20
ATOM     20  C   UNL     1      -0.924  12.717  22.459  0.00  0.00    +0.000 C 
ATOM     21  O   UNL     1      -1.165  13.008  23.616  0.00  0.00    +0.000 OA
BRANCH  20  22
ATOM     22  O   UNL     1      -1.226  13.473  21.367  0.00  0.00    +0.000 OA
BRANCH  22  23
ATOM     23  C   UNL     1      -2.629  13.547  21.051  0.00  0.00    +0.000 C 
BRANCH  23  24
ATOM     24  C   UNL     1      -3.105  12.392  20.151  0.00  0.00    +0.000 C 
ATOM     25  C   UNL     1      -2.219  12.320  18.900  0.00  0.00    +0.000 C 
ATOM     26  C   UNL     1      -2.681  11.201  17.982  0.00  0.00    +0.000 C 
ATOM     27  C   UNL     1      -4.152  11.365  17.620  0.00  0.00    +0.000 C 
ATOM     28  N   UNL     1      -5.001  11.433  18.819  0.00  0.00    +0.000 NA
ATOM     29  C   UNL     1      -6.412  11.537  18.403  0.00  0.00    +0.000 C 
ATOM     30  C   UNL     1      -7.358  11.555  19.598  0.00  0.00    +0.000 C 
ATOM     31  C   UNL     1      -6.998  12.687  20.546  0.00  0.00    +0.000 C 
ATOM     32  C   UNL     1      -5.533  12.578  20.952  0.00  0.00    +0.000 C 
ATOM     33  C   UNL     1      -4.600  12.540  19.724  0.00  0.00    +0.000 C 
ENDBRANCH  23  24
ENDBRANCH  22  23
ENDBRANCH  20  22
ENDBRANCH   4  20
TORSDOF 7
ENDMDL
MODEL 2
REMARK VINA RESULT:      -8.3      2.845      3.896
REMARK  Name = 
REMARK  7 active torsions:
REMARK  status: ('A' for Active; 'I' for Inactive)
REMARK    1  A    between atoms: C_2  and  C_24
REMARK    2  A    between atoms: N_3  and  C_4
REMARK    3  A    between atoms: C_7  and  C_8
REMARK    4  A    between atoms: C_8  and  O_10
REMARK    5  A    between atoms: O_10  and  C_11
REMARK    6  A    between atoms: C_11  and  C_12
REMARK    7  A    between atoms: C_27  and  N_28
REMARK                            x       y       z     vdW  Elec       q    Type
REMARK                         _______ _______ _______ _____ _____    ______ ____
ROOT
ATOM      1  C   UNL     1       1.299   9.736  18.116  0.00  0.00    +0.000 A 
ATOM      2  C   UNL     1      -0.060   9.532  17.897  0.00  0.00    +0.000 A 
ATOM      3  C   UNL     1      -1.008  10.469  18.307  0.00  0.00    +0.000 A 
ATOM      4  C   UNL     1      -0.608  11.642  18.953  0.00  0.00    +0.000 A 
ATOM      5  C   UNL     1       0.759  11.872  19.157  0.00  0.00    +0.000 A 
ATOM      6  C   UNL     1       1.706  10.913  18.758  0.00  0.00    +0.000 A 
ENDROOT
BRANCH   1   9
ATOM      7  O   UNL     1       2.107   7.257  19.484  0.00  0.00    +0.000 OA
ATOM      8  C   UNL     1       2.588   7.638  18.432  0.00  0.00    +0.000 C 
ATOM      9  N   UNL     1       2.257   8.782  17.707  0.00  0.00    +0.000 N 
ATOM     10  H   UNL     1       2.596   8.869  16.759  0.00  0.00    +0.000 HD
BRANCH   8  11
ATOM     11  C   UNL     1       3.591   6.749  17.785  0.00  0.00    +0.000 A 
ATOM     12  C   UNL     1       4.566   7.315  16.953  0.00  0.00    +0.000 A 
ATOM     13  C   UNL     1       5.556   6.501  16.391  0.00  0.00    +0.000 A 
ATOM     14  C   UNL     1       5.546   5.123  16.651  0.00  0.00    +0.000 A 
ATOM     15  C   UNL     1       4.553   4.557  17.463  0.00  0.00    +0.000 A 
ATOM     16  C   UNL     1       3.572   5.372  18.022  0.00  0.00    +0.000 A 
BRANCH  14  17
ATOM     17  N   UNL     1       6.593   4.265  16.088  0.00  0.00    +0.000 N 
ATOM     18  O   UNL     1       7.727   4.337  16.581  0.00  0.00    +0.000 OA
ATOM     19  O   UNL     1       6.277   3.511  15.154  0.00  0.00    +0.000 OA
ENDBRANCH  14  17
ENDBRANCH   8  11
ENDBRANCH   1   9
BRANCH   4  20
ATOM     20  C   UNL     1      -1.669  12.595  19.381  0.00  0.00    +0.000 C 
ATOM     21  O   UNL     1      -1.431  13.731  19.748  0.00  0.00    +0.000 OA
BRANCH  20  22
ATOM     22  O   UNL     1      -2.892  11.996  19.381  0.00  0.00    +0.000 OA
BRANCH  22  23
ATOM     23  C   UNL     1      -4.000  12.880  19.640  0.00  0.00    +0.000 C 
BRANCH  23  24
ATOM     24  C   UNL     1      -5.071  12.250  20.549  0.00  0.00    +0.000 C 
ATOM     25  C   UNL     1      -6.462  12.504  19.952  0.00  0.00    +0.000 C 
ATOM     26  C   UNL     1      -7.542  11.911  20.841  0.00  0.00    +0.000 C 
ATOM     27  C   UNL     1      -7.434  12.450  22.262  0.00  0.00    +0.000 C 
ATOM     28  N   UNL     1      -6.101  12.205  22.835  0.00  0.00    +0.000 NA
ATOM     29  C   UNL     1      -6.078  12.699  24.224  0.00  0.00    +0.000 C 
ATOM     30  C   UNL     1      -4.740  12.426  24.902  0.00  0.00    +0.000 C 
ATOM     31  C   UNL     1      -3.602  13.037  24.101  0.00  0.00    +0.000 C 
ATOM     32  C   UNL     1      -3.650  12.533  22.664  0.00  0.00    +0.000 C 
ATOM     33  C   UNL     1      -5.021  12.802  22.009  0.00  0.00    +0.000 C 
ENDBRANCH  23  24
ENDBRANCH  22  23
ENDBRANCH  20  22
ENDBRANCH   4  20
TORSDOF 7
ENDMDL
MODEL 3
REMARK VINA RESULT:      -8.2      2.556      3.509
REMARK  Name = 
REMARK  7 active torsions:
REMARK  status: ('A' for Active; 'I' for Inactive)
REMARK    1  A    between atoms: C_2  and  C_24
REMARK    2  A    between atoms: N_3  and  C_4
REMARK    3  A    between atoms: C_7  and  C_8
REMARK    4  A    between atoms: C_8  and  O_10
REMARK    5  A    between atoms: O_10  and  C_11
REMARK    6  A    between atoms: C_11  and  C_12
REMARK    7  A    between atoms: C_27  and  N_28
REMARK                            x       y       z     vdW  Elec       q    Type
REMARK                         _______ _______ _______ _____ _____    ______ ____
ROOT
ATOM      1  C   UNL     1       1.808   8.627  19.446  0.00  0.00    +0.000 A 
ATOM      2  C   UNL     1       1.597   8.190  20.750  0.00  0.00    +0.000 A 
ATOM      3  C   UNL     1       0.763   8.890  21.622  0.00  0.00    +0.000 A 
ATOM      4  C   UNL     1       0.119  10.056  21.199  0.00  0.00    +0.000 A 
ATOM      5  C   UNL     1       0.302  10.493  19.880  0.00  0.00    +0.000 A 
ATOM      6  C   UNL     1       1.160   9.792  19.014  0.00  0.00    +0.000 A 
ENDROOT
BRANCH   1   9
ATOM      7  O   UNL     1       2.202   5.717  19.231  0.00  0.00    +0.000 OA
ATOM      8  C   UNL     1       2.793   6.533  18.547  0.00  0.00    +0.000 C 
ATOM      9  N   UNL     1       2.659   7.920  18.566  0.00  0.00    +0.000 N 
ATOM     10  H   UNL     1       3.064   8.457  17.812  0.00  0.00    +0.000 HD
BRANCH   8  11
ATOM     11  C   UNL     1       3.711   6.002  17.502  0.00  0.00    +0.000 A 
ATOM     12  C   UNL     1       4.401   6.904  16.680  0.00  0.00    +0.000 A 
ATOM     13  C   UNL     1       5.318   6.423  15.739  0.00  0.00    +0.000 A 
ATOM     14  C   UNL     1       5.518   5.040  15.615  0.00  0.00    +0.000 A 
ATOM     15  C   UNL     1       4.806   4.141  16.421  0.00  0.00    +0.000 A 
ATOM     16  C   UNL     1       3.897   4.625  17.359  0.00  0.00    +0.000 A 
BRANCH  14  17
ATOM     17  N   UNL     1       6.494   4.527  14.650  0.00  0.00    +0.000 N 
ATOM     18  O   UNL     1       6.148   3.589  13.919  0.00  0.00    +0.000 OA
ATOM     19  O   UNL     1       7.610   5.071  14.617  0.00  0.00    +0.000 OA
ENDBRANCH  14  17
ENDBRANCH   8  11
ENDBRANCH   1   9
BRANCH   4  20
ATOM     20  C   UNL     1      -0.745  10.766  22.182  0.00  0.00    +0.000 C 
ATOM     21  O   UNL     1      -0.437  10.912  23.351  0.00  0.00    +0.000 OA
BRANCH  20  22
ATOM     22  O   UNL     1      -1.925  11.139  21.616  0.00  0.00    +0.000 OA
BRANCH  22  23
ATOM     23  C   UNL     1      -1.975  12.505  21.160  0.00  0.00    +0.000 C 
BRANCH  23  24
ATOM     24  C   UNL     1      -3.279  12.844  20.417  0.00  0.00    +0.000 C 
ATOM     25  C   UNL     1      -4.451  12.837  21.409  0.00  0.00    +0.000 C 
ATOM     26  C   UNL     1      -5.756  13.147  20.697  0.00  0.00    +0.000 C 
ATOM     27  C   UNL     1      -5.991  12.179  19.545  0.00  0.00    +0.000 C 
ATOM     28  N   UNL     1      -4.870  12.187  18.592  0.00  0.00    +0.000 NA
ATOM     29  C   UNL     1      -5.182  11.274  17.478  0.00  0.00    +0.000 C 
ATOM     30  C   UNL     1      -4.084  11.273  16.419  0.00  0.00    +0.000 C 
ATOM     31  C   UNL     1      -2.744  10.916  17.041  0.00  0.00    +0.000 C 
ATOM     32  C   UNL     1      -2.445  11.855  18.204  0.00  0.00    +0.000 C 
ATOM     33  C   UNL     1      -3.580  11.852  19.249  0.00  0.00    +0.000 C 
ENDBRANCH  23  24
ENDBRANCH  22  23
ENDBRANCH  20  22
ENDBRANCH   4  20
TORSDOF 7
ENDMDL
MODEL 4
REMARK VINA RESULT:      -8.1      0.997      2.329
REMARK  Name = 
REMARK  7 active torsions:
REMARK  status: ('A' for Active; 'I' for Inactive)
REMARK    1  A    between atoms: C_2  and  C_24
REMARK    2  A    between atoms: N_3  and  C_4
REMARK    3  A    between atoms: C_7  and  C_8
REMARK    4  A    between atoms: C_8  and  O_10
REMARK    5  A    between atoms: O_10  and  C_11
REMARK    6  A    between atoms: C_11  and  C_12
REMARK    7  A    between atoms: C_27  and  N_28
REMARK                            x       y       z     vdW  Elec       q    Type
REMARK                         _______ _______ _______ _____ _____    ______ ____
ROOT
ATOM      1  C   UNL     1       0.658   9.011  21.588  0.00  0.00    +0.000 A 
ATOM      2  C   UNL     1      -0.042   9.196  22.776  0.00  0.00    +0.000 A 
ATOM      3  C   UNL     1      -0.639  10.420  23.081  0.00  0.00    +0.000 A 
ATOM      4  C   UNL     1      -0.544  11.493  22.192  0.00  0.00    +0.000 A 
ATOM      5  C   UNL     1       0.136  11.313  20.980  0.00  0.00    +0.000 A 
ATOM      6  C   UNL     1       0.752  10.082  20.690  0.00  0.00    +0.000 A 
ENDROOT
BRANCH   1   9
ATOM      7  O   UNL     1       2.022   8.209  19.104  0.00  0.00    +0.000 OA
ATOM      8  C   UNL     1       1.880   7.476  20.067  0.00  0.00    +0.000 C 
ATOM      9  N   UNL     1       1.269   7.774  21.284  0.00  0.00    +0.000 N 
ATOM     10  H   UNL     1       1.397   7.138  22.058  0.00  0.00    +0.000 HD
BRANCH   8  11
ATOM     11  C   UNL     1       2.501   6.126  19.986  0.00  0.00    +0.000 A 
ATOM     12  C   UNL     1       1.916   5.065  20.689  0.00  0.00    +0.000 A 
ATOM     13  C   UNL     1       2.448   3.776  20.569  0.00  0.00    +0.000 A 
ATOM     14  C   UNL     1       3.577   3.568  19.764  0.00  0.00    +0.000 A 
ATOM     15  C   UNL     1       4.175   4.638  19.083  0.00  0.00    +0.000 A 
ATOM     16  C   UNL     1       3.640   5.917  19.203  0.00  0.00    +0.000 A 
BRANCH  14  17
ATOM     17  N   UNL     1       4.128   2.218  19.612  0.00  0.00    +0.000 N 
ATOM     18  O   UNL     1       3.664   1.502  18.714  0.00  0.00    +0.000 OA
ATOM     19  O   UNL     1       5.034   1.876  20.388  0.00  0.00    +0.000 OA
ENDBRANCH  14  17
ENDBRANCH   8  11
ENDBRANCH   1   9
BRANCH   4  20
ATOM     20  C   UNL     1      -1.189  12.777  22.583  0.00  0.00    +0.000 C 
ATOM     21  O   UNL     1      -0.856  13.413  23.566  0.00  0.00    +0.000 OA
BRANCH  20  22
ATOM     22  O   UNL     1      -2.226  13.075  21.753  0.00  0.00    +0.000 OA
BRANCH  22  23
ATOM     23  C   UNL     1      -3.497  12.525  22.149  0.00  0.00    +0.000 C 
BRANCH  23  24
ATOM     24  C   UNL     1      -4.694  13.276  21.539  0.00  0.00    +0.000 C 
ATOM     25  C   UNL     1      -5.684  13.650  22.651  0.00  0.00    +0.000 C 
ATOM     26  C   UNL     1      -6.888  14.374  22.073  0.00  0.00    +0.000 C 
ATOM     27  C   UNL     1      -7.554  13.541  20.985  0.00  0.00    +0.000 C 
ATOM     28  N   UNL     1      -6.606  13.184  19.918  0.00  0.00    +0.000 NA
ATOM     29  C   UNL     1      -7.321  12.428  18.874  0.00  0.00    +0.000 C 
ATOM     30  C   UNL     1      -6.410  12.071  17.705  0.00  0.00    +0.000 C 
ATOM     31  C   UNL     1      -5.199  11.292  18.191  0.00  0.00    +0.000 C 
ATOM     32  C   UNL     1      -4.481  12.076  19.284  0.00  0.00    +0.000 C 
ATOM     33  C   UNL     1      -5.431  12.442  20.443  0.00  0.00    +0.000 C 
ENDBRANCH  23  24
ENDBRANCH  22  23
ENDBRANCH  20  22
ENDBRANCH   4  20
TORSDOF 7
ENDMDL
MODEL 5
REMARK VINA RESULT:      -8.0      1.731      2.877
REMARK  Name = 
REMARK  7 active torsions:
REMARK  status: ('A' for Active; 'I' for Inactive)
REMARK    1  A    between atoms: C_2  and  C_24
REMARK    2  A    between atoms: N_3  and  C_4
REMARK    3  A    between atoms: C_7  and  C_8
REMARK    4  A    between atoms: C_8  and  O_10
REMARK    5  A    between atoms: O_10  and  C_11
REMARK    6  A    between atoms: C_11  and  C_12
REMARK    7  A    between atoms: C_27  and  N_28
REMARK                            x       y       z     vdW  Elec       q    Type
REMARK                         _______ _______ _______ _____ _____    ______ ____
ROOT
ATOM      1  C   UNL     1       0.403   9.579  21.255  0.00  0.00    +0.000 A 
ATOM      2  C   UNL     1      -0.099  10.643  20.511  0.00  0.00    +0.000 A 
ATOM      3  C   UNL     1      -0.902  11.621  21.098  0.00  0.00    +0.000 A 
ATOM      4  C   UNL     1      -1.222  11.550  22.456  0.00  0.00    +0.000 A 
ATOM      5  C   UNL     1      -0.702  10.498  23.222  0.00  0.00    +0.000 A 
ATOM      6  C   UNL     1       0.090   9.506  22.618  0.00  0.00    +0.000 A 
ENDROOT
BRANCH   1   9
ATOM      7  O   UNL     1       1.343   9.422  18.468  0.00  0.00    +0.000 OA
ATOM      8  C   UNL     1       1.595   8.585  19.317  0.00  0.00    +0.000 C 
ATOM      9  N   UNL     1       1.210   8.585  20.657  0.00  0.00    +0.000 N 
ATOM     10  H   UNL     1       1.652   7.932  21.287  0.00  0.00    +0.000 HD
BRANCH   8  11
ATOM     11  C   UNL     1       2.487   7.463  18.917  0.00  0.00    +0.000 A 
ATOM     12  C   UNL     1       3.238   7.577  17.739  0.00  0.00    +0.000 A 
ATOM     13  C   UNL     1       4.132   6.561  17.385  0.00  0.00    +0.000 A 
ATOM     14  C   UNL     1       4.247   5.427  18.202  0.00  0.00    +0.000 A 
ATOM     15  C   UNL     1       3.474   5.305  19.366  0.00  0.00    +0.000 A 
ATOM     16  C   UNL     1       2.589   6.322  19.716  0.00  0.00    +0.000 A 
BRANCH  14  17
ATOM     17  N   UNL     1       5.198   4.369  17.854  0.00  0.00    +0.000 N 
ATOM     18  O   UNL     1       6.122   4.136  18.646  0.00  0.00    +0.000 OA
ATOM     19  O   UNL     1       5.016   3.761  16.787  0.00  0.00    +0.000 OA
ENDBRANCH  14  17
ENDBRANCH   8  11
ENDBRANCH   1   9
BRANCH   4  20
ATOM     20  C   UNL     1      -2.097  12.616  23.019  0.00  0.00    +0.000 C 
ATOM     21  O   UNL     1      -1.682  13.494  23.753  0.00  0.00    +0.000 OA
BRANCH  20  22
ATOM     22  O   UNL     1      -3.398  12.414  22.672  0.00  0.00    +0.000 OA
BRANCH  22  23
ATOM     23  C   UNL     1      -4.148  13.615  22.408  0.00  0.00    +0.000 C 
BRANCH  23  24
ATOM     24  C   UNL     1      -5.610  13.336  22.016  0.00  0.00    +0.000 C 
ATOM     25  C   UNL     1      -6.397  12.893  23.258  0.00  0.00    +0.000 C 
ATOM     26  C   UNL     1      -7.841  12.589  22.895  0.00  0.00    +0.000 C 
ATOM     27  C   UNL     1      -7.916  11.551  21.783  0.00  0.00    +0.000 C 
ATOM     28  N   UNL     1      -7.164  11.977  20.592  0.00  0.00    +0.000 NA
ATOM     29  C   UNL     1      -7.321  10.959  19.537  0.00  0.00    +0.000 C 
ATOM     30  C   UNL     1      -6.611  11.362  18.248  0.00  0.00    +0.000 C 
ATOM     31  C   UNL     1      -5.139  11.632  18.513  0.00  0.00    +0.000 C 
ATOM     32  C   UNL     1      -4.992  12.671  19.619  0.00  0.00    +0.000 C 
ATOM     33  C   UNL     1      -5.737  12.248  20.903  0.00  0.00    +0.000 C 
ENDBRANCH  23  24
ENDBRANCH  22  23
ENDBRANCH  20  22
ENDBRANCH   4  20
TORSDOF 7
ENDMDL
MODEL 6
REMARK VINA RESULT:      -8.0      2.571      3.457
REMARK  Name = 
REMARK  7 active torsions:
REMARK  status: ('A' for Active; 'I' for Inactive)
REMARK    1  A    between atoms: C_2  and  C_24
REMARK    2  A    between atoms: N_3  and  C_4
REMARK    3  A    between atoms: C_7  and  C_8
REMARK    4  A    between atoms: C_8  and  O_10
REMARK    5  A    between atoms: O_10  and  C_11
REMARK    6  A    between atoms: C_11  and  C_12
REMARK    7  A    between atoms: C_27  and  N_28
REMARK                            x       y       z     vdW  Elec       q    Type
REMARK                         _______ _______ _______ _____ _____    ______ ____
ROOT
ATOM      1  C   UNL     1       1.584   8.773  19.579  0.00  0.00    +0.000 A 
ATOM      2  C   UNL     1       1.506   8.533  20.947  0.00  0.00    +0.000 A 
ATOM      3  C   UNL     1       0.650   9.272  21.764  0.00  0.00    +0.000 A 
ATOM      4  C   UNL     1      -0.153  10.277  21.219  0.00  0.00    +0.000 A 
ATOM      5  C   UNL     1      -0.103  10.513  19.839  0.00  0.00    +0.000 A 
ATOM      6  C   UNL     1       0.777   9.777  19.026  0.00  0.00    +0.000 A 
ENDROOT
BRANCH   1   9
ATOM      7  O   UNL     1       2.067   5.868  19.581  0.00  0.00    +0.000 OA
ATOM      8  C   UNL     1       2.634   6.649  18.838  0.00  0.00    +0.000 C 
ATOM      9  N   UNL     1       2.457   8.029  18.754  0.00  0.00    +0.000 N 
ATOM     10  H   UNL     1       2.848   8.520  17.962  0.00  0.00    +0.000 HD
BRANCH   8  11
ATOM     11  C   UNL     1       3.569   6.070  17.836  0.00  0.00    +0.000 A 
ATOM     12  C   UNL     1       4.439   6.924  17.143  0.00  0.00    +0.000 A 
ATOM     13  C   UNL     1       5.370   6.387  16.248  0.00  0.00    +0.000 A 
ATOM     14  C   UNL     1       5.405   5.001  16.036  0.00  0.00    +0.000 A 
ATOM     15  C   UNL     1       4.515   4.154  16.710  0.00  0.00    +0.000 A 
ATOM     16  C   UNL     1       3.593   4.692  17.604  0.00  0.00    +0.000 A 
BRANCH  14  17
ATOM     17  N   UNL     1       6.393   4.427  15.118  0.00  0.00    +0.000 N 
ATOM     18  O   UNL     1       5.986   3.658  14.237  0.00  0.00    +0.000 OA
ATOM     19  O   UNL     1       7.581   4.753  15.275  0.00  0.00    +0.000 OA
ENDBRANCH  14  17
ENDBRANCH   8  11
ENDBRANCH   1   9
BRANCH   4  20
ATOM     20  C   UNL     1      -1.033  11.041  22.146  0.00  0.00    +0.000 C 
ATOM     21  O   UNL     1      -0.854  11.077  23.350  0.00  0.00    +0.000 OA
BRANCH  20  22
ATOM     22  O   UNL     1      -2.079  11.600  21.477  0.00  0.00    +0.000 OA
BRANCH  22  23
ATOM     23  C   UNL     1      -2.209  13.025  21.639  0.00  0.00    +0.000 C 
BRANCH  23  24
ATOM     24  C   UNL     1      -3.619  13.453  22.084  0.00  0.00    +0.000 C 
ATOM     25  C   UNL     1      -3.741  13.311  23.608  0.00  0.00    +0.000 C 
ATOM     26  C   UNL     1      -5.132  13.706  24.072  0.00  0.00    +0.000 C 
ATOM     27  C   UNL     1      -6.199  12.897  23.346  0.00  0.00    +0.000 C 
ATOM     28  N   UNL     1      -6.085  13.035  21.886  0.00  0.00    +0.000 NA
ATOM     29  C   UNL     1      -7.173  12.275  21.245  0.00  0.00    +0.000 C 
ATOM     30  C   UNL     1      -7.151  12.419  19.727  0.00  0.00    +0.000 C 
ATOM     31  C   UNL     1      -5.803  11.989  19.171  0.00  0.00    +0.000 C 
ATOM     32  C   UNL     1      -4.686  12.768  19.856  0.00  0.00    +0.000 C 
ATOM     33  C   UNL     1      -4.746  12.622  21.391  0.00  0.00    +0.000 C 
ENDBRANCH  23  24
ENDBRANCH  22  23
ENDBRANCH  20  22
ENDBRANCH   4  20
TORSDOF 7
ENDMDL
MODEL 7
REMARK VINA RESULT:      -8.0      1.793      2.998
REMARK  Name = 
REMARK  7 active torsions:
REMARK  status: ('A' for Active; 'I' for Inactive)
REMARK    1  A    between atoms: C_2  and  C_24
REMARK    2  A    between atoms: N_3  and  C_4
REMARK    3  A    between atoms: C_7  and  C_8
REMARK    4  A    between atoms: C_8  and  O_10
REMARK    5  A    between atoms: O_10  and  C_11
REMARK    6  A    between atoms: C_11  and  C_12
REMARK    7  A    between atoms: C_27  and  N_28
REMARK                            x       y       z     vdW  Elec       q    Type
REMARK                         _______ _______ _______ _____ _____    ______ ____
ROOT
ATOM      1  C   UNL     1       0.339  10.209  19.952  0.00  0.00    +0.000 A 
ATOM      2  C   UNL     1       0.671  11.162  20.911  0.00  0.00    +0.000 A 
ATOM      3  C   UNL     1      -0.140  12.274  21.137  0.00  0.00    +0.000 A 
ATOM      4  C   UNL     1      -1.312  12.455  20.399  0.00  0.00    +0.000 A 
ATOM      5  C   UNL     1      -1.671  11.490  19.448  0.00  0.00    +0.000 A 
ATOM      6  C   UNL     1      -0.837  10.383  19.212  0.00  0.00    +0.000 A 
ENDROOT
BRANCH   1   9
ATOM      7  O   UNL     1       1.836   9.520  17.512  0.00  0.00    +0.000 OA
ATOM      8  C   UNL     1       1.826   8.833  18.518  0.00  0.00    +0.000 C 
ATOM      9  N   UNL     1       1.166   9.088  19.719  0.00  0.00    +0.000 N 
ATOM     10  H   UNL     1       1.405   8.534  20.529  0.00  0.00    +0.000 HD
BRANCH   8  11
ATOM     11  C   UNL     1       2.683   7.616  18.514  0.00  0.00    +0.000 A 
ATOM     12  C   UNL     1       3.628   7.452  17.492  0.00  0.00    +0.000 A 
ATOM     13  C   UNL     1       4.486   6.347  17.512  0.00  0.00    +0.000 A 
ATOM     14  C   UNL     1       4.374   5.404  18.544  0.00  0.00    +0.000 A 
ATOM     15  C   UNL     1       3.409   5.559  19.549  0.00  0.00    +0.000 A 
ATOM     16  C   UNL     1       2.560   6.662  19.527  0.00  0.00    +0.000 A 
BRANCH  14  17
ATOM     17  N   UNL     1       5.284   4.257  18.588  0.00  0.00    +0.000 N 
ATOM     18  O   UNL     1       5.086   3.393  19.453  0.00  0.00    +0.000 OA
ATOM     19  O   UNL     1       6.198   4.215  17.748  0.00  0.00    +0.000 OA
ENDBRANCH  14  17
ENDBRANCH   8  11
ENDBRANCH   1   9
BRANCH   4  20
ATOM     20  C   UNL     1      -2.126  13.671  20.676  0.00  0.00    +0.000 C 
ATOM     21  O   UNL     1      -1.782  14.789  20.341  0.00  0.00    +0.000 OA
BRANCH  20  22
ATOM     22  O   UNL     1      -3.230  13.362  21.411  0.00  0.00    +0.000 OA
BRANCH  22  23
ATOM     23  C   UNL     1      -4.264  14.365  21.402  0.00  0.00    +0.000 C 
BRANCH  23  24
ATOM     24  C   UNL     1      -5.682  13.767  21.398  0.00  0.00    +0.000 C 
ATOM     25  C   UNL     1      -6.171  13.599  22.843  0.00  0.00    +0.000 C 
ATOM     26  C   UNL     1      -7.562  12.989  22.869  0.00  0.00    +0.000 C 
ATOM     27  C   UNL     1      -7.592  11.668  22.111  0.00  0.00    +0.000 C 
ATOM     28  N   UNL     1      -7.125  11.829  20.725  0.00  0.00    +0.000 NA
ATOM     29  C   UNL     1      -7.229  10.532  20.031  0.00  0.00    +0.000 C 
ATOM     30  C   UNL     1      -6.813  10.636  18.567  0.00  0.00    +0.000 C 
ATOM     31  C   UNL     1      -5.403  11.190  18.452  0.00  0.00    +0.000 C 
ATOM     32  C   UNL     1      -5.305  12.520  19.190  0.00  0.00    +0.000 C 
ATOM     33  C   UNL     1      -5.752  12.391  20.662  0.00  0.00    +0.000 C 
ENDBRANCH  23  24
ENDBRANCH  22  23
ENDBRANCH  20  22
ENDBRANCH   4  20
TORSDOF 7
ENDMDL
MODEL 8
REMARK VINA RESULT:      -8.0      3.829     11.013
REMARK  Name = 
REMARK  7 active torsions:
REMARK  status: ('A' for Active; 'I' for Inactive)
REMARK    1  A    between atoms: C_2  and  C_24
REMARK    2  A    between atoms: N_3  and  C_4
REMARK    3  A    between atoms: C_7  and  C_8
REMARK    4  A    between atoms: C_8  and  O_10
REMARK    5  A    between atoms: O_10  and  C_11
REMARK    6  A    between atoms: C_11  and  C_12
REMARK    7  A    between atoms: C_27  and  N_28
REMARK                            x       y       z     vdW  Elec       q    Type
REMARK                         _______ _______ _______ _____ _____    ______ ____
ROOT
ATOM      1  C   UNL     1       1.952   8.497  19.130  0.00  0.00    +0.000 A 
ATOM      2  C   UNL     1       2.329   7.699  18.055  0.00  0.00    +0.000 A 
ATOM      3  C   UNL     1       2.469   6.318  18.193  0.00  0.00    +0.000 A 
ATOM      4  C   UNL     1       2.230   5.704  19.426  0.00  0.00    +0.000 A 
ATOM      5  C   UNL     1       1.825   6.493  20.510  0.00  0.00    +0.000 A 
ATOM      6  C   UNL     1       1.707   7.887  20.367  0.00  0.00    +0.000 A 
ENDROOT
BRANCH   1   9
ATOM      7  O   UNL     1      -0.517  10.102  19.087  0.00  0.00    +0.000 OA
ATOM      8  C   UNL     1       0.600  10.573  18.964  0.00  0.00    +0.000 C 
ATOM      9  N   UNL     1       1.819   9.897  18.990  0.00  0.00    +0.000 N 
ATOM     10  H   UNL     1       2.669  10.436  19.073  0.00  0.00    +0.000 HD
BRANCH   8  11
ATOM     11  C   UNL     1       0.701  12.054  18.857  0.00  0.00    +0.000 A 
ATOM     12  C   UNL     1      -0.435  12.790  18.495  0.00  0.00    +0.000 A 
ATOM     13  C   UNL     1      -0.373  14.187  18.456  0.00  0.00    +0.000 A 
ATOM     14  C   UNL     1       0.834  14.833  18.758  0.00  0.00    +0.000 A 
ATOM     15  C   UNL     1       1.976  14.092  19.093  0.00  0.00    +0.000 A 
ATOM     16  C   UNL     1       1.908  12.702  19.134  0.00  0.00    +0.000 A 
BRANCH  14  17
ATOM     17  N   UNL     1       0.903  16.297  18.744  0.00  0.00    +0.000 N 
ATOM     18  O   UNL     1      -0.148  16.924  18.555  0.00  0.00    +0.000 OA
ATOM     19  O   UNL     1       2.012  16.822  18.932  0.00  0.00    +0.000 OA
ENDBRANCH  14  17
ENDBRANCH   8  11
ENDBRANCH   1   9
BRANCH   4  20
ATOM     20  C   UNL     1       2.412   4.229  19.512  0.00  0.00    +0.000 C 
ATOM     21  O   UNL     1       1.481   3.444  19.499  0.00  0.00    +0.000 OA
BRANCH  20  22
ATOM     22  O   UNL     1       3.724   3.908  19.689  0.00  0.00    +0.000 OA
BRANCH  22  23
ATOM     23  C   UNL     1       4.377   3.364  18.526  0.00  0.00    +0.000 C 
BRANCH  23  24
ATOM     24  C   UNL     1       5.731   4.033  18.229  0.00  0.00    +0.000 C 
ATOM     25  C   UNL     1       5.981   5.155  19.246  0.00  0.00    +0.000 C 
ATOM     26  C   UNL     1       7.303   5.848  18.963  0.00  0.00    +0.000 C 
ATOM     27  C   UNL     1       7.349   6.368  17.531  0.00  0.00    +0.000 C 
ATOM     28  N   UNL     1       7.111   5.293  16.556  0.00  0.00    +0.000 NA
ATOM     29  C   UNL     1       7.222   5.847  15.195  0.00  0.00    +0.000 C 
ATOM     30  C   UNL     1       7.042   4.773  14.127  0.00  0.00    +0.000 C 
ATOM     31  C   UNL     1       5.711   4.062  14.305  0.00  0.00    +0.000 C 
ATOM     32  C   UNL     1       5.601   3.512  15.723  0.00  0.00    +0.000 C 
ATOM     33  C   UNL     1       5.809   4.615  16.782  0.00  0.00    +0.000 C 
ENDBRANCH  23  24
ENDBRANCH  22  23
ENDBRANCH  20  22
ENDBRANCH   4  20
TORSDOF 7
ENDMDL
MODEL 9
REMARK VINA RESULT:      -8.0      3.566     11.018
REMARK  Name = 
REMARK  7 active torsions:
REMARK  status: ('A' for Active; 'I' for Inactive)
REMARK    1  A    between atoms: C_2  and  C_24
REMARK    2  A    between atoms: N_3  and  C_4
REMARK    3  A    between atoms: C_7  and  C_8
REMARK    4  A    between atoms: C_8  and  O_10
REMARK    5  A    between atoms: O_10  and  C_11
REMARK    6  A    between atoms: C_11  and  C_12
REMARK    7  A    between atoms: C_27  and  N_28
REMARK                            x       y       z     vdW  Elec       q    Type
REMARK                         _______ _______ _______ _____ _____    ______ ____
ROOT
ATOM      1  C   UNL     1       1.788   8.737  19.273  0.00  0.00    +0.000 A 
ATOM      2  C   UNL     1       2.250   7.994  18.191  0.00  0.00    +0.000 A 
ATOM      3  C   UNL     1       2.480   6.623  18.301  0.00  0.00    +0.000 A 
ATOM      4  C   UNL     1       2.249   5.962  19.510  0.00  0.00    +0.000 A 
ATOM      5  C   UNL     1       1.758   6.693  20.600  0.00  0.00    +0.000 A 
ATOM      6  C   UNL     1       1.549   8.079  20.487  0.00  0.00    +0.000 A 
ENDROOT
BRANCH   1   9
ATOM      7  O   UNL     1      -0.740  10.211  19.608  0.00  0.00    +0.000 OA
ATOM      8  C   UNL     1       0.320  10.739  19.323  0.00  0.00    +0.000 C 
ATOM      9  N   UNL     1       1.563  10.128  19.163  0.00  0.00    +0.000 N 
ATOM     10  H   UNL     1       2.387  10.710  19.121  0.00  0.00    +0.000 HD
BRANCH   8  11
ATOM     11  C   UNL     1       0.328  12.223  19.211  0.00  0.00    +0.000 A 
ATOM     12  C   UNL     1       1.507  12.870  18.820  0.00  0.00    +0.000 A 
ATOM     13  C   UNL     1       1.512  14.258  18.644  0.00  0.00    +0.000 A 
ATOM     14  C   UNL     1       0.339  14.988  18.885  0.00  0.00    +0.000 A 
ATOM     15  C   UNL     1      -0.832  14.340  19.302  0.00  0.00    +0.000 A 
ATOM     16  C   UNL     1      -0.832  12.957  19.472  0.00  0.00    +0.000 A 
BRANCH  14  17
ATOM     17  N   UNL     1       0.326  16.439  18.680  0.00  0.00    +0.000 N 
ATOM     18  O   UNL     1       1.312  17.086  19.059  0.00  0.00    +0.000 OA
ATOM     19  O   UNL     1      -0.671  16.933  18.131  0.00  0.00    +0.000 OA
ENDBRANCH  14  17
ENDBRANCH   8  11
ENDBRANCH   1   9
BRANCH   4  20
ATOM     20  C   UNL     1       2.529   4.501  19.567  0.00  0.00    +0.000 C 
ATOM     21  O   UNL     1       1.654   3.656  19.515  0.00  0.00    +0.000 OA
BRANCH  20  22
ATOM     22  O   UNL     1       3.855   4.265  19.766  0.00  0.00    +0.000 OA
BRANCH  22  23
ATOM     23  C   UNL     1       4.512   3.555  18.699  0.00  0.00    +0.000 C 
BRANCH  23  24
ATOM     24  C   UNL     1       5.857   4.186  18.296  0.00  0.00    +0.000 C 
ATOM     25  C   UNL     1       6.186   5.343  19.250  0.00  0.00    +0.000 C 
ATOM     26  C   UNL     1       7.500   5.999  18.861  0.00  0.00    +0.000 C 
ATOM     27  C   UNL     1       7.470   6.459  17.409  0.00  0.00    +0.000 C 
ATOM     28  N   UNL     1       7.158   5.349  16.495  0.00  0.00    +0.000 NA
ATOM     29  C   UNL     1       7.199   5.845  15.108  0.00  0.00    +0.000 C 
ATOM     30  C   UNL     1       6.938   4.732  14.098  0.00  0.00    +0.000 C 
ATOM     31  C   UNL     1       5.608   4.055  14.383  0.00  0.00    +0.000 C 
ATOM     32  C   UNL     1       5.573   3.565  15.826  0.00  0.00    +0.000 C 
ATOM     33  C   UNL     1       5.860   4.706  16.824  0.00  0.00    +0.000 C 
ENDBRANCH  23  24
ENDBRANCH  22  23
ENDBRANCH  20  22
ENDBRANCH   4  20
TORSDOF 7
ENDMDL
