MODEL 1
REMARK VINA RESULT:      -7.5      0.000      0.000
REMARK  Name = 
REMARK  8 active torsions:
REMARK  status: ('A' for Active; 'I' for Inactive)
REMARK    1  A    between atoms: C_1  and  C_2
REMARK    2  A    between atoms: C_2  and  C_3
REMARK    3  A    between atoms: C_2  and  C_4
REMARK    4  A    between atoms: C_9  and  N_10
REMARK    5  A    between atoms: N_10  and  C_11
REMARK    6  A    between atoms: C_11  and  N_13
REMARK    7  A    between atoms: C_14  and  C_16
REMARK    8  A    between atoms: N_19  and  C_20
REMARK                            x       y       z     vdW  Elec       q    Type
REMARK                         _______ _______ _______ _____ _____    ______ ____
ROOT
ATOM      1  C   UNL     1       6.216   6.796  16.980  0.00  0.00    +0.000 C 
ATOM      2  S   UNL     1       7.581   7.400  17.730  0.00  0.00    +0.000 S 
ENDROOT
BRANCH   1   3
ATOM      3  N   UNL     1       6.426   6.243  15.719  0.00  0.00    +0.000 N 
ATOM      4  C   UNL     1       7.032   5.036  15.414  0.00  0.00    +0.000 C 
ATOM      5  O   UNL     1       7.784   4.465  16.199  0.00  0.00    +0.000 OA
ATOM      6  H   UNL     1       5.970   6.747  14.972  0.00  0.00    +0.000 HD
BRANCH   4   7
ATOM      7  C   UNL     1       6.756   4.478  14.108  0.00  0.00    +0.000 A 
ATOM      8  C   UNL     1       7.500   4.745  12.935  0.00  0.00    +0.000 A 
ATOM      9  N   UNL     1       7.074   4.051  11.881  0.00  0.00    +0.000 NA
ATOM     10  N   UNL     1       6.064   3.316  12.372  0.00  0.00    +0.000 N 
ATOM     11  C   UNL     1       5.391   2.375  11.509  0.00  0.00    +0.000 C 
ATOM     12  C   UNL     1       5.818   3.546  13.700  0.00  0.00    +0.000 A 
ENDBRANCH   4   7
ENDBRANCH   1   3
BRANCH   1  13
ATOM     13  N   UNL     1       4.888   6.846  17.362  0.00  0.00    +0.000 N 
ATOM     14  H   UNL     1       4.608   7.767  17.688  0.00  0.00    +0.000 HD
BRANCH  13  20
ATOM     15  C   UNL     1       2.688   6.189  18.218  0.00  0.00    +0.000 A 
ATOM     16  C   UNL     1       1.728   5.177  18.428  0.00  0.00    +0.000 A 
ATOM     17  C   UNL     1       1.940   3.869  18.000  0.00  0.00    +0.000 A 
ATOM     18  C   UNL     1       3.112   3.548  17.334  0.00  0.00    +0.000 A 
ATOM     19  C   UNL     1       4.073   4.531  17.096  0.00  0.00    +0.000 A 
ATOM     20  C   UNL     1       3.899   5.845  17.544  0.00  0.00    +0.000 A 
BRANCH  15  22
ATOM     21  C   UNL     1       1.690   8.584  17.978  0.00  0.00    +0.000 C 
ATOM     22  C   UNL     1       2.462   7.573  18.841  0.00  0.00    +0.000 C 
ATOM     23  C   UNL     1       1.735   7.416  20.184  0.00  0.00    +0.000 C 
ENDBRANCH  15  22
ENDBRANCH  13  20
ENDBRANCH   1  13
TORSDOF 5
ENDMDL
MODEL 2
REMARK VINA RESULT:      -7.4      1.679      1.850
REMARK  Name = 
REMARK  8 active torsions:
REMARK  status: ('A' for Active; 'I' for Inactive)
REMARK    1  A    between atoms: C_1  and  C_2
REMARK    2  A    between atoms: C_2  and  C_3
REMARK    3  A    between atoms: C_2  and  C_4
REMARK    4  A    between atoms: C_9  and  N_10
REMARK    5  A    between atoms: N_10  and  C_11
REMARK    6  A    between atoms: C_11  and  N_13
REMARK    7  A    between atoms: C_14  and  C_16
REMARK    8  A    between atoms: N_19  and  C_20
REMARK                            x       y       z     vdW  Elec       q    Type
REMARK                         _______ _______ _______ _____ _____    ______ ____
ROOT
ATOM      1  C   UNL     1       6.325   4.699  18.402  0.00  0.00    +0.000 C 
ATOM      2  S   UNL     1       7.706   5.587  18.711  0.00  0.00    +0.000 S 
ENDROOT
BRANCH   1   3
ATOM      3  N   UNL     1       6.096   4.403  17.061  0.00  0.00    +0.000 N 
ATOM      4  C   UNL     1       6.004   5.290  16.002  0.00  0.00    +0.000 C 
ATOM      5  O   UNL     1       5.754   6.482  16.167  0.00  0.00    +0.000 OA
ATOM      6  H   UNL     1       6.121   3.416  16.851  0.00  0.00    +0.000 HD
BRANCH   4   7
ATOM      7  C   UNL     1       6.196   4.747  14.674  0.00  0.00    +0.000 A 
ATOM      8  C   UNL     1       7.306   5.012  13.840  0.00  0.00    +0.000 A 
ATOM      9  N   UNL     1       7.268   4.333  12.695  0.00  0.00    +0.000 NA
ATOM     10  N   UNL     1       6.142   3.609  12.792  0.00  0.00    +0.000 N 
ATOM     11  C   UNL     1       5.804   2.685  11.736  0.00  0.00    +0.000 C 
ATOM     12  C   UNL     1       5.450   3.832  13.952  0.00  0.00    +0.000 A 
ENDBRANCH   4   7
ENDBRANCH   1   3
BRANCH   1  13
ATOM     13  N   UNL     1       5.313   4.294  19.252  0.00  0.00    +0.000 N 
ATOM     14  H   UNL     1       5.606   4.265  20.225  0.00  0.00    +0.000 HD
BRANCH  13  20
ATOM     15  C   UNL     1       2.903   4.650  18.986  0.00  0.00    +0.000 A 
ATOM     16  C   UNL     1       1.616   4.105  18.798  0.00  0.00    +0.000 A 
ATOM     17  C   UNL     1       1.418   2.734  18.655  0.00  0.00    +0.000 A 
ATOM     18  C   UNL     1       2.508   1.878  18.677  0.00  0.00    +0.000 A 
ATOM     19  C   UNL     1       3.796   2.390  18.844  0.00  0.00    +0.000 A 
ATOM     20  C   UNL     1       4.018   3.760  19.024  0.00  0.00    +0.000 A 
BRANCH  15  22
ATOM     21  C   UNL     1       2.935   7.092  18.076  0.00  0.00    +0.000 C 
ATOM     22  C   UNL     1       3.041   6.149  19.286  0.00  0.00    +0.000 C 
ATOM     23  C   UNL     1       1.989   6.562  20.325  0.00  0.00    +0.000 C 
ENDBRANCH  15  22
ENDBRANCH  13  20
ENDBRANCH   1  13
TORSDOF 5
ENDMDL
MODEL 3
REMARK VINA RESULT:      -7.3      3.180      7.055
REMARK  Name = 
REMARK  8 active torsions:
REMARK  status: ('A' for Active; 'I' for Inactive)
REMARK    1  A    between atoms: C_1  and  C_2
REMARK    2  A    between atoms: C_2  and  C_3
REMARK    3  A    between atoms: C_2  and  C_4
REMARK    4  A    between atoms: C_9  and  N_10
REMARK    5  A    between atoms: N_10  and  C_11
REMARK    6  A    between atoms: C_11  and  N_13
REMARK    7  A    between atoms: C_14  and  C_16
REMARK    8  A    between atoms: N_19  and  C_20
REMARK                            x       y       z     vdW  Elec       q    Type
REMARK                         _______ _______ _______ _____ _____    ______ ____
ROOT
ATOM      1  C   UNL     1       3.084   4.961  18.328  0.00  0.00    +0.000 C 
ATOM      2  S   UNL     1       1.866   3.903  17.896  0.00  0.00    +0.000 S 
ENDROOT
BRANCH   1   3
ATOM      3  N   UNL     1       2.656   6.182  18.842  0.00  0.00    +0.000 N 
ATOM      4  C   UNL     1       2.797   7.437  18.274  0.00  0.00    +0.000 C 
ATOM      5  O   UNL     1       3.639   7.673  17.412  0.00  0.00    +0.000 OA
ATOM      6  H   UNL     1       2.078   6.097  19.666  0.00  0.00    +0.000 HD
BRANCH   4   7
ATOM      7  C   UNL     1       1.916   8.477  18.759  0.00  0.00    +0.000 A 
ATOM      8  C   UNL     1       1.329   9.484  17.958  0.00  0.00    +0.000 A 
ATOM      9  N   UNL     1       0.506  10.277  18.642  0.00  0.00    +0.000 NA
ATOM     10  N   UNL     1       0.541   9.774  19.886  0.00  0.00    +0.000 N 
ATOM     11  C   UNL     1      -0.298  10.356  20.906  0.00  0.00    +0.000 C 
ATOM     12  C   UNL     1       1.386   8.704  20.016  0.00  0.00    +0.000 A 
ENDBRANCH   4   7
ENDBRANCH   1   3
BRANCH   1  13
ATOM     13  N   UNL     1       4.453   4.865  18.164  0.00  0.00    +0.000 N 
ATOM     14  H   UNL     1       4.963   5.006  19.032  0.00  0.00    +0.000 HD
BRANCH  13  20
ATOM     15  C   UNL     1       6.531   5.467  17.013  0.00  0.00    +0.000 A 
ATOM     16  C   UNL     1       7.331   5.403  15.853  0.00  0.00    +0.000 A 
ATOM     17  C   UNL     1       6.926   4.691  14.726  0.00  0.00    +0.000 A 
ATOM     18  C   UNL     1       5.719   4.011  14.743  0.00  0.00    +0.000 A 
ATOM     19  C   UNL     1       4.914   4.041  15.883  0.00  0.00    +0.000 A 
ATOM     20  C   UNL     1       5.282   4.776  17.016  0.00  0.00    +0.000 A 
BRANCH  15  22
ATOM     21  C   UNL     1       7.877   5.754  19.227  0.00  0.00    +0.000 C 
ATOM     22  C   UNL     1       6.961   6.386  18.165  0.00  0.00    +0.000 C 
ATOM     23  C   UNL     1       7.656   7.630  17.594  0.00  0.00    +0.000 C 
ENDBRANCH  15  22
ENDBRANCH  13  20
ENDBRANCH   1  13
TORSDOF 5
ENDMDL
MODEL 4
REMARK VINA RESULT:      -7.2      3.158      6.974
REMARK  Name = 
REMARK  8 active torsions:
REMARK  status: ('A' for Active; 'I' for Inactive)
REMARK    1  A    between atoms: C_1  and  C_2
REMARK    2  A    between atoms: C_2  and  C_3
REMARK    3  A    between atoms: C_2  and  C_4
REMARK    4  A    between atoms: C_9  and  N_10
REMARK    5  A    between atoms: N_10  and  C_11
REMARK    6  A    between atoms: C_11  and  N_13
REMARK    7  A    between atoms: C_14  and  C_16
REMARK    8  A    between atoms: N_19  and  C_20
REMARK                            x       y       z     vdW  Elec       q    Type
REMARK                         _______ _______ _______ _____ _____    ______ ____
ROOT
ATOM      1  C   UNL     1       3.378   4.553  18.495  0.00  0.00    +0.000 C 
ATOM      2  S   UNL     1       2.141   3.475  18.178  0.00  0.00    +0.000 S 
ENDROOT
BRANCH   1   3
ATOM      3  N   UNL     1       2.977   5.784  19.005  0.00  0.00    +0.000 N 
ATOM      4  C   UNL     1       2.955   7.005  18.352  0.00  0.00    +0.000 C 
ATOM      5  O   UNL     1       3.627   7.221  17.347  0.00  0.00    +0.000 OA
ATOM      6  H   UNL     1       2.550   5.728  19.919  0.00  0.00    +0.000 HD
BRANCH   4   7
ATOM      7  C   UNL     1       2.112   8.035  18.921  0.00  0.00    +0.000 A 
ATOM      8  C   UNL     1       1.676   8.079  20.265  0.00  0.00    +0.000 A 
ATOM      9  N   UNL     1       0.964   9.169  20.544  0.00  0.00    +0.000 NA
ATOM     10  N   UNL     1       0.953   9.847  19.386  0.00  0.00    +0.000 N 
ATOM     11  C   UNL     1       0.313  11.139  19.329  0.00  0.00    +0.000 C 
ATOM     12  C   UNL     1       1.613   9.203  18.372  0.00  0.00    +0.000 A 
ENDBRANCH   4   7
ENDBRANCH   1   3
BRANCH   1  13
ATOM     13  N   UNL     1       4.733   4.460  18.237  0.00  0.00    +0.000 N 
ATOM     14  H   UNL     1       5.294   4.463  19.085  0.00  0.00    +0.000 HD
BRANCH  13  20
ATOM     15  C   UNL     1       6.624   5.400  16.993  0.00  0.00    +0.000 A 
ATOM     16  C   UNL     1       7.351   5.489  15.788  0.00  0.00    +0.000 A 
ATOM     17  C   UNL     1       6.987   4.756  14.661  0.00  0.00    +0.000 A 
ATOM     18  C   UNL     1       5.898   3.901  14.721  0.00  0.00    +0.000 A 
ATOM     19  C   UNL     1       5.170   3.778  15.906  0.00  0.00    +0.000 A 
ATOM     20  C   UNL     1       5.494   4.528  17.042  0.00  0.00    +0.000 A 
BRANCH  15  22
ATOM     21  C   UNL     1       7.898   5.754  19.239  0.00  0.00    +0.000 C 
ATOM     22  C   UNL     1       6.982   6.341  18.152  0.00  0.00    +0.000 C 
ATOM     23  C   UNL     1       7.634   7.613  17.593  0.00  0.00    +0.000 C 
ENDBRANCH  15  22
ENDBRANCH  13  20
ENDBRANCH   1  13
TORSDOF 5
ENDMDL
MODEL 5
REMARK VINA RESULT:      -7.1      3.180      6.521
REMARK  Name = 
REMARK  8 active torsions:
REMARK  status: ('A' for Active; 'I' for Inactive)
REMARK    1  A    between atoms: C_1  and  C_2
REMARK    2  A    between atoms: C_2  and  C_3
REMARK    3  A    between atoms: C_2  and  C_4
REMARK    4  A    between atoms: C_9  and  N_10
REMARK    5  A    between atoms: N_10  and  C_11
REMARK    6  A    between atoms: C_11  and  N_13
REMARK    7  A    between atoms: C_14  and  C_16
REMARK    8  A    between atoms: N_19  and  C_20
REMARK                            x       y       z     vdW  Elec       q    Type
REMARK                         _______ _______ _______ _____ _____    ______ ____
ROOT
ATOM      1  C   UNL     1       3.833   3.614  18.156  0.00  0.00    +0.000 C 
ATOM      2  S   UNL     1       2.915   2.247  18.445  0.00  0.00    +0.000 S 
ENDROOT
BRANCH   1   3
ATOM      3  N   UNL     1       3.127   4.813  18.151  0.00  0.00    +0.000 N 
ATOM      4  C   UNL     1       2.924   5.682  19.210  0.00  0.00    +0.000 C 
ATOM      5  O   UNL     1       3.038   5.324  20.379  0.00  0.00    +0.000 OA
ATOM      6  H   UNL     1       2.843   5.115  17.230  0.00  0.00    +0.000 HD
BRANCH   4   7
ATOM      7  C   UNL     1       2.547   7.039  18.880  0.00  0.00    +0.000 A 
ATOM      8  C   UNL     1       2.800   7.675  17.641  0.00  0.00    +0.000 A 
ATOM      9  N   UNL     1       2.291   8.904  17.576  0.00  0.00    +0.000 NA
ATOM     10  N   UNL     1       1.689   9.062  18.765  0.00  0.00    +0.000 N 
ATOM     11  C   UNL     1       0.960  10.280  19.031  0.00  0.00    +0.000 C 
ATOM     12  C   UNL     1       1.828   7.980  19.594  0.00  0.00    +0.000 A 
ENDBRANCH   4   7
ENDBRANCH   1   3
BRANCH   1  13
ATOM     13  N   UNL     1       5.167   3.740  17.819  0.00  0.00    +0.000 N 
ATOM     14  H   UNL     1       5.785   3.650  18.622  0.00  0.00    +0.000 HD
BRANCH  13  20
ATOM     15  C   UNL     1       6.712   5.249  16.660  0.00  0.00    +0.000 A 
ATOM     16  C   UNL     1       7.333   5.650  15.459  0.00  0.00    +0.000 A 
ATOM     17  C   UNL     1       7.098   4.984  14.258  0.00  0.00    +0.000 A 
ATOM     18  C   UNL     1       6.251   3.889  14.236  0.00  0.00    +0.000 A 
ATOM     19  C   UNL     1       5.635   3.457  15.412  0.00  0.00    +0.000 A 
ATOM     20  C   UNL     1       5.828   4.128  16.625  0.00  0.00    +0.000 A 
BRANCH  15  22
ATOM     21  C   UNL     1       7.835   5.543  18.993  0.00  0.00    +0.000 C 
ATOM     22  C   UNL     1       6.893   6.109  17.917  0.00  0.00    +0.000 C 
ATOM     23  C   UNL     1       7.390   7.505  17.514  0.00  0.00    +0.000 C 
ENDBRANCH  15  22
ENDBRANCH  13  20
ENDBRANCH   1  13
TORSDOF 5
ENDMDL
MODEL 6
REMARK VINA RESULT:      -7.1      3.173      6.054
REMARK  Name = 
REMARK  8 active torsions:
REMARK  status: ('A' for Active; 'I' for Inactive)
REMARK    1  A    between atoms: C_1  and  C_2
REMARK    2  A    between atoms: C_2  and  C_3
REMARK    3  A    between atoms: C_2  and  C_4
REMARK    4  A    between atoms: C_9  and  N_10
REMARK    5  A    between atoms: N_10  and  C_11
REMARK    6  A    between atoms: C_11  and  N_13
REMARK    7  A    between atoms: C_14  and  C_16
REMARK    8  A    between atoms: N_19  and  C_20
REMARK                            x       y       z     vdW  Elec       q    Type
REMARK                         _______ _______ _______ _____ _____    ______ ____
ROOT
ATOM      1  C   UNL     1       3.440   7.314  17.754  0.00  0.00    +0.000 C 
ATOM      2  S   UNL     1       2.219   8.449  17.869  0.00  0.00    +0.000 S 
ENDROOT
BRANCH   1   3
ATOM      3  N   UNL     1       3.384   6.284  18.688  0.00  0.00    +0.000 N 
ATOM      4  C   UNL     1       2.792   5.040  18.543  0.00  0.00    +0.000 C 
ATOM      5  O   UNL     1       1.928   4.822  17.697  0.00  0.00    +0.000 OA
ATOM      6  H   UNL     1       3.947   6.447  19.510  0.00  0.00    +0.000 HD
BRANCH   4   7
ATOM      7  C   UNL     1       3.224   4.001  19.452  0.00  0.00    +0.000 A 
ATOM      8  C   UNL     1       2.460   3.493  20.528  0.00  0.00    +0.000 A 
ATOM      9  N   UNL     1       3.066   2.494  21.168  0.00  0.00    +0.000 NA
ATOM     10  N   UNL     1       4.216   2.337  20.495  0.00  0.00    +0.000 N 
ATOM     11  C   UNL     1       5.118   1.276  20.876  0.00  0.00    +0.000 C 
ATOM     12  C   UNL     1       4.371   3.228  19.466  0.00  0.00    +0.000 A 
ENDBRANCH   4   7
ENDBRANCH   1   3
BRANCH   1  13
ATOM     13  N   UNL     1       4.560   7.285  16.945  0.00  0.00    +0.000 N 
ATOM     14  H   UNL     1       4.808   8.203  16.585  0.00  0.00    +0.000 HD
BRANCH  13  20
ATOM     15  C   UNL     1       6.530   5.831  17.043  0.00  0.00    +0.000 A 
ATOM     16  C   UNL     1       7.301   4.801  16.463  0.00  0.00    +0.000 A 
ATOM     17  C   UNL     1       6.911   4.175  15.282  0.00  0.00    +0.000 A 
ATOM     18  C   UNL     1       5.729   4.553  14.664  0.00  0.00    +0.000 A 
ATOM     19  C   UNL     1       4.937   5.556  15.224  0.00  0.00    +0.000 A 
ATOM     20  C   UNL     1       5.323   6.224  16.391  0.00  0.00    +0.000 A 
BRANCH  15  22
ATOM     21  C   UNL     1       7.918   5.747  19.248  0.00  0.00    +0.000 C 
ATOM     22  C   UNL     1       7.085   6.582  18.261  0.00  0.00    +0.000 C 
ATOM     23  C   UNL     1       7.934   7.771  17.786  0.00  0.00    +0.000 C 
ENDBRANCH  15  22
ENDBRANCH  13  20
ENDBRANCH   1  13
TORSDOF 5
ENDMDL
MODEL 7
REMARK VINA RESULT:      -7.1      3.337      6.631
REMARK  Name = 
REMARK  8 active torsions:
REMARK  status: ('A' for Active; 'I' for Inactive)
REMARK    1  A    between atoms: C_1  and  C_2
REMARK    2  A    between atoms: C_2  and  C_3
REMARK    3  A    between atoms: C_2  and  C_4
REMARK    4  A    between atoms: C_9  and  N_10
REMARK    5  A    between atoms: N_10  and  C_11
REMARK    6  A    between atoms: C_11  and  N_13
REMARK    7  A    between atoms: C_14  and  C_16
REMARK    8  A    between atoms: N_19  and  C_20
REMARK                            x       y       z     vdW  Elec       q    Type
REMARK                         _______ _______ _______ _____ _____    ______ ____
ROOT
ATOM      1  C   UNL     1       3.998   3.333  18.278  0.00  0.00    +0.000 C 
ATOM      2  S   UNL     1       3.205   1.880  18.510  0.00  0.00    +0.000 S 
ENDROOT
BRANCH   1   3
ATOM      3  N   UNL     1       3.201   4.469  18.383  0.00  0.00    +0.000 N 
ATOM      4  C   UNL     1       2.896   5.186  19.527  0.00  0.00    +0.000 C 
ATOM      5  O   UNL     1       3.000   4.701  20.651  0.00  0.00    +0.000 OA
ATOM      6  H   UNL     1       2.924   4.856  17.493  0.00  0.00    +0.000 HD
BRANCH   4   7
ATOM      7  C   UNL     1       2.425   6.542  19.343  0.00  0.00    +0.000 A 
ATOM      8  C   UNL     1       1.827   7.339  20.347  0.00  0.00    +0.000 A 
ATOM      9  N   UNL     1       1.544   8.572  19.930  0.00  0.00    +0.000 NA
ATOM     10  N   UNL     1       1.977   8.586  18.660  0.00  0.00    +0.000 N 
ATOM     11  C   UNL     1       1.890   9.808  17.897  0.00  0.00    +0.000 C 
ATOM     12  C   UNL     1       2.498   7.387  18.250  0.00  0.00    +0.000 A 
ENDBRANCH   4   7
ENDBRANCH   1   3
BRANCH   1  13
ATOM     13  N   UNL     1       5.302   3.589  17.895  0.00  0.00    +0.000 N 
ATOM     14  H   UNL     1       5.765   2.771  17.509  0.00  0.00    +0.000 HD
BRANCH  13  20
ATOM     15  C   UNL     1       6.239   5.694  17.060  0.00  0.00    +0.000 A 
ATOM     16  C   UNL     1       7.126   6.776  17.241  0.00  0.00    +0.000 A 
ATOM     17  C   UNL     1       7.916   6.889  18.383  0.00  0.00    +0.000 A 
ATOM     18  C   UNL     1       7.822   5.930  19.378  0.00  0.00    +0.000 A 
ATOM     19  C   UNL     1       6.941   4.857  19.236  0.00  0.00    +0.000 A 
ATOM     20  C   UNL     1       6.161   4.702  18.084  0.00  0.00    +0.000 A 
BRANCH  15  22
ATOM     21  C   UNL     1       4.905   6.834  15.134  0.00  0.00    +0.000 C 
ATOM     22  C   UNL     1       5.507   5.546  15.720  0.00  0.00    +0.000 C 
ATOM     23  C   UNL     1       6.457   4.931  14.683  0.00  0.00    +0.000 C 
ENDBRANCH  15  22
ENDBRANCH  13  20
ENDBRANCH   1  13
TORSDOF 5
ENDMDL
MODEL 8
REMARK VINA RESULT:      -7.1      2.603      4.232
REMARK  Name = 
REMARK  8 active torsions:
REMARK  status: ('A' for Active; 'I' for Inactive)
REMARK    1  A    between atoms: C_1  and  C_2
REMARK    2  A    between atoms: C_2  and  C_3
REMARK    3  A    between atoms: C_2  and  C_4
REMARK    4  A    between atoms: C_9  and  N_10
REMARK    5  A    between atoms: N_10  and  C_11
REMARK    6  A    between atoms: C_11  and  N_13
REMARK    7  A    between atoms: C_14  and  C_16
REMARK    8  A    between atoms: N_19  and  C_20
REMARK                            x       y       z     vdW  Elec       q    Type
REMARK                         _______ _______ _______ _____ _____    ______ ____
ROOT
ATOM      1  C   UNL     1       2.987   5.172  19.780  0.00  0.00    +0.000 C 
ATOM      2  S   UNL     1       2.801   3.629  20.394  0.00  0.00    +0.000 S 
ENDROOT
BRANCH   1   3
ATOM      3  N   UNL     1       3.867   5.282  18.707  0.00  0.00    +0.000 N 
ATOM      4  C   UNL     1       5.249   5.192  18.731  0.00  0.00    +0.000 C 
ATOM      5  O   UNL     1       5.896   5.361  19.761  0.00  0.00    +0.000 OA
ATOM      6  H   UNL     1       3.410   5.314  17.807  0.00  0.00    +0.000 HD
BRANCH   4   7
ATOM      7  C   UNL     1       5.908   4.907  17.475  0.00  0.00    +0.000 A 
ATOM      8  C   UNL     1       7.297   4.699  17.315  0.00  0.00    +0.000 A 
ATOM      9  N   UNL     1       7.635   4.389  16.064  0.00  0.00    +0.000 NA
ATOM     10  N   UNL     1       6.461   4.374  15.413  0.00  0.00    +0.000 N 
ATOM     11  C   UNL     1       6.432   4.004  14.018  0.00  0.00    +0.000 C 
ATOM     12  C   UNL     1       5.393   4.695  16.209  0.00  0.00    +0.000 A 
ENDBRANCH   4   7
ENDBRANCH   1   3
BRANCH   1  13
ATOM     13  N   UNL     1       2.487   6.379  20.229  0.00  0.00    +0.000 N 
ATOM     14  H   UNL     1       2.222   6.354  21.210  0.00  0.00    +0.000 HD
BRANCH  13  20
ATOM     15  C   UNL     1       1.402   8.576  20.290  0.00  0.00    +0.000 A 
ATOM     16  C   UNL     1       1.010   9.748  19.609  0.00  0.00    +0.000 A 
ATOM     17  C   UNL     1       1.303   9.941  18.262  0.00  0.00    +0.000 A 
ATOM     18  C   UNL     1       2.014   8.974  17.569  0.00  0.00    +0.000 A 
ATOM     19  C   UNL     1       2.431   7.813  18.220  0.00  0.00    +0.000 A 
ATOM     20  C   UNL     1       2.121   7.578  19.564  0.00  0.00    +0.000 A 
BRANCH  15  22
ATOM     21  C   UNL     1       1.471   9.333  22.783  0.00  0.00    +0.000 C 
ATOM     22  C   UNL     1       0.923   8.354  21.731  0.00  0.00    +0.000 C 
ATOM     23  C   UNL     1      -0.611   8.398  21.771  0.00  0.00    +0.000 C 
ENDBRANCH  15  22
ENDBRANCH  13  20
ENDBRANCH   1  13
TORSDOF 5
ENDMDL
MODEL 9
REMARK VINA RESULT:      -7.1      1.502      1.643
REMARK  Name = 
REMARK  8 active torsions:
REMARK  status: ('A' for Active; 'I' for Inactive)
REMARK    1  A    between atoms: C_1  and  C_2
REMARK    2  A    between atoms: C_2  and  C_3
REMARK    3  A    between atoms: C_2  and  C_4
REMARK    4  A    between atoms: C_9  and  N_10
REMARK    5  A    between atoms: N_10  and  C_11
REMARK    6  A    between atoms: C_11  and  N_13
REMARK    7  A    between atoms: C_14  and  C_16
REMARK    8  A    between atoms: N_19  and  C_20
REMARK                            x       y       z     vdW  Elec       q    Type
REMARK                         _______ _______ _______ _____ _____    ______ ____
ROOT
ATOM      1  C   UNL     1       6.312   5.011  18.760  0.00  0.00    +0.000 C 
ATOM      2  S   UNL     1       7.543   5.839  19.529  0.00  0.00    +0.000 S 
ENDROOT
BRANCH   1   3
ATOM      3  N   UNL     1       6.313   5.102  17.371  0.00  0.00    +0.000 N 
ATOM      4  C   UNL     1       7.199   4.516  16.483  0.00  0.00    +0.000 C 
ATOM      5  O   UNL     1       8.313   4.132  16.830  0.00  0.00    +0.000 OA
ATOM      6  H   UNL     1       5.495   5.558  16.992  0.00  0.00    +0.000 HD
BRANCH   4   7
ATOM      7  C   UNL     1       6.762   4.389  15.110  0.00  0.00    +0.000 A 
ATOM      8  C   UNL     1       7.422   4.949  13.991  0.00  0.00    +0.000 A 
ATOM      9  N   UNL     1       6.847   4.627  12.834  0.00  0.00    +0.000 NA
ATOM     10  N   UNL     1       5.822   3.840  13.197  0.00  0.00    +0.000 N 
ATOM     11  C   UNL     1       4.997   3.240  12.177  0.00  0.00    +0.000 C 
ATOM     12  C   UNL     1       5.714   3.678  14.554  0.00  0.00    +0.000 A 
ENDBRANCH   4   7
ENDBRANCH   1   3
BRANCH   1  13
ATOM     13  N   UNL     1       5.228   4.331  19.282  0.00  0.00    +0.000 N 
ATOM     14  H   UNL     1       5.421   3.928  20.196  0.00  0.00    +0.000 HD
BRANCH  13  20
ATOM     15  C   UNL     1       2.970   4.944  18.554  0.00  0.00    +0.000 A 
ATOM     16  C   UNL     1       1.715   4.545  18.047  0.00  0.00    +0.000 A 
ATOM     17  C   UNL     1       1.446   3.216  17.731  0.00  0.00    +0.000 A 
ATOM     18  C   UNL     1       2.433   2.258  17.897  0.00  0.00    +0.000 A 
ATOM     19  C   UNL     1       3.689   2.625  18.380  0.00  0.00    +0.000 A 
ATOM     20  C   UNL     1       3.976   3.948  18.737  0.00  0.00    +0.000 A 
BRANCH  15  22
ATOM     21  C   UNL     1       3.083   7.471  17.928  0.00  0.00    +0.000 C 
ATOM     22  C   UNL     1       3.159   6.393  19.022  0.00  0.00    +0.000 C 
ATOM     23  C   UNL     1       2.122   6.720  20.106  0.00  0.00    +0.000 C 
ENDBRANCH  15  22
ENDBRANCH  13  20
ENDBRANCH   1  13
TORSDOF 5
ENDMDL
