MODEL 1
REMARK VINA RESULT:      -7.7      0.000      0.000
REMARK  Name = 
REMARK  8 active torsions:
REMARK  status: ('A' for Active; 'I' for Inactive)
REMARK    1  A    between atoms: C_1  and  S_2
REMARK    2  A    between atoms: S_2  and  C_3
REMARK    3  A    between atoms: C_6  and  C_7
REMARK    4  A    between atoms: C_7  and  N_8
REMARK    5  A    between atoms: N_8  and  C_9
REMARK    6  A    between atoms: C_9  and  C_10
REMARK    7  A    between atoms: C_9  and  C_17
REMARK    8  A    between atoms: N_21  and  C_22
REMARK                            x       y       z     vdW  Elec       q    Type
REMARK                         _______ _______ _______ _____ _____    ______ ____
ROOT
ATOM      1  C   UNL     1       3.006   5.743  20.080  0.00  0.00    +0.000 C 
ENDROOT
BRANCH   1   2
ATOM      2  C   UNL     1       2.465   7.041  19.507  0.00  0.00    +0.000 A 
ATOM      3  C   UNL     1       2.798   7.412  18.192  0.00  0.00    +0.000 A 
ATOM      4  C   UNL     1       2.320   8.609  17.649  0.00  0.00    +0.000 A 
ATOM      5  C   UNL     1       1.499   9.444  18.407  0.00  0.00    +0.000 A 
ATOM      6  C   UNL     1       1.154   9.084  19.712  0.00  0.00    +0.000 A 
ATOM      7  C   UNL     1       1.632   7.890  20.266  0.00  0.00    +0.000 A 
ATOM      8  F   UNL     1       1.284   7.562  21.535  0.00  0.00    +0.000 F 
ENDBRANCH   1   2
BRANCH   1   9
ATOM      9  C   UNL     1       2.163   4.563  19.617  0.00  0.00    +0.000 A 
ATOM     10  N   UNL     1       1.673   4.466  18.363  0.00  0.00    +0.000 NA
ATOM     11  C   UNL     1       1.011   3.296  18.328  0.00  0.00    +0.000 A 
ATOM     12  C   UNL     1       1.100   2.690  19.560  0.00  0.00    +0.000 A 
ATOM     13  N   UNL     1       1.818   3.488  20.370  0.00  0.00    +0.000 N 
ATOM     14  C   UNL     1       2.137   3.203  21.767  0.00  0.00    +0.000 C 
ENDBRANCH   1   9
BRANCH   1  15
ATOM     15  N   UNL     1       4.412   5.520  19.676  0.00  0.00    +0.000 NA
ATOM     16  H   UNL     1       4.647   6.192  18.905  0.00  0.00    +0.000 HD
BRANCH  15  17
ATOM     17  C   UNL     1       4.704   4.166  19.182  0.00  0.00    +0.000 C 
BRANCH  17  21
ATOM     18  C   UNL     1       6.576   4.529  15.287  0.00  0.00    +0.000 A 
ATOM     19  C   UNL     1       7.303   4.770  16.464  0.00  0.00    +0.000 A 
ATOM     20  C   UNL     1       6.694   4.632  17.713  0.00  0.00    +0.000 A 
ATOM     21  C   UNL     1       5.344   4.267  17.816  0.00  0.00    +0.000 A 
ATOM     22  C   UNL     1       4.612   4.024  16.639  0.00  0.00    +0.000 A 
ATOM     23  C   UNL     1       5.228   4.150  15.385  0.00  0.00    +0.000 A 
BRANCH  18  25
ATOM     24  C   UNL     1       6.262   3.606  12.693  0.00  0.00    +0.000 C 
ATOM     25  S   UNL     1       7.311   4.757  13.648  0.00  0.00    +0.000 S 
ENDBRANCH  18  25
ENDBRANCH  17  21
ENDBRANCH  15  17
ENDBRANCH   1  15
TORSDOF 6
ENDMDL
MODEL 2
REMARK VINA RESULT:      -7.5      1.739      4.128
REMARK  Name = 
REMARK  8 active torsions:
REMARK  status: ('A' for Active; 'I' for Inactive)
REMARK    1  A    between atoms: C_1  and  S_2
REMARK    2  A    between atoms: S_2  and  C_3
REMARK    3  A    between atoms: C_6  and  C_7
REMARK    4  A    between atoms: C_7  and  N_8
REMARK    5  A    between atoms: N_8  and  C_9
REMARK    6  A    between atoms: C_9  and  C_10
REMARK    7  A    between atoms: C_9  and  C_17
REMARK    8  A    between atoms: N_21  and  C_22
REMARK                            x       y       z     vdW  Elec       q    Type
REMARK                         _______ _______ _______ _____ _____    ______ ____
ROOT
ATOM      1  C   UNL     1       2.715   6.254  19.158  0.00  0.00    +0.000 C 
ENDROOT
BRANCH   1   2
ATOM      2  C   UNL     1       2.110   4.932  19.599  0.00  0.00    +0.000 A 
ATOM      3  C   UNL     1       2.181   4.553  20.952  0.00  0.00    +0.000 A 
ATOM      4  C   UNL     1       1.641   3.335  21.378  0.00  0.00    +0.000 A 
ATOM      5  C   UNL     1       1.019   2.487  20.462  0.00  0.00    +0.000 A 
ATOM      6  C   UNL     1       0.935   2.853  19.116  0.00  0.00    +0.000 A 
ATOM      7  C   UNL     1       1.477   4.069  18.681  0.00  0.00    +0.000 A 
ATOM      8  F   UNL     1       1.386   4.403  17.369  0.00  0.00    +0.000 F 
ENDBRANCH   1   2
BRANCH   1   9
ATOM      9  C   UNL     1       1.947   7.420  19.763  0.00  0.00    +0.000 A 
ATOM     10  N   UNL     1       1.449   7.392  21.017  0.00  0.00    +0.000 NA
ATOM     11  C   UNL     1       0.866   8.590  21.198  0.00  0.00    +0.000 A 
ATOM     12  C   UNL     1       1.009   9.338  20.051  0.00  0.00    +0.000 A 
ATOM     13  N   UNL     1       1.682   8.602  19.151  0.00  0.00    +0.000 N 
ATOM     14  C   UNL     1       2.036   9.037  17.802  0.00  0.00    +0.000 C 
ENDBRANCH   1   9
BRANCH   1  15
ATOM     15  N   UNL     1       4.138   6.354  19.554  0.00  0.00    +0.000 NA
ATOM     16  H   UNL     1       4.594   7.096  18.969  0.00  0.00    +0.000 HD
BRANCH  15  17
ATOM     17  C   UNL     1       4.915   5.117  19.380  0.00  0.00    +0.000 C 
BRANCH  17  21
ATOM     18  C   UNL     1       6.475   4.905  15.339  0.00  0.00    +0.000 A 
ATOM     19  C   UNL     1       5.379   4.121  15.734  0.00  0.00    +0.000 A 
ATOM     20  C   UNL     1       4.874   4.211  17.032  0.00  0.00    +0.000 A 
ATOM     21  C   UNL     1       5.461   5.073  17.971  0.00  0.00    +0.000 A 
ATOM     22  C   UNL     1       6.558   5.861  17.580  0.00  0.00    +0.000 A 
ATOM     23  C   UNL     1       7.056   5.780  16.271  0.00  0.00    +0.000 A 
BRANCH  18  25
ATOM     24  C   UNL     1       6.040   3.561  12.954  0.00  0.00    +0.000 C 
ATOM     25  S   UNL     1       7.198   4.772  13.685  0.00  0.00    +0.000 S 
ENDBRANCH  18  25
ENDBRANCH  17  21
ENDBRANCH  15  17
ENDBRANCH   1  15
TORSDOF 6
ENDMDL
MODEL 3
REMARK VINA RESULT:      -7.5      3.413      6.821
REMARK  Name = 
REMARK  8 active torsions:
REMARK  status: ('A' for Active; 'I' for Inactive)
REMARK    1  A    between atoms: C_1  and  S_2
REMARK    2  A    between atoms: S_2  and  C_3
REMARK    3  A    between atoms: C_6  and  C_7
REMARK    4  A    between atoms: C_7  and  N_8
REMARK    5  A    between atoms: N_8  and  C_9
REMARK    6  A    between atoms: C_9  and  C_10
REMARK    7  A    between atoms: C_9  and  C_17
REMARK    8  A    between atoms: N_21  and  C_22
REMARK                            x       y       z     vdW  Elec       q    Type
REMARK                         _______ _______ _______ _____ _____    ______ ____
ROOT
ATOM      1  C   UNL     1       3.393   5.324  18.421  0.00  0.00    +0.000 C 
ENDROOT
BRANCH   1   2
ATOM      2  C   UNL     1       4.868   5.089  18.145  0.00  0.00    +0.000 A 
ATOM      3  C   UNL     1       5.818   5.406  19.133  0.00  0.00    +0.000 A 
ATOM      4  C   UNL     1       7.182   5.209  18.896  0.00  0.00    +0.000 A 
ATOM      5  C   UNL     1       7.613   4.686  17.677  0.00  0.00    +0.000 A 
ATOM      6  C   UNL     1       6.680   4.359  16.689  0.00  0.00    +0.000 A 
ATOM      7  C   UNL     1       5.312   4.558  16.917  0.00  0.00    +0.000 A 
ATOM      8  F   UNL     1       4.425   4.235  15.943  0.00  0.00    +0.000 F 
ENDBRANCH   1   2
BRANCH   1   9
ATOM      9  C   UNL     1       2.857   4.277  19.387  0.00  0.00    +0.000 A 
ATOM     10  N   UNL     1       2.719   4.509  20.709  0.00  0.00    +0.000 NA
ATOM     11  C   UNL     1       2.204   3.376  21.219  0.00  0.00    +0.000 A 
ATOM     12  C   UNL     1       2.036   2.461  20.205  0.00  0.00    +0.000 A 
ATOM     13  N   UNL     1       2.450   3.025  19.057  0.00  0.00    +0.000 N 
ATOM     14  C   UNL     1       2.438   2.377  17.748  0.00  0.00    +0.000 C 
ENDBRANCH   1   9
BRANCH   1  15
ATOM     15  N   UNL     1       3.159   6.671  18.988  0.00  0.00    +0.000 NA
ATOM     16  H   UNL     1       2.657   6.563  19.904  0.00  0.00    +0.000 HD
BRANCH  15  17
ATOM     17  C   UNL     1       2.346   7.562  18.146  0.00  0.00    +0.000 C 
BRANCH  17  21
ATOM     18  C   UNL     1       0.400  10.479  20.696  0.00  0.00    +0.000 A 
ATOM     19  C   UNL     1       0.827   9.244  21.206  0.00  0.00    +0.000 A 
ATOM     20  C   UNL     1       1.469   8.319  20.380  0.00  0.00    +0.000 A 
ATOM     21  C   UNL     1       1.684   8.601  19.023  0.00  0.00    +0.000 A 
ATOM     22  C   UNL     1       1.259   9.838  18.507  0.00  0.00    +0.000 A 
ATOM     23  C   UNL     1       0.626  10.771  19.342  0.00  0.00    +0.000 A 
BRANCH  18  25
ATOM     24  C   UNL     1      -0.990  10.581  23.093  0.00  0.00    +0.000 C 
ATOM     25  S   UNL     1      -0.491  11.679  21.720  0.00  0.00    +0.000 S 
ENDBRANCH  18  25
ENDBRANCH  17  21
ENDBRANCH  15  17
ENDBRANCH   1  15
TORSDOF 6
ENDMDL
MODEL 4
REMARK VINA RESULT:      -7.5      3.253      6.801
REMARK  Name = 
REMARK  8 active torsions:
REMARK  status: ('A' for Active; 'I' for Inactive)
REMARK    1  A    between atoms: C_1  and  S_2
REMARK    2  A    between atoms: S_2  and  C_3
REMARK    3  A    between atoms: C_6  and  C_7
REMARK    4  A    between atoms: C_7  and  N_8
REMARK    5  A    between atoms: N_8  and  C_9
REMARK    6  A    between atoms: C_9  and  C_10
REMARK    7  A    between atoms: C_9  and  C_17
REMARK    8  A    between atoms: N_21  and  C_22
REMARK                            x       y       z     vdW  Elec       q    Type
REMARK                         _______ _______ _______ _____ _____    ______ ____
ROOT
ATOM      1  C   UNL     1       3.335   5.704  18.784  0.00  0.00    +0.000 C 
ENDROOT
BRANCH   1   2
ATOM      2  C   UNL     1       2.554   4.651  19.549  0.00  0.00    +0.000 A 
ATOM      3  C   UNL     1       2.877   4.385  20.892  0.00  0.00    +0.000 A 
ATOM      4  C   UNL     1       2.179   3.410  21.612  0.00  0.00    +0.000 A 
ATOM      5  C   UNL     1       1.146   2.697  21.004  0.00  0.00    +0.000 A 
ATOM      6  C   UNL     1       0.808   2.955  19.673  0.00  0.00    +0.000 A 
ATOM      7  C   UNL     1       1.506   3.926  18.944  0.00  0.00    +0.000 A 
ATOM      8  F   UNL     1       1.162   4.159  17.652  0.00  0.00    +0.000 F 
ENDBRANCH   1   2
BRANCH   1   9
ATOM      9  C   UNL     1       4.379   5.049  17.890  0.00  0.00    +0.000 A 
ATOM     10  N   UNL     1       4.072   4.490  16.701  0.00  0.00    +0.000 NA
ATOM     11  C   UNL     1       5.239   4.043  16.204  0.00  0.00    +0.000 A 
ATOM     12  C   UNL     1       6.248   4.330  17.095  0.00  0.00    +0.000 A 
ATOM     13  N   UNL     1       5.707   4.956  18.154  0.00  0.00    +0.000 N 
ATOM     14  C   UNL     1       6.446   5.425  19.324  0.00  0.00    +0.000 C 
ENDBRANCH   1   9
BRANCH   1  15
ATOM     15  N   UNL     1       2.441   6.539  17.951  0.00  0.00    +0.000 NA
ATOM     16  H   UNL     1       2.421   6.139  16.981  0.00  0.00    +0.000 HD
BRANCH  15  17
ATOM     17  C   UNL     1       2.846   7.949  17.835  0.00  0.00    +0.000 C 
BRANCH  17  21
ATOM     18  C   UNL     1       0.242  10.294  20.391  0.00  0.00    +0.000 A 
ATOM     19  C   UNL     1       0.780   9.074  20.830  0.00  0.00    +0.000 A 
ATOM     20  C   UNL     1       1.632   8.337  20.006  0.00  0.00    +0.000 A 
ATOM     21  C   UNL     1       1.952   8.791  18.718  0.00  0.00    +0.000 A 
ATOM     22  C   UNL     1       1.417  10.013  18.273  0.00  0.00    +0.000 A 
ATOM     23  C   UNL     1       0.572  10.760  19.108  0.00  0.00    +0.000 A 
BRANCH  18  25
ATOM     24  C   UNL     1      -0.721  10.358  22.989  0.00  0.00    +0.000 C 
ATOM     25  S   UNL     1      -0.915  11.249  21.405  0.00  0.00    +0.000 S 
ENDBRANCH  18  25
ENDBRANCH  17  21
ENDBRANCH  15  17
ENDBRANCH   1  15
TORSDOF 6
ENDMDL
MODEL 5
REMARK VINA RESULT:      -7.5      3.327      6.916
REMARK  Name = 
REMARK  8 active torsions:
REMARK  status: ('A' for Active; 'I' for Inactive)
REMARK    1  A    between atoms: C_1  and  S_2
REMARK    2  A    between atoms: S_2  and  C_3
REMARK    3  A    between atoms: C_6  and  C_7
REMARK    4  A    between atoms: C_7  and  N_8
REMARK    5  A    between atoms: N_8  and  C_9
REMARK    6  A    between atoms: C_9  and  C_10
REMARK    7  A    between atoms: C_9  and  C_17
REMARK    8  A    between atoms: N_21  and  C_22
REMARK                            x       y       z     vdW  Elec       q    Type
REMARK                         _______ _______ _______ _____ _____    ______ ____
ROOT
ATOM      1  C   UNL     1       3.285   5.771  18.774  0.00  0.00    +0.000 C 
ENDROOT
BRANCH   1   2
ATOM      2  C   UNL     1       2.526   4.696  19.530  0.00  0.00    +0.000 A 
ATOM      3  C   UNL     1       2.848   4.433  20.875  0.00  0.00    +0.000 A 
ATOM      4  C   UNL     1       2.169   3.438  21.586  0.00  0.00    +0.000 A 
ATOM      5  C   UNL     1       1.158   2.702  20.969  0.00  0.00    +0.000 A 
ATOM      6  C   UNL     1       0.822   2.957  19.637  0.00  0.00    +0.000 A 
ATOM      7  C   UNL     1       1.500   3.948  18.916  0.00  0.00    +0.000 A 
ATOM      8  F   UNL     1       1.158   4.177  17.623  0.00  0.00    +0.000 F 
ENDBRANCH   1   2
BRANCH   1   9
ATOM      9  C   UNL     1       4.328   5.144  17.859  0.00  0.00    +0.000 A 
ATOM     10  N   UNL     1       4.024   4.644  16.643  0.00  0.00    +0.000 NA
ATOM     11  C   UNL     1       5.189   4.205  16.135  0.00  0.00    +0.000 A 
ATOM     12  C   UNL     1       6.194   4.438  17.046  0.00  0.00    +0.000 A 
ATOM     13  N   UNL     1       5.653   5.022  18.129  0.00  0.00    +0.000 N 
ATOM     14  C   UNL     1       6.388   5.428  19.324  0.00  0.00    +0.000 C 
ENDBRANCH   1   9
BRANCH   1  15
ATOM     15  N   UNL     1       2.372   6.608  17.963  0.00  0.00    +0.000 NA
ATOM     16  H   UNL     1       2.487   6.343  16.955  0.00  0.00    +0.000 HD
BRANCH  15  17
ATOM     17  C   UNL     1       2.608   8.056  18.067  0.00  0.00    +0.000 C 
BRANCH  17  21
ATOM     18  C   UNL     1       0.221   9.732  21.276  0.00  0.00    +0.000 A 
ATOM     19  C   UNL     1       0.264  10.341  20.012  0.00  0.00    +0.000 A 
ATOM     20  C   UNL     1       1.022   9.783  18.981  0.00  0.00    +0.000 A 
ATOM     21  C   UNL     1       1.766   8.613  19.193  0.00  0.00    +0.000 A 
ATOM     22  C   UNL     1       1.726   7.998  20.457  0.00  0.00    +0.000 A 
ATOM     23  C   UNL     1       0.953   8.553  21.488  0.00  0.00    +0.000 A 
BRANCH  18  25
ATOM     24  C   UNL     1      -0.622  12.218  22.168  0.00  0.00    +0.000 C 
ATOM     25  S   UNL     1      -0.699  10.458  22.656  0.00  0.00    +0.000 S 
ENDBRANCH  18  25
ENDBRANCH  17  21
ENDBRANCH  15  17
ENDBRANCH   1  15
TORSDOF 6
ENDMDL
MODEL 6
REMARK VINA RESULT:      -7.5      3.197      6.675
REMARK  Name = 
REMARK  8 active torsions:
REMARK  status: ('A' for Active; 'I' for Inactive)
REMARK    1  A    between atoms: C_1  and  S_2
REMARK    2  A    between atoms: S_2  and  C_3
REMARK    3  A    between atoms: C_6  and  C_7
REMARK    4  A    between atoms: C_7  and  N_8
REMARK    5  A    between atoms: N_8  and  C_9
REMARK    6  A    between atoms: C_9  and  C_10
REMARK    7  A    between atoms: C_9  and  C_17
REMARK    8  A    between atoms: N_21  and  C_22
REMARK                            x       y       z     vdW  Elec       q    Type
REMARK                         _______ _______ _______ _____ _____    ______ ____
ROOT
ATOM      1  C   UNL     1       3.284   5.292  18.172  0.00  0.00    +0.000 C 
ENDROOT
BRANCH   1   2
ATOM      2  C   UNL     1       4.678   5.000  17.644  0.00  0.00    +0.000 A 
ATOM      3  C   UNL     1       4.844   4.590  16.308  0.00  0.00    +0.000 A 
ATOM      4  C   UNL     1       6.117   4.304  15.806  0.00  0.00    +0.000 A 
ATOM      5  C   UNL     1       7.238   4.431  16.626  0.00  0.00    +0.000 A 
ATOM      6  C   UNL     1       7.089   4.844  17.952  0.00  0.00    +0.000 A 
ATOM      7  C   UNL     1       5.817   5.128  18.465  0.00  0.00    +0.000 A 
ATOM      8  F   UNL     1       5.697   5.525  19.756  0.00  0.00    +0.000 F 
ENDBRANCH   1   2
BRANCH   1   9
ATOM      9  C   UNL     1       2.871   4.244  19.196  0.00  0.00    +0.000 A 
ATOM     10  N   UNL     1       2.822   4.500  20.520  0.00  0.00    +0.000 NA
ATOM     11  C   UNL     1       2.400   3.356  21.090  0.00  0.00    +0.000 A 
ATOM     12  C   UNL     1       2.199   2.412  20.109  0.00  0.00    +0.000 A 
ATOM     13  N   UNL     1       2.499   2.968  18.922  0.00  0.00    +0.000 N 
ATOM     14  C   UNL     1       2.419   2.290  17.630  0.00  0.00    +0.000 C 
ENDBRANCH   1   9
BRANCH   1  15
ATOM     15  N   UNL     1       3.213   6.632  18.796  0.00  0.00    +0.000 NA
ATOM     16  H   UNL     1       2.628   6.564  19.664  0.00  0.00    +0.000 HD
BRANCH  15  17
ATOM     17  C   UNL     1       2.619   7.676  17.947  0.00  0.00    +0.000 C 
BRANCH  17  21
ATOM     18  C   UNL     1       0.125  10.283  20.353  0.00  0.00    +0.000 A 
ATOM     19  C   UNL     1       0.277  10.498  18.975  0.00  0.00    +0.000 A 
ATOM     20  C   UNL     1       1.068   9.642  18.206  0.00  0.00    +0.000 A 
ATOM     21  C   UNL     1       1.738   8.561  18.799  0.00  0.00    +0.000 A 
ATOM     22  C   UNL     1       1.587   8.341  20.180  0.00  0.00    +0.000 A 
ATOM     23  C   UNL     1       0.781   9.194  20.948  0.00  0.00    +0.000 A 
BRANCH  18  25
ATOM     24  C   UNL     1      -0.811  10.459  22.956  0.00  0.00    +0.000 C 
ATOM     25  S   UNL     1      -0.841  11.406  21.394  0.00  0.00    +0.000 S 
ENDBRANCH  18  25
ENDBRANCH  17  21
ENDBRANCH  15  17
ENDBRANCH   1  15
TORSDOF 6
ENDMDL
MODEL 7
REMARK VINA RESULT:      -7.5      3.177      6.576
REMARK  Name = 
REMARK  8 active torsions:
REMARK  status: ('A' for Active; 'I' for Inactive)
REMARK    1  A    between atoms: C_1  and  S_2
REMARK    2  A    between atoms: S_2  and  C_3
REMARK    3  A    between atoms: C_6  and  C_7
REMARK    4  A    between atoms: C_7  and  N_8
REMARK    5  A    between atoms: N_8  and  C_9
REMARK    6  A    between atoms: C_9  and  C_10
REMARK    7  A    between atoms: C_9  and  C_17
REMARK    8  A    between atoms: N_21  and  C_22
REMARK                            x       y       z     vdW  Elec       q    Type
REMARK                         _______ _______ _______ _____ _____    ______ ____
ROOT
ATOM      1  C   UNL     1       3.626   4.856  18.245  0.00  0.00    +0.000 C 
ENDROOT
BRANCH   1   2
ATOM      2  C   UNL     1       4.874   4.730  17.388  0.00  0.00    +0.000 A 
ATOM      3  C   UNL     1       4.785   4.145  16.112  0.00  0.00    +0.000 A 
ATOM      4  C   UNL     1       5.924   4.008  15.312  0.00  0.00    +0.000 A 
ATOM      5  C   UNL     1       7.161   4.460  15.772  0.00  0.00    +0.000 A 
ATOM      6  C   UNL     1       7.264   5.050  17.034  0.00  0.00    +0.000 A 
ATOM      7  C   UNL     1       6.129   5.186  17.844  0.00  0.00    +0.000 A 
ATOM      8  F   UNL     1       6.253   5.760  19.067  0.00  0.00    +0.000 F 
ENDBRANCH   1   2
BRANCH   1   9
ATOM      9  C   UNL     1       3.613   3.785  19.327  0.00  0.00    +0.000 A 
ATOM     10  N   UNL     1       4.680   3.002  19.590  0.00  0.00    +0.000 NA
ATOM     11  C   UNL     1       4.299   2.209  20.607  0.00  0.00    +0.000 A 
ATOM     12  C   UNL     1       3.003   2.512  20.954  0.00  0.00    +0.000 A 
ATOM     13  N   UNL     1       2.571   3.497  20.147  0.00  0.00    +0.000 N 
ATOM     14  C   UNL     1       1.242   4.101  20.192  0.00  0.00    +0.000 C 
ENDBRANCH   1   9
BRANCH   1  15
ATOM     15  N   UNL     1       3.542   6.188  18.883  0.00  0.00    +0.000 NA
ATOM     16  H   UNL     1       2.962   6.104  19.753  0.00  0.00    +0.000 HD
BRANCH  15  17
ATOM     17  C   UNL     1       2.929   7.234  18.047  0.00  0.00    +0.000 C 
BRANCH  17  21
ATOM     18  C   UNL     1       0.491   9.835  20.515  0.00  0.00    +0.000 A 
ATOM     19  C   UNL     1       0.741  10.141  19.168  0.00  0.00    +0.000 A 
ATOM     20  C   UNL     1       1.512   9.287  18.378  0.00  0.00    +0.000 A 
ATOM     21  C   UNL     1       2.065   8.117  18.919  0.00  0.00    +0.000 A 
ATOM     22  C   UNL     1       1.817   7.805  20.268  0.00  0.00    +0.000 A 
ATOM     23  C   UNL     1       1.030   8.658  21.057  0.00  0.00    +0.000 A 
BRANCH  18  25
ATOM     24  C   UNL     1      -0.515   9.918  23.097  0.00  0.00    +0.000 C 
ATOM     25  S   UNL     1      -0.452  10.948  21.589  0.00  0.00    +0.000 S 
ENDBRANCH  18  25
ENDBRANCH  17  21
ENDBRANCH  15  17
ENDBRANCH   1  15
TORSDOF 6
ENDMDL
MODEL 8
REMARK VINA RESULT:      -7.4      3.374      6.806
REMARK  Name = 
REMARK  8 active torsions:
REMARK  status: ('A' for Active; 'I' for Inactive)
REMARK    1  A    between atoms: C_1  and  S_2
REMARK    2  A    between atoms: S_2  and  C_3
REMARK    3  A    between atoms: C_6  and  C_7
REMARK    4  A    between atoms: C_7  and  N_8
REMARK    5  A    between atoms: N_8  and  C_9
REMARK    6  A    between atoms: C_9  and  C_10
REMARK    7  A    between atoms: C_9  and  C_17
REMARK    8  A    between atoms: N_21  and  C_22
REMARK                            x       y       z     vdW  Elec       q    Type
REMARK                         _______ _______ _______ _____ _____    ______ ____
ROOT
ATOM      1  C   UNL     1       3.289   5.293  18.478  0.00  0.00    +0.000 C 
ENDROOT
BRANCH   1   2
ATOM      2  C   UNL     1       4.765   5.080  18.191  0.00  0.00    +0.000 A 
ATOM      3  C   UNL     1       5.719   5.416  19.169  0.00  0.00    +0.000 A 
ATOM      4  C   UNL     1       7.083   5.240  18.921  0.00  0.00    +0.000 A 
ATOM      5  C   UNL     1       7.511   4.719  17.700  0.00  0.00    +0.000 A 
ATOM      6  C   UNL     1       6.575   4.374  16.721  0.00  0.00    +0.000 A 
ATOM      7  C   UNL     1       5.207   4.552  16.960  0.00  0.00    +0.000 A 
ATOM      8  F   UNL     1       4.316   4.211  15.995  0.00  0.00    +0.000 F 
ENDBRANCH   1   2
BRANCH   1   9
ATOM      9  C   UNL     1       2.780   4.244  19.457  0.00  0.00    +0.000 A 
ATOM     10  N   UNL     1       2.718   4.460  20.788  0.00  0.00    +0.000 NA
ATOM     11  C   UNL     1       2.204   3.331  21.310  0.00  0.00    +0.000 A 
ATOM     12  C   UNL     1       1.959   2.436  20.293  0.00  0.00    +0.000 A 
ATOM     13  N   UNL     1       2.325   3.007  19.133  0.00  0.00    +0.000 N 
ATOM     14  C   UNL     1       2.226   2.380  17.817  0.00  0.00    +0.000 C 
ENDBRANCH   1   9
BRANCH   1  15
ATOM     15  N   UNL     1       3.037   6.639  19.038  0.00  0.00    +0.000 NA
ATOM     16  H   UNL     1       2.439   6.537  19.894  0.00  0.00    +0.000 HD
BRANCH  15  17
ATOM     17  C   UNL     1       2.345   7.566  18.128  0.00  0.00    +0.000 C 
BRANCH  17  21
ATOM     18  C   UNL     1       0.482  10.734  20.429  0.00  0.00    +0.000 A 
ATOM     19  C   UNL     1       0.752  10.896  19.061  0.00  0.00    +0.000 A 
ATOM     20  C   UNL     1       1.336   9.863  18.326  0.00  0.00    +0.000 A 
ATOM     21  C   UNL     1       1.678   8.651  18.943  0.00  0.00    +0.000 A 
ATOM     22  C   UNL     1       1.408   8.482  20.313  0.00  0.00    +0.000 A 
ATOM     23  C   UNL     1       0.809   9.517  21.047  0.00  0.00    +0.000 A 
BRANCH  18  25
ATOM     24  C   UNL     1      -1.044  11.074  22.718  0.00  0.00    +0.000 C 
ATOM     25  S   UNL     1      -0.216  12.072  21.430  0.00  0.00    +0.000 S 
ENDBRANCH  18  25
ENDBRANCH  17  21
ENDBRANCH  15  17
ENDBRANCH   1  15
TORSDOF 6
ENDMDL
MODEL 9
REMARK VINA RESULT:      -7.4      3.216      6.665
REMARK  Name = 
REMARK  8 active torsions:
REMARK  status: ('A' for Active; 'I' for Inactive)
REMARK    1  A    between atoms: C_1  and  S_2
REMARK    2  A    between atoms: S_2  and  C_3
REMARK    3  A    between atoms: C_6  and  C_7
REMARK    4  A    between atoms: C_7  and  N_8
REMARK    5  A    between atoms: N_8  and  C_9
REMARK    6  A    between atoms: C_9  and  C_10
REMARK    7  A    between atoms: C_9  and  C_17
REMARK    8  A    between atoms: N_21  and  C_22
REMARK                            x       y       z     vdW  Elec       q    Type
REMARK                         _______ _______ _______ _____ _____    ______ ____
ROOT
ATOM      1  C   UNL     1       3.136   5.385  18.171  0.00  0.00    +0.000 C 
ENDROOT
BRANCH   1   2
ATOM      2  C   UNL     1       4.527   5.093  17.636  0.00  0.00    +0.000 A 
ATOM      3  C   UNL     1       4.686   4.689  16.298  0.00  0.00    +0.000 A 
ATOM      4  C   UNL     1       5.957   4.403  15.789  0.00  0.00    +0.000 A 
ATOM      5  C   UNL     1       7.082   4.524  16.604  0.00  0.00    +0.000 A 
ATOM      6  C   UNL     1       6.940   4.931  17.933  0.00  0.00    +0.000 A 
ATOM      7  C   UNL     1       5.670   5.215  18.453  0.00  0.00    +0.000 A 
ATOM      8  F   UNL     1       5.556   5.607  19.747  0.00  0.00    +0.000 F 
ENDBRANCH   1   2
BRANCH   1   9
ATOM      9  C   UNL     1       2.741   4.354  19.220  0.00  0.00    +0.000 A 
ATOM     10  N   UNL     1       2.695   4.637  20.538  0.00  0.00    +0.000 NA
ATOM     11  C   UNL     1       2.289   3.502  21.134  0.00  0.00    +0.000 A 
ATOM     12  C   UNL     1       2.095   2.534  20.175  0.00  0.00    +0.000 A 
ATOM     13  N   UNL     1       2.383   3.068  18.975  0.00  0.00    +0.000 N 
ATOM     14  C   UNL     1       2.304   2.362  17.698  0.00  0.00    +0.000 C 
ENDBRANCH   1   9
BRANCH   1  15
ATOM     15  N   UNL     1       3.061   6.736  18.770  0.00  0.00    +0.000 NA
ATOM     16  H   UNL     1       2.473   6.683  19.637  0.00  0.00    +0.000 HD
BRANCH  15  17
ATOM     17  C   UNL     1       2.467   7.763  17.899  0.00  0.00    +0.000 C 
BRANCH  17  21
ATOM     18  C   UNL     1       0.094  10.425  20.368  0.00  0.00    +0.000 A 
ATOM     19  C   UNL     1       0.746   9.313  20.923  0.00  0.00    +0.000 A 
ATOM     20  C   UNL     1       1.522   8.473  20.122  0.00  0.00    +0.000 A 
ATOM     21  C   UNL     1       1.652   8.715  18.746  0.00  0.00    +0.000 A 
ATOM     22  C   UNL     1       1.001   9.828  18.185  0.00  0.00    +0.000 A 
ATOM     23  C   UNL     1       0.232  10.679  18.994  0.00  0.00    +0.000 A 
BRANCH  18  25
ATOM     24  C   UNL     1      -0.877  10.618  22.957  0.00  0.00    +0.000 C 
ATOM     25  S   UNL     1      -0.971  11.501  21.360  0.00  0.00    +0.000 S 
ENDBRANCH  18  25
ENDBRANCH  17  21
ENDBRANCH  15  17
ENDBRANCH   1  15
TORSDOF 6
ENDMDL
