MODEL 1
REMARK VINA RESULT:      -6.8      0.000      0.000
REMARK  Name = 
REMARK  3 active torsions:
REMARK  status: ('A' for Active; 'I' for Inactive)
REMARK    1  A    between atoms: C_1  and  C_2
REMARK    2  A    between atoms: N_8  and  O_9
REMARK    3  A    between atoms: C_12  and  N_13
REMARK                            x       y       z     vdW  Elec       q    Type
REMARK                         _______ _______ _______ _____ _____    ______ ____
ROOT
ATOM      1  C   UNL     1       5.477   5.642  16.777  0.00  0.00    +0.000 C 
ATOM      2  C   UNL     1       4.370   5.974  17.741  0.00  0.00    +0.000 A 
ATOM      3  C   UNL     1       3.702   7.198  17.546  0.00  0.00    +0.000 A 
ATOM      4  C   UNL     1       2.657   7.592  18.376  0.00  0.00    +0.000 A 
ATOM      5  C   UNL     1       2.254   6.769  19.418  0.00  0.00    +0.000 A 
ATOM      6  C   UNL     1       2.892   5.536  19.631  0.00  0.00    +0.000 A 
ATOM      7  C   UNL     1       3.963   5.130  18.802  0.00  0.00    +0.000 A 
ATOM      8  N   UNL     1       4.580   3.894  19.108  0.00  0.00    +0.000 N 
ATOM      9  C   UNL     1       4.181   2.997  20.082  0.00  0.00    +0.000 C 
ATOM     10  O   UNL     1       4.845   2.007  20.404  0.00  0.00    +0.000 OA
ATOM     11  C   UNL     1       2.772   3.233  20.639  0.00  0.00    +0.000 C 
ATOM     12  C   UNL     1       2.492   4.714  20.832  0.00  0.00    +0.000 C 
ENDROOT
BRANCH  11  13
ATOM     13  N   UNL     1       2.584   2.498  21.913  0.00  0.00    +0.000 NA
ATOM     14  H   UNL     1       2.730   3.145  22.690  0.00  0.00    +0.000 HD
ATOM     15  H   UNL     1       3.365   1.839  22.000  0.00  0.00    +0.000 HD
ENDBRANCH  11  13
BRANCH   8  16
ATOM     16  O   UNL     1       5.831   3.618  18.518  0.00  0.00    +0.000 OA
ATOM     17  H   UNL     1       5.816   4.212  17.746  0.00  0.00    +0.000 HD
ENDBRANCH   8  16
TORSDOF 2
ENDMDL
MODEL 2
REMARK VINA RESULT:      -6.5      2.715      4.263
REMARK  Name = 
REMARK  3 active torsions:
REMARK  status: ('A' for Active; 'I' for Inactive)
REMARK    1  A    between atoms: C_1  and  C_2
REMARK    2  A    between atoms: N_8  and  O_9
REMARK    3  A    between atoms: C_12  and  N_13
REMARK                            x       y       z     vdW  Elec       q    Type
REMARK                         _______ _______ _______ _____ _____    ______ ____
ROOT
ATOM      1  C   UNL     1       3.192   2.434  17.434  0.00  0.00    +0.000 C 
ATOM      2  C   UNL     1       3.218   3.927  17.622  0.00  0.00    +0.000 A 
ATOM      3  C   UNL     1       2.042   4.527  18.112  0.00  0.00    +0.000 A 
ATOM      4  C   UNL     1       1.967   5.899  18.331  0.00  0.00    +0.000 A 
ATOM      5  C   UNL     1       3.067   6.702  18.067  0.00  0.00    +0.000 A 
ATOM      6  C   UNL     1       4.258   6.132  17.588  0.00  0.00    +0.000 A 
ATOM      7  C   UNL     1       4.343   4.741  17.351  0.00  0.00    +0.000 A 
ATOM      8  N   UNL     1       5.564   4.251  16.829  0.00  0.00    +0.000 N 
ATOM      9  C   UNL     1       6.717   4.984  16.614  0.00  0.00    +0.000 C 
ATOM     10  O   UNL     1       7.703   4.538  16.018  0.00  0.00    +0.000 OA
ATOM     11  C   UNL     1       6.750   6.354  17.302  0.00  0.00    +0.000 C 
ATOM     12  C   UNL     1       5.400   7.049  17.221  0.00  0.00    +0.000 C 
ENDROOT
BRANCH  11  13
ATOM     13  N   UNL     1       7.811   7.208  16.716  0.00  0.00    +0.000 NA
ATOM     14  H   UNL     1       8.444   7.502  17.463  0.00  0.00    +0.000 HD
ATOM     15  H   UNL     1       7.365   8.084  16.422  0.00  0.00    +0.000 HD
ENDBRANCH  11  13
BRANCH   8  16
ATOM     16  O   UNL     1       5.574   2.950  16.287  0.00  0.00    +0.000 OA
ATOM     17  H   UNL     1       5.396   3.131  15.345  0.00  0.00    +0.000 HD
ENDBRANCH   8  16
TORSDOF 2
ENDMDL
MODEL 3
REMARK VINA RESULT:      -6.5      1.782      2.084
REMARK  Name = 
REMARK  3 active torsions:
REMARK  status: ('A' for Active; 'I' for Inactive)
REMARK    1  A    between atoms: C_1  and  C_2
REMARK    2  A    between atoms: N_8  and  O_9
REMARK    3  A    between atoms: C_12  and  N_13
REMARK                            x       y       z     vdW  Elec       q    Type
REMARK                         _______ _______ _______ _____ _____    ______ ____
ROOT
ATOM      1  C   UNL     1       5.604   3.756  15.908  0.00  0.00    +0.000 C 
ATOM      2  C   UNL     1       4.803   4.778  16.669  0.00  0.00    +0.000 A 
ATOM      3  C   UNL     1       5.091   6.132  16.411  0.00  0.00    +0.000 A 
ATOM      4  C   UNL     1       4.399   7.154  17.054  0.00  0.00    +0.000 A 
ATOM      5  C   UNL     1       3.402   6.845  17.968  0.00  0.00    +0.000 A 
ATOM      6  C   UNL     1       3.084   5.504  18.238  0.00  0.00    +0.000 A 
ATOM      7  C   UNL     1       3.787   4.457  17.600  0.00  0.00    +0.000 A 
ATOM      8  N   UNL     1       3.435   3.134  17.959  0.00  0.00    +0.000 N 
ATOM      9  C   UNL     1       2.406   2.759  18.803  0.00  0.00    +0.000 C 
ATOM     10  O   UNL     1       2.240   1.600  19.197  0.00  0.00    +0.000 OA
ATOM     11  C   UNL     1       1.385   3.862  19.106  0.00  0.00    +0.000 C 
ATOM     12  C   UNL     1       2.063   5.207  19.310  0.00  0.00    +0.000 C 
ENDROOT
BRANCH  11  13
ATOM     13  N   UNL     1       0.567   3.507  20.291  0.00  0.00    +0.000 NA
ATOM     14  H   UNL     1      -0.183   2.879  19.995  0.00  0.00    +0.000 HD
ATOM     15  H   UNL     1       0.069   4.356  20.580  0.00  0.00    +0.000 HD
ENDBRANCH  11  13
BRANCH   8  16
ATOM     16  O   UNL     1       4.316   2.095  17.594  0.00  0.00    +0.000 OA
ATOM     17  H   UNL     1       4.415   1.619  18.439  0.00  0.00    +0.000 HD
ENDBRANCH   8  16
TORSDOF 2
ENDMDL
MODEL 4
REMARK VINA RESULT:      -6.4      1.883      1.916
REMARK  Name = 
REMARK  3 active torsions:
REMARK  status: ('A' for Active; 'I' for Inactive)
REMARK    1  A    between atoms: C_1  and  C_2
REMARK    2  A    between atoms: N_8  and  O_9
REMARK    3  A    between atoms: C_12  and  N_13
REMARK                            x       y       z     vdW  Elec       q    Type
REMARK                         _______ _______ _______ _____ _____    ______ ____
ROOT
ATOM      1  C   UNL     1       5.873   5.783  16.224  0.00  0.00    +0.000 C 
ATOM      2  C   UNL     1       4.594   6.021  16.980  0.00  0.00    +0.000 A 
ATOM      3  C   UNL     1       4.204   7.361  17.165  0.00  0.00    +0.000 A 
ATOM      4  C   UNL     1       3.032   7.687  17.841  0.00  0.00    +0.000 A 
ATOM      5  C   UNL     1       2.223   6.680  18.346  0.00  0.00    +0.000 A 
ATOM      6  C   UNL     1       2.579   5.333  18.168  0.00  0.00    +0.000 A 
ATOM      7  C   UNL     1       3.772   4.989  17.493  0.00  0.00    +0.000 A 
ATOM      8  N   UNL     1       4.080   3.611  17.393  0.00  0.00    +0.000 N 
ATOM      9  C   UNL     1       3.283   2.561  17.808  0.00  0.00    +0.000 C 
ATOM     10  O   UNL     1       3.667   1.387  17.832  0.00  0.00    +0.000 OA
ATOM     11  C   UNL     1       1.825   2.932  18.101  0.00  0.00    +0.000 C 
ATOM     12  C   UNL     1       1.725   4.269  18.816  0.00  0.00    +0.000 C 
ENDROOT
BRANCH  11  13
ATOM     13  N   UNL     1       1.163   1.868  18.893  0.00  0.00    +0.000 NA
ATOM     14  H   UNL     1       0.750   2.289  19.727  0.00  0.00    +0.000 HD
ATOM     15  H   UNL     1       1.904   1.267  19.271  0.00  0.00    +0.000 HD
ENDBRANCH  11  13
BRANCH   8  16
ATOM     16  O   UNL     1       5.393   3.255  17.021  0.00  0.00    +0.000 OA
ATOM     17  H   UNL     1       5.253   2.365  16.647  0.00  0.00    +0.000 HD
ENDBRANCH   8  16
TORSDOF 2
ENDMDL
MODEL 5
REMARK VINA RESULT:      -6.2      1.037      1.109
REMARK  Name = 
REMARK  3 active torsions:
REMARK  status: ('A' for Active; 'I' for Inactive)
REMARK    1  A    between atoms: C_1  and  C_2
REMARK    2  A    between atoms: N_8  and  O_9
REMARK    3  A    between atoms: C_12  and  N_13
REMARK                            x       y       z     vdW  Elec       q    Type
REMARK                         _______ _______ _______ _____ _____    ______ ____
ROOT
ATOM      1  C   UNL     1       6.317   5.129  17.627  0.00  0.00    +0.000 C 
ATOM      2  C   UNL     1       4.959   5.703  17.928  0.00  0.00    +0.000 A 
ATOM      3  C   UNL     1       4.653   6.951  17.351  0.00  0.00    +0.000 A 
ATOM      4  C   UNL     1       3.421   7.562  17.560  0.00  0.00    +0.000 A 
ATOM      5  C   UNL     1       2.465   6.938  18.348  0.00  0.00    +0.000 A 
ATOM      6  C   UNL     1       2.735   5.688  18.928  0.00  0.00    +0.000 A 
ATOM      7  C   UNL     1       3.987   5.062  18.733  0.00  0.00    +0.000 A 
ATOM      8  N   UNL     1       4.195   3.823  19.385  0.00  0.00    +0.000 N 
ATOM      9  C   UNL     1       3.262   3.117  20.120  0.00  0.00    +0.000 C 
ATOM     10  O   UNL     1       3.542   2.118  20.791  0.00  0.00    +0.000 OA
ATOM     11  C   UNL     1       1.811   3.572  19.931  0.00  0.00    +0.000 C 
ATOM     12  C   UNL     1       1.708   5.087  19.857  0.00  0.00    +0.000 C 
ENDROOT
BRANCH  11  13
ATOM     13  N   UNL     1       0.950   3.045  21.017  0.00  0.00    +0.000 NA
ATOM     14  H   UNL     1       0.419   3.819  21.420  0.00  0.00    +0.000 HD
ATOM     15  H   UNL     1       1.571   2.757  21.782  0.00  0.00    +0.000 HD
ENDBRANCH  11  13
BRANCH   8  16
ATOM     16  O   UNL     1       5.517   3.340  19.476  0.00  0.00    +0.000 OA
ATOM     17  H   UNL     1       5.612   3.216  20.438  0.00  0.00    +0.000 HD
ENDBRANCH   8  16
TORSDOF 2
ENDMDL
MODEL 6
REMARK VINA RESULT:      -6.2      1.706      3.965
REMARK  Name = 
REMARK  3 active torsions:
REMARK  status: ('A' for Active; 'I' for Inactive)
REMARK    1  A    between atoms: C_1  and  C_2
REMARK    2  A    between atoms: N_8  and  O_9
REMARK    3  A    between atoms: C_12  and  N_13
REMARK                            x       y       z     vdW  Elec       q    Type
REMARK                         _______ _______ _______ _____ _____    ______ ____
ROOT
ATOM      1  C   UNL     1       3.084   2.590  20.320  0.00  0.00    +0.000 C 
ATOM      2  C   UNL     1       2.899   4.041  19.967  0.00  0.00    +0.000 A 
ATOM      3  C   UNL     1       2.072   4.802  20.816  0.00  0.00    +0.000 A 
ATOM      4  C   UNL     1       1.846   6.155  20.583  0.00  0.00    +0.000 A 
ATOM      5  C   UNL     1       2.443   6.778  19.497  0.00  0.00    +0.000 A 
ATOM      6  C   UNL     1       3.283   6.049  18.639  0.00  0.00    +0.000 A 
ATOM      7  C   UNL     1       3.511   4.672  18.858  0.00  0.00    +0.000 A 
ATOM      8  N   UNL     1       4.336   4.000  17.924  0.00  0.00    +0.000 N 
ATOM      9  C   UNL     1       5.017   4.576  16.868  0.00  0.00    +0.000 C 
ATOM     10  O   UNL     1       5.599   3.920  15.998  0.00  0.00    +0.000 OA
ATOM     11  C   UNL     1       5.129   6.104  16.928  0.00  0.00    +0.000 C 
ATOM     12  C   UNL     1       3.835   6.737  17.414  0.00  0.00    +0.000 C 
ENDROOT
BRANCH  11  13
ATOM     13  N   UNL     1       5.512   6.653  15.605  0.00  0.00    +0.000 NA
ATOM     14  H   UNL     1       4.676   7.022  15.149  0.00  0.00    +0.000 HD
ATOM     15  H   UNL     1       5.776   5.858  15.013  0.00  0.00    +0.000 HD
ENDBRANCH  11  13
BRANCH   8  16
ATOM     16  O   UNL     1       4.322   2.590  17.928  0.00  0.00    +0.000 OA
ATOM     17  H   UNL     1       3.563   2.402  17.344  0.00  0.00    +0.000 HD
ENDBRANCH   8  16
TORSDOF 2
ENDMDL
MODEL 7
REMARK VINA RESULT:      -6.1      1.794      3.982
REMARK  Name = 
REMARK  3 active torsions:
REMARK  status: ('A' for Active; 'I' for Inactive)
REMARK    1  A    between atoms: C_1  and  C_2
REMARK    2  A    between atoms: N_8  and  O_9
REMARK    3  A    between atoms: C_12  and  N_13
REMARK                            x       y       z     vdW  Elec       q    Type
REMARK                         _______ _______ _______ _____ _____    ______ ____
ROOT
ATOM      1  C   UNL     1       3.275   3.485  20.187  0.00  0.00    +0.000 C 
ATOM      2  C   UNL     1       3.267   4.738  19.352  0.00  0.00    +0.000 A 
ATOM      3  C   UNL     1       2.059   5.459  19.297  0.00  0.00    +0.000 A 
ATOM      4  C   UNL     1       1.951   6.635  18.562  0.00  0.00    +0.000 A 
ATOM      5  C   UNL     1       3.050   7.118  17.867  0.00  0.00    +0.000 A 
ATOM      6  C   UNL     1       4.272   6.428  17.911  0.00  0.00    +0.000 A 
ATOM      7  C   UNL     1       4.391   5.226  18.645  0.00  0.00    +0.000 A 
ATOM      8  N   UNL     1       5.645   4.570  18.604  0.00  0.00    +0.000 N 
ATOM      9  C   UNL     1       6.794   5.035  17.993  0.00  0.00    +0.000 C 
ATOM     10  O   UNL     1       7.815   4.352  17.861  0.00  0.00    +0.000 OA
ATOM     11  C   UNL     1       6.770   6.520  17.617  0.00  0.00    +0.000 C 
ATOM     12  C   UNL     1       5.416   6.932  17.064  0.00  0.00    +0.000 C 
ENDROOT
BRANCH  11  13
ATOM     13  N   UNL     1       7.845   6.831  16.643  0.00  0.00    +0.000 NA
ATOM     14  H   UNL     1       7.460   6.771  15.699  0.00  0.00    +0.000 HD
ATOM     15  H   UNL     1       8.517   6.056  16.677  0.00  0.00    +0.000 HD
ENDBRANCH  11  13
BRANCH   8  16
ATOM     16  O   UNL     1       5.703   3.232  19.047  0.00  0.00    +0.000 OA
ATOM     17  H   UNL     1       5.267   2.765  18.310  0.00  0.00    +0.000 HD
ENDBRANCH   8  16
TORSDOF 2
ENDMDL
MODEL 8
REMARK VINA RESULT:      -6.1      2.382      4.325
REMARK  Name = 
REMARK  3 active torsions:
REMARK  status: ('A' for Active; 'I' for Inactive)
REMARK    1  A    between atoms: C_1  and  C_2
REMARK    2  A    between atoms: N_8  and  O_9
REMARK    3  A    between atoms: C_12  and  N_13
REMARK                            x       y       z     vdW  Elec       q    Type
REMARK                         _______ _______ _______ _____ _____    ______ ____
ROOT
ATOM      1  C   UNL     1       1.683   5.765  20.719  0.00  0.00    +0.000 C 
ATOM      2  C   UNL     1       1.787   4.540  19.850  0.00  0.00    +0.000 A 
ATOM      3  C   UNL     1       0.738   3.604  19.942  0.00  0.00    +0.000 A 
ATOM      4  C   UNL     1       0.734   2.444  19.174  0.00  0.00    +0.000 A 
ATOM      5  C   UNL     1       1.778   2.194  18.295  0.00  0.00    +0.000 A 
ATOM      6  C   UNL     1       2.833   3.114  18.172  0.00  0.00    +0.000 A 
ATOM      7  C   UNL     1       2.853   4.290  18.955  0.00  0.00    +0.000 A 
ATOM      8  N   UNL     1       3.972   5.144  18.803  0.00  0.00    +0.000 N 
ATOM      9  C   UNL     1       5.004   4.991  17.895  0.00  0.00    +0.000 C 
ATOM     10  O   UNL     1       6.027   5.682  17.909  0.00  0.00    +0.000 OA
ATOM     11  C   UNL     1       4.727   3.992  16.766  0.00  0.00    +0.000 C 
ATOM     12  C   UNL     1       3.997   2.761  17.278  0.00  0.00    +0.000 C 
ENDROOT
BRANCH  11  13
ATOM     13  N   UNL     1       5.988   3.604  16.089  0.00  0.00    +0.000 NA
ATOM     14  H   UNL     1       6.765   3.748  16.736  0.00  0.00    +0.000 HD
ATOM     15  H   UNL     1       6.160   4.296  15.351  0.00  0.00    +0.000 HD
ENDBRANCH  11  13
BRANCH   8  16
ATOM     16  O   UNL     1       4.181   6.138  19.781  0.00  0.00    +0.000 OA
ATOM     17  H   UNL     1       4.957   5.785  20.253  0.00  0.00    +0.000 HD
ENDBRANCH   8  16
TORSDOF 2
ENDMDL
MODEL 9
REMARK VINA RESULT:      -6.1      2.638      3.368
REMARK  Name = 
REMARK  3 active torsions:
REMARK  status: ('A' for Active; 'I' for Inactive)
REMARK    1  A    between atoms: C_1  and  C_2
REMARK    2  A    between atoms: N_8  and  O_9
REMARK    3  A    between atoms: C_12  and  N_13
REMARK                            x       y       z     vdW  Elec       q    Type
REMARK                         _______ _______ _______ _____ _____    ______ ____
ROOT
ATOM      1  C   UNL     1       7.679   5.594  18.501  0.00  0.00    +0.000 C 
ATOM      2  C   UNL     1       6.731   5.140  17.424  0.00  0.00    +0.000 A 
ATOM      3  C   UNL     1       7.037   5.523  16.104  0.00  0.00    +0.000 A 
ATOM      4  C   UNL     1       6.229   5.145  15.036  0.00  0.00    +0.000 A 
ATOM      5  C   UNL     1       5.098   4.374  15.263  0.00  0.00    +0.000 A 
ATOM      6  C   UNL     1       4.772   3.967  16.568  0.00  0.00    +0.000 A 
ATOM      7  C   UNL     1       5.579   4.354  17.662  0.00  0.00    +0.000 A 
ATOM      8  N   UNL     1       5.158   3.938  18.949  0.00  0.00    +0.000 N 
ATOM      9  C   UNL     1       4.088   3.111  19.234  0.00  0.00    +0.000 C 
ATOM     10  O   UNL     1       3.679   2.904  20.381  0.00  0.00    +0.000 OA
ATOM     11  C   UNL     1       3.526   2.343  18.033  0.00  0.00    +0.000 C 
ATOM     12  C   UNL     1       3.483   3.213  16.787  0.00  0.00    +0.000 C 
ENDROOT
BRANCH  11  13
ATOM     13  N   UNL     1       2.178   1.806  18.339  0.00  0.00    +0.000 NA
ATOM     14  H   UNL     1       2.258   0.802  18.512  0.00  0.00    +0.000 HD
ATOM     15  H   UNL     1       1.630   1.856  17.473  0.00  0.00    +0.000 HD
ENDBRANCH  11  13
BRANCH   8  16
ATOM     16  O   UNL     1       5.745   4.565  20.068  0.00  0.00    +0.000 OA
ATOM     17  H   UNL     1       6.465   3.944  20.282  0.00  0.00    +0.000 HD
ENDBRANCH   8  16
TORSDOF 2
ENDMDL
