MODEL 1
REMARK VINA RESULT:      -7.7      0.000      0.000
REMARK  Name = 
REMARK  6 active torsions:
REMARK  status: ('A' for Active; 'I' for Inactive)
REMARK    1  A    between atoms: C_1  and  C_2
REMARK    2  A    between atoms: C_2  and  C_15
REMARK    3  A    between atoms: N_3  and  N_4
REMARK    4  A    between atoms: C_9  and  C_10
REMARK    5  A    between atoms: C_10  and  C_11
REMARK    6  A    between atoms: C_11  and  O_13
REMARK                            x       y       z     vdW  Elec       q    Type
REMARK                         _______ _______ _______ _____ _____    ______ ____
ROOT
ATOM      1  N   UNL     1       4.909   6.563  17.393  0.00  0.00    +0.000 N 
ATOM      2  C   UNL     1       3.955   6.036  18.231  0.00  0.00    +0.000 C 
ATOM      3  N   UNL     1       3.306   6.738  19.102  0.00  0.00    +0.000 NA
ATOM      4  C   UNL     1       2.365   6.010  19.795  0.00  0.00    +0.000 C 
ATOM      5  O   UNL     1       1.627   6.507  20.636  0.00  0.00    +0.000 OA
ATOM      6  C   UNL     1       2.325   4.525  19.473  0.00  0.00    +0.000 C 
ATOM      7  S   UNL     1       3.580   4.330  18.171  0.00  0.00    +0.000 S 
ATOM      8  H   UNL     1       4.986   7.569  17.528  0.00  0.00    +0.000 HD
ENDROOT
BRANCH   1  11
ATOM      9  C   UNL     1       7.202   4.884  17.052  0.00  0.00    +0.000 C 
ATOM     10  C   UNL     1       6.248   5.333  15.961  0.00  0.00    +0.000 C 
ATOM     11  N   UNL     1       5.185   6.069  16.147  0.00  0.00    +0.000 NA
BRANCH  10  12
ATOM     12  C   UNL     1       6.575   4.868  14.568  0.00  0.00    +0.000 A 
ATOM     13  C   UNL     1       5.815   3.882  13.943  0.00  0.00    +0.000 A 
ATOM     14  C   UNL     1       6.139   3.519  12.637  0.00  0.00    +0.000 A 
ATOM     15  C   UNL     1       7.200   4.147  11.997  0.00  0.00    +0.000 A 
ATOM     16  C   UNL     1       7.905   5.115  12.696  0.00  0.00    +0.000 A 
ATOM     17  N   UNL     1       7.620   5.490  13.963  0.00  0.00    +0.000 NA
ENDBRANCH  10  12
ENDBRANCH   1  11
BRANCH   6  18
ATOM     18  C   UNL     1       2.625   3.732  20.741  0.00  0.00    +0.000 C 
BRANCH  18  19
ATOM     19  C   UNL     1       1.414   3.001  21.259  0.00  0.00    +0.000 C 
ATOM     20  O   UNL     1       1.384   2.359  22.293  0.00  0.00    +0.000 OA
BRANCH  19  21
ATOM     21  O   UNL     1       0.356   3.070  20.419  0.00  0.00    +0.000 OA
ATOM     22  H   UNL     1       0.575   3.287  19.494  0.00  0.00    +0.000 HD
ENDBRANCH  19  21
ENDBRANCH  18  19
ENDBRANCH   6  18
TORSDOF 5
ENDMDL
MODEL 2
REMARK VINA RESULT:      -7.6      0.994      1.162
REMARK  Name = 
REMARK  6 active torsions:
REMARK  status: ('A' for Active; 'I' for Inactive)
REMARK    1  A    between atoms: C_1  and  C_2
REMARK    2  A    between atoms: C_2  and  C_15
REMARK    3  A    between atoms: N_3  and  N_4
REMARK    4  A    between atoms: C_9  and  C_10
REMARK    5  A    between atoms: C_10  and  C_11
REMARK    6  A    between atoms: C_11  and  O_13
REMARK                            x       y       z     vdW  Elec       q    Type
REMARK                         _______ _______ _______ _____ _____    ______ ____
ROOT
ATOM      1  N   UNL     1       4.925   5.474  17.802  0.00  0.00    +0.000 N 
ATOM      2  C   UNL     1       3.743   5.111  18.403  0.00  0.00    +0.000 C 
ATOM      3  N   UNL     1       3.226   5.752  19.399  0.00  0.00    +0.000 NA
ATOM      4  C   UNL     1       2.015   5.237  19.808  0.00  0.00    +0.000 C 
ATOM      5  O   UNL     1       1.353   5.730  20.712  0.00  0.00    +0.000 OA
ATOM      6  C   UNL     1       1.563   3.982  19.078  0.00  0.00    +0.000 C 
ATOM      7  S   UNL     1       2.870   3.703  17.844  0.00  0.00    +0.000 S 
ATOM      8  H   UNL     1       5.290   6.327  18.218  0.00  0.00    +0.000 HD
ENDROOT
BRANCH   1  11
ATOM      9  C   UNL     1       7.545   4.560  17.101  0.00  0.00    +0.000 C 
ATOM     10  C   UNL     1       6.412   4.860  16.138  0.00  0.00    +0.000 C 
ATOM     11  N   UNL     1       5.211   5.240  16.483  0.00  0.00    +0.000 NA
BRANCH  10  12
ATOM     12  C   UNL     1       6.727   4.688  14.676  0.00  0.00    +0.000 A 
ATOM     13  C   UNL     1       6.002   3.799  13.886  0.00  0.00    +0.000 A 
ATOM     14  C   UNL     1       6.310   3.710  12.529  0.00  0.00    +0.000 A 
ATOM     15  C   UNL     1       7.321   4.506  12.005  0.00  0.00    +0.000 A 
ATOM     16  C   UNL     1       7.994   5.360  12.866  0.00  0.00    +0.000 A 
ATOM     17  N   UNL     1       7.722   5.470  14.185  0.00  0.00    +0.000 NA
ENDBRANCH  10  12
ENDBRANCH   1  11
BRANCH   6  18
ATOM     18  C   UNL     1       1.414   2.847  20.086  0.00  0.00    +0.000 C 
BRANCH  18  19
ATOM     19  C   UNL     1       2.552   2.802  21.070  0.00  0.00    +0.000 C 
ATOM     20  O   UNL     1       3.669   2.387  20.817  0.00  0.00    +0.000 OA
BRANCH  19  21
ATOM     21  O   UNL     1       2.196   3.212  22.309  0.00  0.00    +0.000 OA
ATOM     22  H   UNL     1       1.238   3.194  22.492  0.00  0.00    +0.000 HD
ENDBRANCH  19  21
ENDBRANCH  18  19
ENDBRANCH   6  18
TORSDOF 5
ENDMDL
MODEL 3
REMARK VINA RESULT:      -7.5      1.091      1.209
REMARK  Name = 
REMARK  6 active torsions:
REMARK  status: ('A' for Active; 'I' for Inactive)
REMARK    1  A    between atoms: C_1  and  C_2
REMARK    2  A    between atoms: C_2  and  C_15
REMARK    3  A    between atoms: N_3  and  N_4
REMARK    4  A    between atoms: C_9  and  C_10
REMARK    5  A    between atoms: C_10  and  C_11
REMARK    6  A    between atoms: C_11  and  O_13
REMARK                            x       y       z     vdW  Elec       q    Type
REMARK                         _______ _______ _______ _____ _____    ______ ____
ROOT
ATOM      1  N   UNL     1       6.137   5.191  18.156  0.00  0.00    +0.000 N 
ATOM      2  C   UNL     1       4.954   4.816  18.748  0.00  0.00    +0.000 C 
ATOM      3  N   UNL     1       4.316   5.556  19.594  0.00  0.00    +0.000 NA
ATOM      4  C   UNL     1       3.131   4.998  20.020  0.00  0.00    +0.000 C 
ATOM      5  O   UNL     1       2.369   5.563  20.793  0.00  0.00    +0.000 OA
ATOM      6  C   UNL     1       2.843   3.602  19.490  0.00  0.00    +0.000 C 
ATOM      7  S   UNL     1       4.250   3.257  18.390  0.00  0.00    +0.000 S 
ATOM      8  H   UNL     1       6.396   6.133  18.442  0.00  0.00    +0.000 HD
ENDROOT
BRANCH   1  11
ATOM      9  C   UNL     1       5.239   6.654  15.865  0.00  0.00    +0.000 C 
ATOM     10  C   UNL     1       6.101   5.405  15.852  0.00  0.00    +0.000 C 
ATOM     11  N   UNL     1       6.531   4.776  16.913  0.00  0.00    +0.000 NA
BRANCH  10  12
ATOM     12  C   UNL     1       6.483   4.882  14.493  0.00  0.00    +0.000 A 
ATOM     13  C   UNL     1       5.750   3.866  13.884  0.00  0.00    +0.000 A 
ATOM     14  C   UNL     1       6.123   3.449  12.608  0.00  0.00    +0.000 A 
ATOM     15  C   UNL     1       7.206   4.054  11.981  0.00  0.00    +0.000 A 
ATOM     16  C   UNL     1       7.882   5.054  12.664  0.00  0.00    +0.000 A 
ATOM     17  N   UNL     1       7.547   5.482  13.901  0.00  0.00    +0.000 NA
ENDBRANCH  10  12
ENDBRANCH   1  11
BRANCH   6  18
ATOM     18  C   UNL     1       2.727   2.637  20.665  0.00  0.00    +0.000 C 
BRANCH  18  19
ATOM     19  C   UNL     1       1.370   2.684  21.314  0.00  0.00    +0.000 C 
ATOM     20  O   UNL     1       1.137   2.329  22.456  0.00  0.00    +0.000 OA
BRANCH  19  21
ATOM     21  O   UNL     1       0.396   3.105  20.474  0.00  0.00    +0.000 OA
ATOM     22  H   UNL     1      -0.446   2.618  20.541  0.00  0.00    +0.000 HD
ENDBRANCH  19  21
ENDBRANCH  18  19
ENDBRANCH   6  18
TORSDOF 5
ENDMDL
MODEL 4
REMARK VINA RESULT:      -7.3      4.210      7.683
REMARK  Name = 
REMARK  6 active torsions:
REMARK  status: ('A' for Active; 'I' for Inactive)
REMARK    1  A    between atoms: C_1  and  C_2
REMARK    2  A    between atoms: C_2  and  C_15
REMARK    3  A    between atoms: N_3  and  N_4
REMARK    4  A    between atoms: C_9  and  C_10
REMARK    5  A    between atoms: C_10  and  C_11
REMARK    6  A    between atoms: C_11  and  O_13
REMARK                            x       y       z     vdW  Elec       q    Type
REMARK                         _______ _______ _______ _____ _____    ______ ____
ROOT
ATOM      1  N   UNL     1       4.782   5.755  16.639  0.00  0.00    +0.000 N 
ATOM      2  C   UNL     1       5.580   5.274  15.628  0.00  0.00    +0.000 C 
ATOM      3  N   UNL     1       6.638   5.884  15.204  0.00  0.00    +0.000 NA
ATOM      4  C   UNL     1       7.307   5.193  14.219  0.00  0.00    +0.000 C 
ATOM      5  O   UNL     1       8.350   5.591  13.718  0.00  0.00    +0.000 OA
ATOM      6  C   UNL     1       6.642   3.904  13.763  0.00  0.00    +0.000 C 
ATOM      7  S   UNL     1       5.172   3.775  14.827  0.00  0.00    +0.000 S 
ATOM      8  H   UNL     1       5.171   6.615  17.021  0.00  0.00    +0.000 HD
ENDROOT
BRANCH   1  11
ATOM      9  C   UNL     1       2.662   6.928  18.164  0.00  0.00    +0.000 C 
ATOM     10  C   UNL     1       3.112   5.480  18.218  0.00  0.00    +0.000 C 
ATOM     11  N   UNL     1       4.058   4.957  17.483  0.00  0.00    +0.000 NA
BRANCH  10  12
ATOM     12  C   UNL     1       2.384   4.599  19.198  0.00  0.00    +0.000 A 
ATOM     13  C   UNL     1       1.433   3.679  18.766  0.00  0.00    +0.000 A 
ATOM     14  C   UNL     1       0.819   2.861  19.713  0.00  0.00    +0.000 A 
ATOM     15  C   UNL     1       1.172   2.983  21.052  0.00  0.00    +0.000 A 
ATOM     16  C   UNL     1       2.126   3.930  21.392  0.00  0.00    +0.000 A 
ATOM     17  N   UNL     1       2.739   4.740  20.501  0.00  0.00    +0.000 NA
ENDBRANCH  10  12
ENDBRANCH   1  11
BRANCH   6  18
ATOM     18  C   UNL     1       6.319   4.009  12.276  0.00  0.00    +0.000 C 
BRANCH  18  19
ATOM     19  C   UNL     1       5.416   2.899  11.806  0.00  0.00    +0.000 C 
ATOM     20  O   UNL     1       4.253   3.047  11.477  0.00  0.00    +0.000 OA
BRANCH  19  21
ATOM     21  O   UNL     1       6.008   1.683  11.846  0.00  0.00    +0.000 OA
ATOM     22  H   UNL     1       6.718   1.547  11.190  0.00  0.00    +0.000 HD
ENDBRANCH  19  21
ENDBRANCH  18  19
ENDBRANCH   6  18
TORSDOF 5
ENDMDL
MODEL 5
REMARK VINA RESULT:      -7.1      4.224      7.719
REMARK  Name = 
REMARK  6 active torsions:
REMARK  status: ('A' for Active; 'I' for Inactive)
REMARK    1  A    between atoms: C_1  and  C_2
REMARK    2  A    between atoms: C_2  and  C_15
REMARK    3  A    between atoms: N_3  and  N_4
REMARK    4  A    between atoms: C_9  and  C_10
REMARK    5  A    between atoms: C_10  and  C_11
REMARK    6  A    between atoms: C_11  and  O_13
REMARK                            x       y       z     vdW  Elec       q    Type
REMARK                         _______ _______ _______ _____ _____    ______ ____
ROOT
ATOM      1  N   UNL     1       5.033   5.607  16.757  0.00  0.00    +0.000 N 
ATOM      2  C   UNL     1       5.752   5.177  15.667  0.00  0.00    +0.000 C 
ATOM      3  N   UNL     1       6.765   5.819  15.185  0.00  0.00    +0.000 NA
ATOM      4  C   UNL     1       7.361   5.176  14.122  0.00  0.00    +0.000 C 
ATOM      5  O   UNL     1       8.356   5.609  13.556  0.00  0.00    +0.000 OA
ATOM      6  C   UNL     1       6.675   3.897  13.669  0.00  0.00    +0.000 C 
ATOM      7  S   UNL     1       5.298   3.705  14.841  0.00  0.00    +0.000 S 
ATOM      8  H   UNL     1       5.441   6.456  17.141  0.00  0.00    +0.000 HD
ENDROOT
BRANCH   1  11
ATOM      9  C   UNL     1       2.752   6.583  18.185  0.00  0.00    +0.000 C 
ATOM     10  C   UNL     1       3.369   5.203  18.315  0.00  0.00    +0.000 C 
ATOM     11  N   UNL     1       4.388   4.766  17.624  0.00  0.00    +0.000 NA
BRANCH  10  12
ATOM     12  C   UNL     1       2.727   4.286  19.320  0.00  0.00    +0.000 A 
ATOM     13  C   UNL     1       2.572   4.674  20.649  0.00  0.00    +0.000 A 
ATOM     14  C   UNL     1       1.933   3.800  21.528  0.00  0.00    +0.000 A 
ATOM     15  C   UNL     1       1.469   2.577  21.058  0.00  0.00    +0.000 A 
ATOM     16  C   UNL     1       1.671   2.272  19.721  0.00  0.00    +0.000 A 
ATOM     17  N   UNL     1       2.287   3.093  18.843  0.00  0.00    +0.000 NA
ENDBRANCH  10  12
ENDBRANCH   1  11
BRANCH   6  18
ATOM     18  C   UNL     1       6.232   4.056  12.218  0.00  0.00    +0.000 C 
BRANCH  18  19
ATOM     19  C   UNL     1       5.353   2.923  11.760  0.00  0.00    +0.000 C 
ATOM     20  O   UNL     1       4.174   3.034  11.476  0.00  0.00    +0.000 OA
BRANCH  19  21
ATOM     21  O   UNL     1       5.989   1.729  11.754  0.00  0.00    +0.000 OA
ATOM     22  H   UNL     1       6.716   1.650  11.108  0.00  0.00    +0.000 HD
ENDBRANCH  19  21
ENDBRANCH  18  19
ENDBRANCH   6  18
TORSDOF 5
ENDMDL
MODEL 6
REMARK VINA RESULT:      -7.0      4.535      7.907
REMARK  Name = 
REMARK  6 active torsions:
REMARK  status: ('A' for Active; 'I' for Inactive)
REMARK    1  A    between atoms: C_1  and  C_2
REMARK    2  A    between atoms: C_2  and  C_15
REMARK    3  A    between atoms: N_3  and  N_4
REMARK    4  A    between atoms: C_9  and  C_10
REMARK    5  A    between atoms: C_10  and  C_11
REMARK    6  A    between atoms: C_11  and  O_13
REMARK                            x       y       z     vdW  Elec       q    Type
REMARK                         _______ _______ _______ _____ _____    ______ ____
ROOT
ATOM      1  N   UNL     1       2.570   7.098  19.624  0.00  0.00    +0.000 N 
ATOM      2  C   UNL     1       2.897   5.772  19.773  0.00  0.00    +0.000 C 
ATOM      3  N   UNL     1       4.012   5.263  19.361  0.00  0.00    +0.000 NA
ATOM      4  C   UNL     1       4.144   3.925  19.661  0.00  0.00    +0.000 C 
ATOM      5  O   UNL     1       5.144   3.277  19.385  0.00  0.00    +0.000 OA
ATOM      6  C   UNL     1       2.938   3.288  20.334  0.00  0.00    +0.000 C 
ATOM      7  S   UNL     1       1.772   4.670  20.532  0.00  0.00    +0.000 S 
ATOM      8  H   UNL     1       3.339   7.610  19.197  0.00  0.00    +0.000 HD
ENDROOT
BRANCH   1  11
ATOM      9  C   UNL     1       1.280   9.482  18.702  0.00  0.00    +0.000 C 
ATOM     10  C   UNL     1       1.189   8.894  20.098  0.00  0.00    +0.000 C 
ATOM     11  N   UNL     1       1.756   7.783  20.486  0.00  0.00    +0.000 NA
BRANCH  10  12
ATOM     12  C   UNL     1       0.364   9.672  21.088  0.00  0.00    +0.000 A 
ATOM     13  C   UNL     1       0.036   9.133  22.329  0.00  0.00    +0.000 A 
ATOM     14  C   UNL     1      -0.696   9.914  23.222  0.00  0.00    +0.000 A 
ATOM     15  C   UNL     1      -1.073  11.200  22.854  0.00  0.00    +0.000 A 
ATOM     16  C   UNL     1      -0.707  11.654  21.596  0.00  0.00    +0.000 A 
ATOM     17  N   UNL     1       0.000  10.923  20.706  0.00  0.00    +0.000 NA
ENDBRANCH  10  12
ENDBRANCH   1  11
BRANCH   6  18
ATOM     18  C   UNL     1       2.413   2.160  19.452  0.00  0.00    +0.000 C 
BRANCH  18  19
ATOM     19  C   UNL     1       1.511   2.662  18.356  0.00  0.00    +0.000 C 
ATOM     20  O   UNL     1       1.882   3.332  17.408  0.00  0.00    +0.000 OA
BRANCH  19  21
ATOM     21  O   UNL     1       0.210   2.350  18.558  0.00  0.00    +0.000 OA
ATOM     22  H   UNL     1      -0.024   2.128  19.478  0.00  0.00    +0.000 HD
ENDBRANCH  19  21
ENDBRANCH  18  19
ENDBRANCH   6  18
TORSDOF 5
ENDMDL
MODEL 7
REMARK VINA RESULT:      -6.9      1.167      1.583
REMARK  Name = 
REMARK  6 active torsions:
REMARK  status: ('A' for Active; 'I' for Inactive)
REMARK    1  A    between atoms: C_1  and  C_2
REMARK    2  A    between atoms: C_2  and  C_15
REMARK    3  A    between atoms: N_3  and  N_4
REMARK    4  A    between atoms: C_9  and  C_10
REMARK    5  A    between atoms: C_10  and  C_11
REMARK    6  A    between atoms: C_11  and  O_13
REMARK                            x       y       z     vdW  Elec       q    Type
REMARK                         _______ _______ _______ _____ _____    ______ ____
ROOT
ATOM      1  N   UNL     1       4.897   5.503  17.758  0.00  0.00    +0.000 N 
ATOM      2  C   UNL     1       3.730   5.152  18.394  0.00  0.00    +0.000 C 
ATOM      3  N   UNL     1       3.245   5.800  19.401  0.00  0.00    +0.000 NA
ATOM      4  C   UNL     1       2.043   5.297  19.845  0.00  0.00    +0.000 C 
ATOM      5  O   UNL     1       1.410   5.798  20.765  0.00  0.00    +0.000 OA
ATOM      6  C   UNL     1       1.561   4.042  19.133  0.00  0.00    +0.000 C 
ATOM      7  S   UNL     1       2.831   3.749  17.865  0.00  0.00    +0.000 S 
ATOM      8  H   UNL     1       5.280   6.355  18.162  0.00  0.00    +0.000 HD
ENDROOT
BRANCH   1  11
ATOM      9  C   UNL     1       7.460   4.478  16.999  0.00  0.00    +0.000 C 
ATOM     10  C   UNL     1       6.321   4.832  16.061  0.00  0.00    +0.000 C 
ATOM     11  N   UNL     1       5.145   5.263  16.433  0.00  0.00    +0.000 NA
BRANCH  10  12
ATOM     12  C   UNL     1       6.597   4.652  14.593  0.00  0.00    +0.000 A 
ATOM     13  C   UNL     1       7.583   5.397  13.951  0.00  0.00    +0.000 A 
ATOM     14  C   UNL     1       7.823   5.160  12.599  0.00  0.00    +0.000 A 
ATOM     15  C   UNL     1       7.081   4.193  11.933  0.00  0.00    +0.000 A 
ATOM     16  C   UNL     1       6.115   3.501  12.649  0.00  0.00    +0.000 A 
ATOM     17  N   UNL     1       5.856   3.707  13.959  0.00  0.00    +0.000 NA
ENDBRANCH  10  12
ENDBRANCH   1  11
BRANCH   6  18
ATOM     18  C   UNL     1       1.431   2.912  20.148  0.00  0.00    +0.000 C 
BRANCH  18  19
ATOM     19  C   UNL     1       2.628   2.817  21.056  0.00  0.00    +0.000 C 
ATOM     20  O   UNL     1       3.718   2.388  20.720  0.00  0.00    +0.000 OA
BRANCH  19  21
ATOM     21  O   UNL     1       2.362   3.198  22.326  0.00  0.00    +0.000 OA
ATOM     22  H   UNL     1       3.118   3.579  22.811  0.00  0.00    +0.000 HD
ENDBRANCH  19  21
ENDBRANCH  18  19
ENDBRANCH   6  18
TORSDOF 5
ENDMDL
MODEL 8
REMARK VINA RESULT:      -6.9      4.156      7.473
REMARK  Name = 
REMARK  6 active torsions:
REMARK  status: ('A' for Active; 'I' for Inactive)
REMARK    1  A    between atoms: C_1  and  C_2
REMARK    2  A    between atoms: C_2  and  C_15
REMARK    3  A    between atoms: N_3  and  N_4
REMARK    4  A    between atoms: C_9  and  C_10
REMARK    5  A    between atoms: C_10  and  C_11
REMARK    6  A    between atoms: C_11  and  O_13
REMARK                            x       y       z     vdW  Elec       q    Type
REMARK                         _______ _______ _______ _____ _____    ______ ____
ROOT
ATOM      1  N   UNL     1       4.701   6.217  16.686  0.00  0.00    +0.000 N 
ATOM      2  C   UNL     1       5.457   5.576  15.734  0.00  0.00    +0.000 C 
ATOM      3  N   UNL     1       6.620   5.991  15.351  0.00  0.00    +0.000 NA
ATOM      4  C   UNL     1       7.215   5.165  14.424  0.00  0.00    +0.000 C 
ATOM      5  O   UNL     1       8.332   5.370  13.969  0.00  0.00    +0.000 OA
ATOM      6  C   UNL     1       6.370   3.986  13.968  0.00  0.00    +0.000 C 
ATOM      7  S   UNL     1       4.849   4.135  14.954  0.00  0.00    +0.000 S 
ATOM      8  H   UNL     1       5.206   7.015  17.065  0.00  0.00    +0.000 HD
ENDROOT
BRANCH   1  11
ATOM      9  C   UNL     1       5.597   5.350  19.263  0.00  0.00    +0.000 C 
ATOM     10  C   UNL     1       4.214   5.139  18.676  0.00  0.00    +0.000 C 
ATOM     11  N   UNL     1       3.815   5.578  17.512  0.00  0.00    +0.000 NA
BRANCH  10  12
ATOM     12  C   UNL     1       3.245   4.369  19.533  0.00  0.00    +0.000 A 
ATOM     13  C   UNL     1       1.983   4.880  19.826  0.00  0.00    +0.000 A 
ATOM     14  C   UNL     1       1.112   4.106  20.590  0.00  0.00    +0.000 A 
ATOM     15  C   UNL     1       1.521   2.853  21.032  0.00  0.00    +0.000 A 
ATOM     16  C   UNL     1       2.797   2.426  20.697  0.00  0.00    +0.000 A 
ATOM     17  N   UNL     1       3.667   3.151  19.960  0.00  0.00    +0.000 NA
ENDBRANCH  10  12
ENDBRANCH   1  11
BRANCH   6  18
ATOM     18  C   UNL     1       6.142   4.088  12.463  0.00  0.00    +0.000 C 
BRANCH  18  19
ATOM     19  C   UNL     1       5.308   2.953  11.931  0.00  0.00    +0.000 C 
ATOM     20  O   UNL     1       4.162   3.064  11.532  0.00  0.00    +0.000 OA
BRANCH  19  21
ATOM     21  O   UNL     1       5.938   1.758  11.999  0.00  0.00    +0.000 OA
ATOM     22  H   UNL     1       6.182   1.469  12.898  0.00  0.00    +0.000 HD
ENDBRANCH  19  21
ENDBRANCH  18  19
ENDBRANCH   6  18
TORSDOF 5
ENDMDL
MODEL 9
REMARK VINA RESULT:      -6.9      4.178      7.509
REMARK  Name = 
REMARK  6 active torsions:
REMARK  status: ('A' for Active; 'I' for Inactive)
REMARK    1  A    between atoms: C_1  and  C_2
REMARK    2  A    between atoms: C_2  and  C_15
REMARK    3  A    between atoms: N_3  and  N_4
REMARK    4  A    between atoms: C_9  and  C_10
REMARK    5  A    between atoms: C_10  and  C_11
REMARK    6  A    between atoms: C_11  and  O_13
REMARK                            x       y       z     vdW  Elec       q    Type
REMARK                         _______ _______ _______ _____ _____    ______ ____
ROOT
ATOM      1  N   UNL     1       4.614   6.120  16.669  0.00  0.00    +0.000 N 
ATOM      2  C   UNL     1       5.397   5.504  15.723  0.00  0.00    +0.000 C 
ATOM      3  N   UNL     1       6.559   5.942  15.364  0.00  0.00    +0.000 NA
ATOM      4  C   UNL     1       7.183   5.137  14.438  0.00  0.00    +0.000 C 
ATOM      5  O   UNL     1       8.304   5.367  14.004  0.00  0.00    +0.000 OA
ATOM      6  C   UNL     1       6.366   3.949  13.954  0.00  0.00    +0.000 C 
ATOM      7  S   UNL     1       4.826   4.062  14.915  0.00  0.00    +0.000 S 
ATOM      8  H   UNL     1       5.098   6.922  17.066  0.00  0.00    +0.000 HD
ENDROOT
BRANCH   1  11
ATOM      9  C   UNL     1       5.485   5.224  19.244  0.00  0.00    +0.000 C 
ATOM     10  C   UNL     1       4.113   5.005  18.634  0.00  0.00    +0.000 C 
ATOM     11  N   UNL     1       3.725   5.457  17.472  0.00  0.00    +0.000 NA
BRANCH  10  12
ATOM     12  C   UNL     1       3.143   4.209  19.465  0.00  0.00    +0.000 A 
ATOM     13  C   UNL     1       3.589   3.232  20.350  0.00  0.00    +0.000 A 
ATOM     14  C   UNL     1       2.649   2.553  21.123  0.00  0.00    +0.000 A 
ATOM     15  C   UNL     1       1.302   2.870  20.994  0.00  0.00    +0.000 A 
ATOM     16  C   UNL     1       0.947   3.854  20.084  0.00  0.00    +0.000 A 
ATOM     17  N   UNL     1       1.831   4.530  19.318  0.00  0.00    +0.000 NA
ENDBRANCH  10  12
ENDBRANCH   1  11
BRANCH   6  18
ATOM     18  C   UNL     1       6.162   4.066  12.447  0.00  0.00    +0.000 C 
BRANCH  18  19
ATOM     19  C   UNL     1       5.325   2.943  11.894  0.00  0.00    +0.000 C 
ATOM     20  O   UNL     1       4.173   3.060  11.515  0.00  0.00    +0.000 OA
BRANCH  19  21
ATOM     21  O   UNL     1       5.961   1.749  11.917  0.00  0.00    +0.000 OA
ATOM     22  H   UNL     1       6.386   1.491  11.077  0.00  0.00    +0.000 HD
ENDBRANCH  19  21
ENDBRANCH  18  19
ENDBRANCH   6  18
TORSDOF 5
ENDMDL
