MODEL 1
REMARK VINA RESULT:      -6.5      0.000      0.000
REMARK  Name = 
REMARK  3 active torsions:
REMARK  status: ('A' for Active; 'I' for Inactive)
REMARK    1  A    between atoms: C_2  and  C_3
REMARK    2  A    between atoms: C_13  and  O_14
REMARK    3  A    between atoms: O_14  and  C_15
REMARK                            x       y       z     vdW  Elec       q    Type
REMARK                         _______ _______ _______ _____ _____    ______ ____
ROOT
ATOM      1  O   UNL     1       2.154  11.141  17.868  0.00  0.00    +0.000 OA
ATOM      2  C   UNL     1       1.317  11.001  18.758  0.00  0.00    +0.000 C 
ATOM      3  N   UNL     1       0.935   9.739  19.198  0.00  0.00    +0.000 N 
ATOM      4  C   UNL     1      -0.045   9.400  20.239  0.00  0.00    +0.000 C 
ATOM      5  C   UNL     1       0.656   8.778  21.447  0.00  0.00    +0.000 C 
ATOM      6  O   UNL     1       1.304   7.561  21.063  0.00  0.00    +0.000 OA
ATOM      7  C   UNL     1       2.244   7.802  20.012  0.00  0.00    +0.000 C 
ATOM      8  C   UNL     1       2.831   6.524  19.401  0.00  0.00    +0.000 C 
ATOM      9  C   UNL     1       3.422   7.039  18.070  0.00  0.00    +0.000 C 
ATOM     10  C   UNL     1       2.763   8.412  17.782  0.00  0.00    +0.000 C 
ATOM     11  C   UNL     1       1.612   8.494  18.780  0.00  0.00    +0.000 C 
ENDROOT
BRANCH   2  12
ATOM     12  C   UNL     1       0.741  12.251  19.368  0.00  0.00    +0.000 C 
ATOM     13  C   UNL     1      -0.204  12.980  18.738  0.00  0.00    +0.000 C 
ATOM     14  C   UNL     1      -0.575  14.219  19.487  0.00  0.00    +0.000 C 
ATOM     15  C   UNL     1       0.017  13.974  20.864  0.00  0.00    +0.000 C 
ATOM     16  C   UNL     1       1.079  12.904  20.662  0.00  0.00    +0.000 C 
ENDBRANCH   2  12
BRANCH   8  17
ATOM     17  O   UNL     1       1.794   5.575  19.083  0.00  0.00    +0.000 OA
BRANCH  17  18
ATOM     18  C   UNL     1       2.255   4.278  18.948  0.00  0.00    +0.000 A 
ATOM     19  C   UNL     1       1.939   3.619  17.770  0.00  0.00    +0.000 A 
ATOM     20  C   UNL     1       2.393   2.315  17.592  0.00  0.00    +0.000 A 
ATOM     21  C   UNL     1       3.161   1.727  18.592  0.00  0.00    +0.000 A 
ATOM     22  C   UNL     1       3.447   2.476  19.724  0.00  0.00    +0.000 A 
ATOM     23  N   UNL     1       3.022   3.741  19.921  0.00  0.00    +0.000 NA
ENDBRANCH  17  18
ENDBRANCH   8  17
TORSDOF 3
ENDMDL
MODEL 2
REMARK VINA RESULT:      -6.5      2.438      3.443
REMARK  Name = 
REMARK  3 active torsions:
REMARK  status: ('A' for Active; 'I' for Inactive)
REMARK    1  A    between atoms: C_2  and  C_3
REMARK    2  A    between atoms: C_13  and  O_14
REMARK    3  A    between atoms: O_14  and  C_15
REMARK                            x       y       z     vdW  Elec       q    Type
REMARK                         _______ _______ _______ _____ _____    ______ ____
ROOT
ATOM      1  O   UNL     1      -0.443   8.304  21.331  0.00  0.00    +0.000 OA
ATOM      2  C   UNL     1       0.093   9.061  20.523  0.00  0.00    +0.000 C 
ATOM      3  N   UNL     1       1.335   8.765  19.971  0.00  0.00    +0.000 N 
ATOM      4  C   UNL     1       2.109   9.557  19.005  0.00  0.00    +0.000 C 
ATOM      5  C   UNL     1       2.185   8.828  17.662  0.00  0.00    +0.000 C 
ATOM      6  O   UNL     1       2.860   7.577  17.822  0.00  0.00    +0.000 OA
ATOM      7  C   UNL     1       2.190   6.765  18.791  0.00  0.00    +0.000 C 
ATOM      8  C   UNL     1       2.960   5.495  19.173  0.00  0.00    +0.000 C 
ATOM      9  C   UNL     1       2.267   5.076  20.488  0.00  0.00    +0.000 C 
ATOM     10  C   UNL     1       1.499   6.316  21.012  0.00  0.00    +0.000 C 
ATOM     11  C   UNL     1       2.019   7.469  20.159  0.00  0.00    +0.000 C 
ENDROOT
BRANCH   2  12
ATOM     12  C   UNL     1      -0.659  10.306  20.137  0.00  0.00    +0.000 C 
ATOM     13  C   UNL     1      -1.327  10.401  18.969  0.00  0.00    +0.000 C 
ATOM     14  C   UNL     1      -1.936  11.750  18.757  0.00  0.00    +0.000 C 
ATOM     15  C   UNL     1      -1.858  12.378  20.138  0.00  0.00    +0.000 C 
ATOM     16  C   UNL     1      -0.791  11.588  20.882  0.00  0.00    +0.000 C 
ENDBRANCH   2  12
BRANCH   8  17
ATOM     17  O   UNL     1       4.336   5.792  19.477  0.00  0.00    +0.000 OA
BRANCH  17  18
ATOM     18  C   UNL     1       5.226   5.337  18.521  0.00  0.00    +0.000 A 
ATOM     19  C   UNL     1       6.575   5.519  18.781  0.00  0.00    +0.000 A 
ATOM     20  C   UNL     1       7.502   5.065  17.847  0.00  0.00    +0.000 A 
ATOM     21  C   UNL     1       7.043   4.429  16.697  0.00  0.00    +0.000 A 
ATOM     22  C   UNL     1       5.675   4.270  16.538  0.00  0.00    +0.000 A 
ATOM     23  N   UNL     1       4.756   4.698  17.428  0.00  0.00    +0.000 NA
ENDBRANCH  17  18
ENDBRANCH   8  17
TORSDOF 3
ENDMDL
MODEL 3
REMARK VINA RESULT:      -6.5      2.604      7.939
REMARK  Name = 
REMARK  3 active torsions:
REMARK  status: ('A' for Active; 'I' for Inactive)
REMARK    1  A    between atoms: C_2  and  C_3
REMARK    2  A    between atoms: C_13  and  O_14
REMARK    3  A    between atoms: O_14  and  C_15
REMARK                            x       y       z     vdW  Elec       q    Type
REMARK                         _______ _______ _______ _____ _____    ______ ____
ROOT
ATOM      1  O   UNL     1       2.155   9.101  17.386  0.00  0.00    +0.000 OA
ATOM      2  C   UNL     1       2.159   8.317  18.334  0.00  0.00    +0.000 C 
ATOM      3  N   UNL     1       1.736   8.712  19.598  0.00  0.00    +0.000 N 
ATOM      4  C   UNL     1       1.682   7.909  20.828  0.00  0.00    +0.000 C 
ATOM      5  C   UNL     1       0.229   7.673  21.245  0.00  0.00    +0.000 C 
ATOM      6  O   UNL     1      -0.406   8.923  21.528  0.00  0.00    +0.000 OA
ATOM      7  C   UNL     1      -0.350   9.785  20.388  0.00  0.00    +0.000 C 
ATOM      8  C   UNL     1      -0.825  11.216  20.669  0.00  0.00    +0.000 C 
ATOM      9  C   UNL     1      -0.256  11.992  19.460  0.00  0.00    +0.000 C 
ATOM     10  C   UNL     1       0.853  11.109  18.835  0.00  0.00    +0.000 C 
ATOM     11  C   UNL     1       1.090  10.013  19.869  0.00  0.00    +0.000 C 
ENDROOT
BRANCH   2  12
ATOM     12  C   UNL     1       2.617   6.909  18.065  0.00  0.00    +0.000 C 
ATOM     13  C   UNL     1       3.889   6.629  17.718  0.00  0.00    +0.000 C 
ATOM     14  C   UNL     1       4.104   5.179  17.423  0.00  0.00    +0.000 C 
ATOM     15  C   UNL     1       2.855   4.528  17.991  0.00  0.00    +0.000 C 
ATOM     16  C   UNL     1       1.828   5.646  18.095  0.00  0.00    +0.000 C 
ENDBRANCH   2  12
BRANCH   8  17
ATOM     17  O   UNL     1      -0.210  11.744  21.859  0.00  0.00    +0.000 OA
BRANCH  17  18
ATOM     18  C   UNL     1      -1.066  12.505  22.633  0.00  0.00    +0.000 A 
ATOM     19  C   UNL     1      -2.305  11.956  22.924  0.00  0.00    +0.000 A 
ATOM     20  C   UNL     1      -3.192  12.687  23.709  0.00  0.00    +0.000 A 
ATOM     21  C   UNL     1      -2.798  13.932  24.190  0.00  0.00    +0.000 A 
ATOM     22  C   UNL     1      -1.527  14.386  23.867  0.00  0.00    +0.000 A 
ATOM     23  N   UNL     1      -0.648  13.698  23.110  0.00  0.00    +0.000 NA
ENDBRANCH  17  18
ENDBRANCH   8  17
TORSDOF 3
ENDMDL
MODEL 4
REMARK VINA RESULT:      -6.5      2.478      3.367
REMARK  Name = 
REMARK  3 active torsions:
REMARK  status: ('A' for Active; 'I' for Inactive)
REMARK    1  A    between atoms: C_2  and  C_3
REMARK    2  A    between atoms: C_13  and  O_14
REMARK    3  A    between atoms: O_14  and  C_15
REMARK                            x       y       z     vdW  Elec       q    Type
REMARK                         _______ _______ _______ _____ _____    ______ ____
ROOT
ATOM      1  O   UNL     1      -0.225   8.154  21.500  0.00  0.00    +0.000 OA
ATOM      2  C   UNL     1       0.232   9.009  20.743  0.00  0.00    +0.000 C 
ATOM      3  N   UNL     1       1.410   8.792  20.037  0.00  0.00    +0.000 N 
ATOM      4  C   UNL     1       2.088   9.703  19.104  0.00  0.00    +0.000 C 
ATOM      5  C   UNL     1       2.023   9.150  17.679  0.00  0.00    +0.000 C 
ATOM      6  O   UNL     1       2.702   7.893  17.612  0.00  0.00    +0.000 OA
ATOM      7  C   UNL     1       2.128   6.961  18.534  0.00  0.00    +0.000 C 
ATOM      8  C   UNL     1       2.924   5.658  18.674  0.00  0.00    +0.000 C 
ATOM      9  C   UNL     1       2.364   5.073  19.989  0.00  0.00    +0.000 C 
ATOM     10  C   UNL     1       1.662   6.233  20.739  0.00  0.00    +0.000 C 
ATOM     11  C   UNL     1       2.101   7.487  19.990  0.00  0.00    +0.000 C 
ENDROOT
BRANCH   2  12
ATOM     12  C   UNL     1      -0.547  10.288  20.595  0.00  0.00    +0.000 C 
ATOM     13  C   UNL     1      -0.715  11.142  21.625  0.00  0.00    +0.000 C 
ATOM     14  C   UNL     1      -1.585  12.307  21.276  0.00  0.00    +0.000 C 
ATOM     15  C   UNL     1      -1.642  12.246  19.760  0.00  0.00    +0.000 C 
ATOM     16  C   UNL     1      -1.254  10.820  19.398  0.00  0.00    +0.000 C 
ENDBRANCH   2  12
BRANCH   8  17
ATOM     17  O   UNL     1       4.326   5.923  18.873  0.00  0.00    +0.000 OA
BRANCH  17  18
ATOM     18  C   UNL     1       5.141   5.332  17.925  0.00  0.00    +0.000 A 
ATOM     19  C   UNL     1       4.526   4.855  16.778  0.00  0.00    +0.000 A 
ATOM     20  C   UNL     1       5.314   4.263  15.795  0.00  0.00    +0.000 A 
ATOM     21  C   UNL     1       6.690   4.186  15.990  0.00  0.00    +0.000 A 
ATOM     22  C   UNL     1       7.216   4.715  17.159  0.00  0.00    +0.000 A 
ATOM     23  N   UNL     1       6.476   5.296  18.126  0.00  0.00    +0.000 NA
ENDBRANCH  17  18
ENDBRANCH   8  17
TORSDOF 3
ENDMDL
MODEL 5
REMARK VINA RESULT:      -6.4      4.035      7.279
REMARK  Name = 
REMARK  3 active torsions:
REMARK  status: ('A' for Active; 'I' for Inactive)
REMARK    1  A    between atoms: C_2  and  C_3
REMARK    2  A    between atoms: C_13  and  O_14
REMARK    3  A    between atoms: O_14  and  C_15
REMARK                            x       y       z     vdW  Elec       q    Type
REMARK                         _______ _______ _______ _____ _____    ______ ____
ROOT
ATOM      1  O   UNL     1       5.272   6.935  14.943  0.00  0.00    +0.000 OA
ATOM      2  C   UNL     1       5.399   5.731  15.155  0.00  0.00    +0.000 C 
ATOM      3  N   UNL     1       5.020   5.168  16.369  0.00  0.00    +0.000 N 
ATOM      4  C   UNL     1       5.109   3.761  16.783  0.00  0.00    +0.000 C 
ATOM      5  C   UNL     1       3.709   3.162  16.933  0.00  0.00    +0.000 C 
ATOM      6  O   UNL     1       2.987   3.859  17.953  0.00  0.00    +0.000 OA
ATOM      7  C   UNL     1       2.901   5.253  17.645  0.00  0.00    +0.000 C 
ATOM      8  C   UNL     1       2.324   6.104  18.783  0.00  0.00    +0.000 C 
ATOM      9  C   UNL     1       2.751   7.531  18.373  0.00  0.00    +0.000 C 
ATOM     10  C   UNL     1       3.892   7.383  17.335  0.00  0.00    +0.000 C 
ATOM     11  C   UNL     1       4.283   5.910  17.413  0.00  0.00    +0.000 C 
ENDROOT
BRANCH   2  12
ATOM     12  C   UNL     1       5.958   4.887  14.041  0.00  0.00    +0.000 C 
ATOM     13  C   UNL     1       5.199   3.994  13.375  0.00  0.00    +0.000 C 
ATOM     14  C   UNL     1       5.975   3.213  12.364  0.00  0.00    +0.000 C 
ATOM     15  C   UNL     1       7.265   4.006  12.240  0.00  0.00    +0.000 C 
ATOM     16  C   UNL     1       7.347   4.844  13.506  0.00  0.00    +0.000 C 
ENDBRANCH   2  12
BRANCH   8  17
ATOM     17  O   UNL     1       2.962   5.798  20.037  0.00  0.00    +0.000 OA
BRANCH  17  18
ATOM     18  C   UNL     1       2.614   4.561  20.548  0.00  0.00    +0.000 A 
ATOM     19  C   UNL     1       1.260   4.294  20.679  0.00  0.00    +0.000 A 
ATOM     20  C   UNL     1       0.870   3.055  21.179  0.00  0.00    +0.000 A 
ATOM     21  C   UNL     1       1.849   2.124  21.513  0.00  0.00    +0.000 A 
ATOM     22  C   UNL     1       3.177   2.474  21.321  0.00  0.00    +0.000 A 
ATOM     23  N   UNL     1       3.583   3.665  20.836  0.00  0.00    +0.000 NA
ENDBRANCH  17  18
ENDBRANCH   8  17
TORSDOF 3
ENDMDL
MODEL 6
REMARK VINA RESULT:      -6.3      0.714      1.325
REMARK  Name = 
REMARK  3 active torsions:
REMARK  status: ('A' for Active; 'I' for Inactive)
REMARK    1  A    between atoms: C_2  and  C_3
REMARK    2  A    between atoms: C_13  and  O_14
REMARK    3  A    between atoms: O_14  and  C_15
REMARK                            x       y       z     vdW  Elec       q    Type
REMARK                         _______ _______ _______ _____ _____    ______ ____
ROOT
ATOM      1  O   UNL     1       1.905  11.303  18.110  0.00  0.00    +0.000 OA
ATOM      2  C   UNL     1       1.124  11.049  19.026  0.00  0.00    +0.000 C 
ATOM      3  N   UNL     1       0.810   9.738  19.363  0.00  0.00    +0.000 N 
ATOM      4  C   UNL     1      -0.099   9.265  20.416  0.00  0.00    +0.000 C 
ATOM      5  C   UNL     1       0.689   8.561  21.522  0.00  0.00    +0.000 C 
ATOM      6  O   UNL     1       1.354   7.411  20.990  0.00  0.00    +0.000 OA
ATOM      7  C   UNL     1       2.226   7.785  19.919  0.00  0.00    +0.000 C 
ATOM      8  C   UNL     1       2.821   6.593  19.160  0.00  0.00    +0.000 C 
ATOM      9  C   UNL     1       3.320   7.252  17.856  0.00  0.00    +0.000 C 
ATOM     10  C   UNL     1       2.601   8.620  17.734  0.00  0.00    +0.000 C 
ATOM     11  C   UNL     1       1.504   8.564  18.793  0.00  0.00    +0.000 C 
ENDROOT
BRANCH   2  12
ATOM     12  C   UNL     1       0.541  12.214  19.780  0.00  0.00    +0.000 C 
ATOM     13  C   UNL     1       1.187  12.784  20.817  0.00  0.00    +0.000 C 
ATOM     14  C   UNL     1       0.392  13.871  21.468  0.00  0.00    +0.000 C 
ATOM     15  C   UNL     1      -0.704  14.144  20.452  0.00  0.00    +0.000 C 
ATOM     16  C   UNL     1      -0.764  12.901  19.579  0.00  0.00    +0.000 C 
ENDBRANCH   2  12
BRANCH   8  17
ATOM     17  O   UNL     1       1.801   5.639  18.807  0.00  0.00    +0.000 OA
BRANCH  17  18
ATOM     18  C   UNL     1       2.274   4.345  18.682  0.00  0.00    +0.000 A 
ATOM     19  C   UNL     1       3.247   3.941  19.583  0.00  0.00    +0.000 A 
ATOM     20  C   UNL     1       3.741   2.643  19.495  0.00  0.00    +0.000 A 
ATOM     21  C   UNL     1       3.229   1.792  18.520  0.00  0.00    +0.000 A 
ATOM     22  C   UNL     1       2.238   2.279  17.681  0.00  0.00    +0.000 A 
ATOM     23  N   UNL     1       1.740   3.531  17.745  0.00  0.00    +0.000 NA
ENDBRANCH  17  18
ENDBRANCH   8  17
TORSDOF 3
ENDMDL
MODEL 7
REMARK VINA RESULT:      -6.3      2.548      7.962
REMARK  Name = 
REMARK  3 active torsions:
REMARK  status: ('A' for Active; 'I' for Inactive)
REMARK    1  A    between atoms: C_2  and  C_3
REMARK    2  A    between atoms: C_13  and  O_14
REMARK    3  A    between atoms: O_14  and  C_15
REMARK                            x       y       z     vdW  Elec       q    Type
REMARK                         _______ _______ _______ _____ _____    ______ ____
ROOT
ATOM      1  O   UNL     1       2.088   9.220  17.359  0.00  0.00    +0.000 OA
ATOM      2  C   UNL     1       2.127   8.446  18.314  0.00  0.00    +0.000 C 
ATOM      3  N   UNL     1       1.695   8.836  19.576  0.00  0.00    +0.000 N 
ATOM      4  C   UNL     1       1.679   8.043  20.814  0.00  0.00    +0.000 C 
ATOM      5  C   UNL     1       0.239   7.755  21.241  0.00  0.00    +0.000 C 
ATOM      6  O   UNL     1      -0.443   8.982  21.516  0.00  0.00    +0.000 OA
ATOM      7  C   UNL     1      -0.427   9.835  20.367  0.00  0.00    +0.000 C 
ATOM      8  C   UNL     1      -0.955  11.248  20.637  0.00  0.00    +0.000 C 
ATOM      9  C   UNL     1      -0.423  12.035  19.419  0.00  0.00    +0.000 C 
ATOM     10  C   UNL     1       0.716  11.190  18.796  0.00  0.00    +0.000 C 
ATOM     11  C   UNL     1       1.001  10.114  19.839  0.00  0.00    +0.000 C 
ENDROOT
BRANCH   2  12
ATOM     12  C   UNL     1       2.638   7.054  18.055  0.00  0.00    +0.000 C 
ATOM     13  C   UNL     1       3.902   6.825  17.646  0.00  0.00    +0.000 C 
ATOM     14  C   UNL     1       4.171   5.379  17.376  0.00  0.00    +0.000 C 
ATOM     15  C   UNL     1       2.988   4.686  18.028  0.00  0.00    +0.000 C 
ATOM     16  C   UNL     1       1.915   5.757  18.160  0.00  0.00    +0.000 C 
ENDBRANCH   2  12
BRANCH   8  17
ATOM     17  O   UNL     1      -0.355  11.812  21.819  0.00  0.00    +0.000 OA
BRANCH  17  18
ATOM     18  C   UNL     1      -1.256  12.466  22.639  0.00  0.00    +0.000 A 
ATOM     19  C   UNL     1      -0.924  13.752  23.036  0.00  0.00    +0.000 A 
ATOM     20  C   UNL     1      -1.810  14.448  23.853  0.00  0.00    +0.000 A 
ATOM     21  C   UNL     1      -3.004  13.837  24.228  0.00  0.00    +0.000 A 
ATOM     22  C   UNL     1      -3.259  12.557  23.758  0.00  0.00    +0.000 A 
ATOM     23  N   UNL     1      -2.419  11.862  22.964  0.00  0.00    +0.000 NA
ENDBRANCH  17  18
ENDBRANCH   8  17
TORSDOF 3
ENDMDL
MODEL 8
REMARK VINA RESULT:      -6.3      0.940      1.476
REMARK  Name = 
REMARK  3 active torsions:
REMARK  status: ('A' for Active; 'I' for Inactive)
REMARK    1  A    between atoms: C_2  and  C_3
REMARK    2  A    between atoms: C_13  and  O_14
REMARK    3  A    between atoms: O_14  and  C_15
REMARK                            x       y       z     vdW  Elec       q    Type
REMARK                         _______ _______ _______ _____ _____    ______ ____
ROOT
ATOM      1  O   UNL     1       2.397  11.244  17.809  0.00  0.00    +0.000 OA
ATOM      2  C   UNL     1       1.497  11.174  18.644  0.00  0.00    +0.000 C 
ATOM      3  N   UNL     1       0.988   9.948  19.057  0.00  0.00    +0.000 N 
ATOM      4  C   UNL     1      -0.081   9.692  20.032  0.00  0.00    +0.000 C 
ATOM      5  C   UNL     1       0.490   9.021  21.282  0.00  0.00    +0.000 C 
ATOM      6  O   UNL     1       1.062   7.755  20.938  0.00  0.00    +0.000 OA
ATOM      7  C   UNL     1       2.083   7.916  19.950  0.00  0.00    +0.000 C 
ATOM      8  C   UNL     1       2.604   6.593  19.376  0.00  0.00    +0.000 C 
ATOM      9  C   UNL     1       3.319   7.054  18.087  0.00  0.00    +0.000 C 
ATOM     10  C   UNL     1       2.792   8.475  17.759  0.00  0.00    +0.000 C 
ATOM     11  C   UNL     1       1.589   8.652  18.681  0.00  0.00    +0.000 C 
ENDROOT
BRANCH   2  12
ATOM     12  C   UNL     1       0.984  12.469  19.217  0.00  0.00    +0.000 C 
ATOM     13  C   UNL     1       1.550  13.041  20.299  0.00  0.00    +0.000 C 
ATOM     14  C   UNL     1       0.834  14.277  20.742  0.00  0.00    +0.000 C 
ATOM     15  C   UNL     1      -0.055  14.599  19.553  0.00  0.00    +0.000 C 
ATOM     16  C   UNL     1      -0.167  13.300  18.769  0.00  0.00    +0.000 C 
ENDBRANCH   2  12
BRANCH   8  17
ATOM     17  O   UNL     1       1.518   5.729  18.991  0.00  0.00    +0.000 OA
BRANCH  17  18
ATOM     18  C   UNL     1       1.681   4.418  19.402  0.00  0.00    +0.000 A 
ATOM     19  C   UNL     1       1.290   4.113  20.696  0.00  0.00    +0.000 A 
ATOM     20  C   UNL     1       1.428   2.803  21.144  0.00  0.00    +0.000 A 
ATOM     21  C   UNL     1       1.937   1.843  20.273  0.00  0.00    +0.000 A 
ATOM     22  C   UNL     1       2.276   2.240  18.988  0.00  0.00    +0.000 A 
ATOM     23  N   UNL     1       2.150   3.501  18.528  0.00  0.00    +0.000 NA
ENDBRANCH  17  18
ENDBRANCH   8  17
TORSDOF 3
ENDMDL
MODEL 9
REMARK VINA RESULT:      -6.2      0.913      1.201
REMARK  Name = 
REMARK  3 active torsions:
REMARK  status: ('A' for Active; 'I' for Inactive)
REMARK    1  A    between atoms: C_2  and  C_3
REMARK    2  A    between atoms: C_13  and  O_14
REMARK    3  A    between atoms: O_14  and  C_15
REMARK                            x       y       z     vdW  Elec       q    Type
REMARK                         _______ _______ _______ _____ _____    ______ ____
ROOT
ATOM      1  O   UNL     1       1.760  11.546  18.172  0.00  0.00    +0.000 OA
ATOM      2  C   UNL     1       0.978  11.290  19.085  0.00  0.00    +0.000 C 
ATOM      3  N   UNL     1       0.671   9.978  19.427  0.00  0.00    +0.000 N 
ATOM      4  C   UNL     1      -0.239   9.504  20.479  0.00  0.00    +0.000 C 
ATOM      5  C   UNL     1       0.550   8.809  21.590  0.00  0.00    +0.000 C 
ATOM      6  O   UNL     1       1.226   7.662  21.066  0.00  0.00    +0.000 OA
ATOM      7  C   UNL     1       2.099   8.037  19.997  0.00  0.00    +0.000 C 
ATOM      8  C   UNL     1       2.705   6.847  19.245  0.00  0.00    +0.000 C 
ATOM      9  C   UNL     1       3.204   7.504  17.939  0.00  0.00    +0.000 C 
ATOM     10  C   UNL     1       2.476   8.866  17.809  0.00  0.00    +0.000 C 
ATOM     11  C   UNL     1       1.376   8.807  18.865  0.00  0.00    +0.000 C 
ENDROOT
BRANCH   2  12
ATOM     12  C   UNL     1       0.384  12.454  19.833  0.00  0.00    +0.000 C 
ATOM     13  C   UNL     1      -0.557  13.247  19.282  0.00  0.00    +0.000 C 
ATOM     14  C   UNL     1      -0.948  14.385  20.171  0.00  0.00    +0.000 C 
ATOM     15  C   UNL     1      -0.374  13.978  21.517  0.00  0.00    +0.000 C 
ATOM     16  C   UNL     1       0.699  12.946  21.202  0.00  0.00    +0.000 C 
ENDBRANCH   2  12
BRANCH   8  17
ATOM     17  O   UNL     1       1.693   5.884  18.892  0.00  0.00    +0.000 OA
BRANCH  17  18
ATOM     18  C   UNL     1       1.908   4.630  19.436  0.00  0.00    +0.000 A 
ATOM     19  C   UNL     1       1.063   4.237  20.462  0.00  0.00    +0.000 A 
ATOM     20  C   UNL     1       1.241   2.978  21.028  0.00  0.00    +0.000 A 
ATOM     21  C   UNL     1       2.247   2.153  20.533  0.00  0.00    +0.000 A 
ATOM     22  C   UNL     1       3.025   2.625  19.486  0.00  0.00    +0.000 A 
ATOM     23  N   UNL     1       2.873   3.839  18.918  0.00  0.00    +0.000 NA
ENDBRANCH  17  18
ENDBRANCH   8  17
TORSDOF 3
ENDMDL
