MODEL 1
REMARK VINA RESULT:      -7.0      0.000      0.000
REMARK  Name = 
REMARK  6 active torsions:
REMARK  status: ('A' for Active; 'I' for Inactive)
REMARK    1  A    between atoms: C_1  and  N_2
REMARK    2  A    between atoms: C_5  and  N_6
REMARK    3  A    between atoms: C_9  and  C_10
REMARK    4  A    between atoms: N_12  and  C_13
REMARK    5  A    between atoms: C_18  and  C_19
REMARK    6  A    between atoms: C_19  and  O_21
REMARK                            x       y       z     vdW  Elec       q    Type
REMARK                         _______ _______ _______ _____ _____    ______ ____
ROOT
ATOM      1  C   UNL     1       5.228   4.809  19.069  0.00  0.00    +0.000 C 
ATOM      2  O   UNL     1       5.549   3.620  19.099  0.00  0.00    +0.000 OA
ATOM      3  N   UNL     1       3.974   5.271  19.437  0.00  0.00    +0.000 N 
ATOM      4  H   UNL     1       3.637   6.040  18.853  0.00  0.00    +0.000 HD
ENDROOT
BRANCH   1  10
ATOM      5  C   UNL     1       8.131   5.413  20.120  0.00  0.00    +0.000 C 
ATOM      6  N   UNL     1       7.410   6.085  19.061  0.00  0.00    +0.000 N 
ATOM      7  N   UNL     1       8.074   7.012  18.334  0.00  0.00    +0.000 NA
ATOM      8  C   UNL     1       7.234   7.302  17.338  0.00  0.00    +0.000 A 
ATOM      9  C   UNL     1       6.031   6.592  17.450  0.00  0.00    +0.000 A 
ATOM     10  C   UNL     1       6.146   5.809  18.591  0.00  0.00    +0.000 A 
BRANCH   9  11
ATOM     11  N   UNL     1       4.926   6.665  16.553  0.00  0.00    +0.000 N 
ATOM     12  O   UNL     1       5.180   6.500  15.355  0.00  0.00    +0.000 OA
ATOM     13  O   UNL     1       3.834   6.977  17.043  0.00  0.00    +0.000 OA
ENDBRANCH   9  11
ENDBRANCH   1  10
BRANCH   3  14
ATOM     14  C   UNL     1       2.972   4.399  19.946  0.00  0.00    +0.000 A 
ATOM     15  C   UNL     1       2.930   4.109  21.317  0.00  0.00    +0.000 A 
ATOM     16  C   UNL     1       1.973   3.233  21.835  0.00  0.00    +0.000 A 
ATOM     17  C   UNL     1       1.057   2.620  20.986  0.00  0.00    +0.000 A 
ATOM     18  C   UNL     1       1.075   2.906  19.621  0.00  0.00    +0.000 A 
ATOM     19  C   UNL     1       2.003   3.827  19.099  0.00  0.00    +0.000 A 
BRANCH  19  20
ATOM     20  C   UNL     1       2.024   4.112  17.641  0.00  0.00    +0.000 C 
ATOM     21  O   UNL     1       1.035   4.479  17.027  0.00  0.00    +0.000 OA
BRANCH  20  22
ATOM     22  O   UNL     1       3.196   3.832  17.033  0.00  0.00    +0.000 OA
ATOM     23  H   UNL     1       3.161   3.153  16.335  0.00  0.00    +0.000 HD
ENDBRANCH  20  22
ENDBRANCH  19  20
ENDBRANCH   3  14
TORSDOF 5
ENDMDL
MODEL 2
REMARK VINA RESULT:      -6.9      2.023      5.914
REMARK  Name = 
REMARK  6 active torsions:
REMARK  status: ('A' for Active; 'I' for Inactive)
REMARK    1  A    between atoms: C_1  and  N_2
REMARK    2  A    between atoms: C_5  and  N_6
REMARK    3  A    between atoms: C_9  and  C_10
REMARK    4  A    between atoms: N_12  and  C_13
REMARK    5  A    between atoms: C_18  and  C_19
REMARK    6  A    between atoms: C_19  and  O_21
REMARK                            x       y       z     vdW  Elec       q    Type
REMARK                         _______ _______ _______ _____ _____    ______ ____
ROOT
ATOM      1  C   UNL     1       3.809   4.910  19.163  0.00  0.00    +0.000 C 
ATOM      2  O   UNL     1       3.620   5.977  19.748  0.00  0.00    +0.000 OA
ATOM      3  N   UNL     1       4.964   4.622  18.452  0.00  0.00    +0.000 N 
ATOM      4  H   UNL     1       4.793   4.085  17.599  0.00  0.00    +0.000 HD
ENDROOT
BRANCH   1  10
ATOM      5  C   UNL     1       1.318   4.710  17.252  0.00  0.00    +0.000 C 
ATOM      6  N   UNL     1       1.694   3.810  18.320  0.00  0.00    +0.000 N 
ATOM      7  N   UNL     1       0.981   2.671  18.467  0.00  0.00    +0.000 NA
ATOM      8  C   UNL     1       1.669   1.975  19.376  0.00  0.00    +0.000 A 
ATOM      9  C   UNL     1       2.793   2.680  19.827  0.00  0.00    +0.000 A 
ATOM     10  C   UNL     1       2.794   3.890  19.144  0.00  0.00    +0.000 A 
BRANCH   9  11
ATOM     11  N   UNL     1       3.739   2.224  20.790  0.00  0.00    +0.000 N 
ATOM     12  O   UNL     1       4.850   1.898  20.355  0.00  0.00    +0.000 OA
ATOM     13  O   UNL     1       3.336   2.110  21.953  0.00  0.00    +0.000 OA
ENDBRANCH   9  11
ENDBRANCH   1  10
BRANCH   3  14
ATOM     14  C   UNL     1       6.059   5.528  18.399  0.00  0.00    +0.000 A 
ATOM     15  C   UNL     1       7.095   5.427  19.339  0.00  0.00    +0.000 A 
ATOM     16  C   UNL     1       8.166   6.324  19.324  0.00  0.00    +0.000 A 
ATOM     17  C   UNL     1       8.205   7.347  18.382  0.00  0.00    +0.000 A 
ATOM     18  C   UNL     1       7.189   7.456  17.432  0.00  0.00    +0.000 A 
ATOM     19  C   UNL     1       6.135   6.525  17.408  0.00  0.00    +0.000 A 
BRANCH  19  20
ATOM     20  C   UNL     1       5.049   6.661  16.401  0.00  0.00    +0.000 C 
ATOM     21  O   UNL     1       5.220   6.432  15.214  0.00  0.00    +0.000 OA
BRANCH  20  22
ATOM     22  O   UNL     1       3.893   7.157  16.888  0.00  0.00    +0.000 OA
ATOM     23  H   UNL     1       3.884   8.115  17.068  0.00  0.00    +0.000 HD
ENDBRANCH  20  22
ENDBRANCH  19  20
ENDBRANCH   3  14
TORSDOF 5
ENDMDL
MODEL 3
REMARK VINA RESULT:      -6.9      2.592      6.070
REMARK  Name = 
REMARK  6 active torsions:
REMARK  status: ('A' for Active; 'I' for Inactive)
REMARK    1  A    between atoms: C_1  and  N_2
REMARK    2  A    between atoms: C_5  and  N_6
REMARK    3  A    between atoms: C_9  and  C_10
REMARK    4  A    between atoms: N_12  and  C_13
REMARK    5  A    between atoms: C_18  and  C_19
REMARK    6  A    between atoms: C_19  and  O_21
REMARK                            x       y       z     vdW  Elec       q    Type
REMARK                         _______ _______ _______ _____ _____    ______ ____
ROOT
ATOM      1  C   UNL     1       3.900   4.559  18.383  0.00  0.00    +0.000 C 
ATOM      2  O   UNL     1       3.344   5.456  17.749  0.00  0.00    +0.000 OA
ATOM      3  N   UNL     1       5.032   3.894  17.935  0.00  0.00    +0.000 N 
ATOM      4  H   UNL     1       5.034   2.897  18.162  0.00  0.00    +0.000 HD
ENDROOT
BRANCH   1  10
ATOM      5  C   UNL     1       1.947   6.095  20.312  0.00  0.00    +0.000 C 
ATOM      6  N   UNL     1       2.525   4.782  20.493  0.00  0.00    +0.000 N 
ATOM      7  N   UNL     1       2.107   4.047  21.548  0.00  0.00    +0.000 NA
ATOM      8  C   UNL     1       2.654   2.847  21.342  0.00  0.00    +0.000 A 
ATOM      9  C   UNL     1       3.441   2.827  20.183  0.00  0.00    +0.000 A 
ATOM     10  C   UNL     1       3.367   4.104  19.640  0.00  0.00    +0.000 A 
BRANCH   9  11
ATOM     11  N   UNL     1       4.159   1.706  19.673  0.00  0.00    +0.000 N 
ATOM     12  O   UNL     1       5.228   1.440  20.234  0.00  0.00    +0.000 OA
ATOM     13  O   UNL     1       3.694   1.161  18.666  0.00  0.00    +0.000 OA
ENDBRANCH   9  11
ENDBRANCH   1  10
BRANCH   3  14
ATOM     14  C   UNL     1       5.679   4.249  16.719  0.00  0.00    +0.000 A 
ATOM     15  C   UNL     1       5.131   3.845  15.493  0.00  0.00    +0.000 A 
ATOM     16  C   UNL     1       5.764   4.159  14.288  0.00  0.00    +0.000 A 
ATOM     17  C   UNL     1       6.964   4.864  14.294  0.00  0.00    +0.000 A 
ATOM     18  C   UNL     1       7.517   5.284  15.503  0.00  0.00    +0.000 A 
ATOM     19  C   UNL     1       6.859   5.017  16.718  0.00  0.00    +0.000 A 
BRANCH  19  20
ATOM     20  C   UNL     1       7.466   5.456  18.001  0.00  0.00    +0.000 C 
ATOM     21  O   UNL     1       7.642   4.697  18.940  0.00  0.00    +0.000 OA
BRANCH  20  22
ATOM     22  O   UNL     1       7.708   6.781  18.081  0.00  0.00    +0.000 OA
ATOM     23  H   UNL     1       7.393   7.223  18.890  0.00  0.00    +0.000 HD
ENDBRANCH  20  22
ENDBRANCH  19  20
ENDBRANCH   3  14
TORSDOF 5
ENDMDL
MODEL 4
REMARK VINA RESULT:      -6.7      1.569      2.382
REMARK  Name = 
REMARK  6 active torsions:
REMARK  status: ('A' for Active; 'I' for Inactive)
REMARK    1  A    between atoms: C_1  and  N_2
REMARK    2  A    between atoms: C_5  and  N_6
REMARK    3  A    between atoms: C_9  and  C_10
REMARK    4  A    between atoms: N_12  and  C_13
REMARK    5  A    between atoms: C_18  and  C_19
REMARK    6  A    between atoms: C_19  and  O_21
REMARK                            x       y       z     vdW  Elec       q    Type
REMARK                         _______ _______ _______ _____ _____    ______ ____
ROOT
ATOM      1  C   UNL     1       4.934   4.784  18.639  0.00  0.00    +0.000 C 
ATOM      2  O   UNL     1       5.301   3.611  18.717  0.00  0.00    +0.000 OA
ATOM      3  N   UNL     1       3.712   5.236  19.114  0.00  0.00    +0.000 N 
ATOM      4  H   UNL     1       3.284   5.949  18.519  0.00  0.00    +0.000 HD
ENDROOT
BRANCH   1  10
ATOM      5  C   UNL     1       3.996   7.408  17.180  0.00  0.00    +0.000 C 
ATOM      6  N   UNL     1       5.346   6.913  17.339  0.00  0.00    +0.000 N 
ATOM      7  N   UNL     1       6.362   7.704  16.928  0.00  0.00    +0.000 NA
ATOM      8  C   UNL     1       7.456   7.081  17.373  0.00  0.00    +0.000 A 
ATOM      9  C   UNL     1       7.139   5.886  18.034  0.00  0.00    +0.000 A 
ATOM     10  C   UNL     1       5.756   5.773  17.992  0.00  0.00    +0.000 A 
BRANCH   9  11
ATOM     11  N   UNL     1       8.069   4.985  18.631  0.00  0.00    +0.000 N 
ATOM     12  O   UNL     1       8.502   4.084  17.904  0.00  0.00    +0.000 OA
ATOM     13  O   UNL     1       8.285   5.133  19.839  0.00  0.00    +0.000 OA
ENDBRANCH   9  11
ENDBRANCH   1  10
BRANCH   3  14
ATOM     14  C   UNL     1       2.806   4.375  19.793  0.00  0.00    +0.000 A 
ATOM     15  C   UNL     1       2.893   4.227  21.184  0.00  0.00    +0.000 A 
ATOM     16  C   UNL     1       2.032   3.366  21.869  0.00  0.00    +0.000 A 
ATOM     17  C   UNL     1       1.085   2.625  21.168  0.00  0.00    +0.000 A 
ATOM     18  C   UNL     1       0.975   2.769  19.785  0.00  0.00    +0.000 A 
ATOM     19  C   UNL     1       1.804   3.673  19.096  0.00  0.00    +0.000 A 
BRANCH  19  20
ATOM     20  C   UNL     1       1.689   3.805  17.620  0.00  0.00    +0.000 C 
ATOM     21  O   UNL     1       0.783   4.422  17.082  0.00  0.00    +0.000 OA
BRANCH  20  22
ATOM     22  O   UNL     1       2.606   3.103  16.922  0.00  0.00    +0.000 OA
ATOM     23  H   UNL     1       3.321   2.700  17.446  0.00  0.00    +0.000 HD
ENDBRANCH  20  22
ENDBRANCH  19  20
ENDBRANCH   3  14
TORSDOF 5
ENDMDL
MODEL 5
REMARK VINA RESULT:      -6.5      0.736      1.107
REMARK  Name = 
REMARK  6 active torsions:
REMARK  status: ('A' for Active; 'I' for Inactive)
REMARK    1  A    between atoms: C_1  and  N_2
REMARK    2  A    between atoms: C_5  and  N_6
REMARK    3  A    between atoms: C_9  and  C_10
REMARK    4  A    between atoms: N_12  and  C_13
REMARK    5  A    between atoms: C_18  and  C_19
REMARK    6  A    between atoms: C_19  and  O_21
REMARK                            x       y       z     vdW  Elec       q    Type
REMARK                         _______ _______ _______ _____ _____    ______ ____
ROOT
ATOM      1  C   UNL     1       5.401   4.864  19.068  0.00  0.00    +0.000 C 
ATOM      2  O   UNL     1       5.805   3.720  19.279  0.00  0.00    +0.000 OA
ATOM      3  N   UNL     1       4.076   5.247  19.213  0.00  0.00    +0.000 N 
ATOM      4  H   UNL     1       3.766   5.915  18.504  0.00  0.00    +0.000 HD
ENDROOT
BRANCH   1  10
ATOM      5  C   UNL     1       8.273   5.549  20.154  0.00  0.00    +0.000 C 
ATOM      6  N   UNL     1       7.548   6.200  19.085  0.00  0.00    +0.000 N 
ATOM      7  N   UNL     1       8.196   7.142  18.364  0.00  0.00    +0.000 NA
ATOM      8  C   UNL     1       7.361   7.408  17.357  0.00  0.00    +0.000 A 
ATOM      9  C   UNL     1       6.176   6.666  17.455  0.00  0.00    +0.000 A 
ATOM     10  C   UNL     1       6.298   5.888  18.600  0.00  0.00    +0.000 A 
BRANCH   9  11
ATOM     11  N   UNL     1       5.081   6.708  16.544  0.00  0.00    +0.000 N 
ATOM     12  O   UNL     1       3.994   7.067  17.011  0.00  0.00    +0.000 OA
ATOM     13  O   UNL     1       5.297   6.297  15.399  0.00  0.00    +0.000 OA
ENDBRANCH   9  11
ENDBRANCH   1  10
BRANCH   3  14
ATOM     14  C   UNL     1       3.082   4.346  19.686  0.00  0.00    +0.000 A 
ATOM     15  C   UNL     1       2.484   4.560  20.936  0.00  0.00    +0.000 A 
ATOM     16  C   UNL     1       1.526   3.673  21.433  0.00  0.00    +0.000 A 
ATOM     17  C   UNL     1       1.169   2.548  20.696  0.00  0.00    +0.000 A 
ATOM     18  C   UNL     1       1.745   2.325  19.445  0.00  0.00    +0.000 A 
ATOM     19  C   UNL     1       2.672   3.242  18.915  0.00  0.00    +0.000 A 
BRANCH  19  20
ATOM     20  C   UNL     1       3.291   2.985  17.589  0.00  0.00    +0.000 C 
ATOM     21  O   UNL     1       3.061   3.677  16.610  0.00  0.00    +0.000 OA
BRANCH  20  22
ATOM     22  O   UNL     1       4.043   1.867  17.529  0.00  0.00    +0.000 OA
ATOM     23  H   UNL     1       3.921   1.314  16.736  0.00  0.00    +0.000 HD
ENDBRANCH  20  22
ENDBRANCH  19  20
ENDBRANCH   3  14
TORSDOF 5
ENDMDL
MODEL 6
REMARK VINA RESULT:      -6.5      2.029      2.775
REMARK  Name = 
REMARK  6 active torsions:
REMARK  status: ('A' for Active; 'I' for Inactive)
REMARK    1  A    between atoms: C_1  and  N_2
REMARK    2  A    between atoms: C_5  and  N_6
REMARK    3  A    between atoms: C_9  and  C_10
REMARK    4  A    between atoms: N_12  and  C_13
REMARK    5  A    between atoms: C_18  and  C_19
REMARK    6  A    between atoms: C_19  and  O_21
REMARK                            x       y       z     vdW  Elec       q    Type
REMARK                         _______ _______ _______ _____ _____    ______ ____
ROOT
ATOM      1  C   UNL     1       5.052   4.676  18.602  0.00  0.00    +0.000 C 
ATOM      2  O   UNL     1       4.908   5.611  19.391  0.00  0.00    +0.000 OA
ATOM      3  N   UNL     1       4.301   3.511  18.651  0.00  0.00    +0.000 N 
ATOM      4  H   UNL     1       4.839   2.672  18.426  0.00  0.00    +0.000 HD
ENDROOT
BRANCH   1  10
ATOM      5  C   UNL     1       4.765   3.908  15.565  0.00  0.00    +0.000 C 
ATOM      6  N   UNL     1       5.948   4.369  16.257  0.00  0.00    +0.000 N 
ATOM      7  N   UNL     1       7.052   4.626  15.521  0.00  0.00    +0.000 NA
ATOM      8  C   UNL     1       7.888   5.207  16.385  0.00  0.00    +0.000 A 
ATOM      9  C   UNL     1       7.333   5.287  17.669  0.00  0.00    +0.000 A 
ATOM     10  C   UNL     1       6.068   4.720  17.583  0.00  0.00    +0.000 A 
BRANCH   9  11
ATOM     11  N   UNL     1       7.957   5.852  18.820  0.00  0.00    +0.000 N 
ATOM     12  O   UNL     1       8.135   5.090  19.776  0.00  0.00    +0.000 OA
ATOM     13  O   UNL     1       8.178   7.068  18.789  0.00  0.00    +0.000 OA
ENDBRANCH   9  11
ENDBRANCH   1  10
BRANCH   3  14
ATOM     14  C   UNL     1       3.249   3.336  19.593  0.00  0.00    +0.000 A 
ATOM     15  C   UNL     1       3.498   2.666  20.799  0.00  0.00    +0.000 A 
ATOM     16  C   UNL     1       2.474   2.457  21.726  0.00  0.00    +0.000 A 
ATOM     17  C   UNL     1       1.183   2.897  21.450  0.00  0.00    +0.000 A 
ATOM     18  C   UNL     1       0.920   3.576  20.261  0.00  0.00    +0.000 A 
ATOM     19  C   UNL     1       1.957   3.836  19.346  0.00  0.00    +0.000 A 
BRANCH  19  20
ATOM     20  C   UNL     1       1.662   4.547  18.074  0.00  0.00    +0.000 C 
ATOM     21  O   UNL     1       1.089   4.011  17.138  0.00  0.00    +0.000 OA
BRANCH  20  22
ATOM     22  O   UNL     1       2.170   5.794  17.999  0.00  0.00    +0.000 OA
ATOM     23  H   UNL     1       2.621   6.118  18.799  0.00  0.00    +0.000 HD
ENDBRANCH  20  22
ENDBRANCH  19  20
ENDBRANCH   3  14
TORSDOF 5
ENDMDL
MODEL 7
REMARK VINA RESULT:      -6.4      2.552      5.955
REMARK  Name = 
REMARK  6 active torsions:
REMARK  status: ('A' for Active; 'I' for Inactive)
REMARK    1  A    between atoms: C_1  and  N_2
REMARK    2  A    between atoms: C_5  and  N_6
REMARK    3  A    between atoms: C_9  and  C_10
REMARK    4  A    between atoms: N_12  and  C_13
REMARK    5  A    between atoms: C_18  and  C_19
REMARK    6  A    between atoms: C_19  and  O_21
REMARK                            x       y       z     vdW  Elec       q    Type
REMARK                         _______ _______ _______ _____ _____    ______ ____
ROOT
ATOM      1  C   UNL     1       3.922   5.262  18.030  0.00  0.00    +0.000 C 
ATOM      2  O   UNL     1       3.740   6.343  17.468  0.00  0.00    +0.000 OA
ATOM      3  N   UNL     1       4.745   4.266  17.526  0.00  0.00    +0.000 N 
ATOM      4  H   UNL     1       4.383   3.323  17.679  0.00  0.00    +0.000 HD
ENDROOT
BRANCH   1  10
ATOM      5  C   UNL     1       2.188   7.182  19.820  0.00  0.00    +0.000 C 
ATOM      6  N   UNL     1       2.490   5.785  20.047  0.00  0.00    +0.000 N 
ATOM      7  N   UNL     1       1.874   5.165  21.079  0.00  0.00    +0.000 NA
ATOM      8  C   UNL     1       2.191   3.878  20.916  0.00  0.00    +0.000 A 
ATOM      9  C   UNL     1       3.029   3.686  19.809  0.00  0.00    +0.000 A 
ATOM     10  C   UNL     1       3.235   4.942  19.254  0.00  0.00    +0.000 A 
BRANCH   9  11
ATOM     11  N   UNL     1       3.547   2.438  19.355  0.00  0.00    +0.000 N 
ATOM     12  O   UNL     1       2.881   1.849  18.496  0.00  0.00    +0.000 OA
ATOM     13  O   UNL     1       4.561   2.019  19.924  0.00  0.00    +0.000 OA
ENDBRANCH   9  11
ENDBRANCH   1  10
BRANCH   3  14
ATOM     14  C   UNL     1       5.501   4.450  16.335  0.00  0.00    +0.000 A 
ATOM     15  C   UNL     1       4.956   4.078  15.098  0.00  0.00    +0.000 A 
ATOM     16  C   UNL     1       5.691   4.223  13.919  0.00  0.00    +0.000 A 
ATOM     17  C   UNL     1       6.989   4.722  13.963  0.00  0.00    +0.000 A 
ATOM     18  C   UNL     1       7.543   5.109  15.183  0.00  0.00    +0.000 A 
ATOM     19  C   UNL     1       6.791   5.015  16.368  0.00  0.00    +0.000 A 
BRANCH  19  20
ATOM     20  C   UNL     1       7.397   5.415  17.665  0.00  0.00    +0.000 C 
ATOM     21  O   UNL     1       7.648   6.577  17.944  0.00  0.00    +0.000 OA
BRANCH  20  22
ATOM     22  O   UNL     1       7.744   4.383  18.462  0.00  0.00    +0.000 OA
ATOM     23  H   UNL     1       7.007   3.903  18.882  0.00  0.00    +0.000 HD
ENDBRANCH  20  22
ENDBRANCH  19  20
ENDBRANCH   3  14
TORSDOF 5
ENDMDL
MODEL 8
REMARK VINA RESULT:      -6.4      2.496      3.805
REMARK  Name = 
REMARK  6 active torsions:
REMARK  status: ('A' for Active; 'I' for Inactive)
REMARK    1  A    between atoms: C_1  and  N_2
REMARK    2  A    between atoms: C_5  and  N_6
REMARK    3  A    between atoms: C_9  and  C_10
REMARK    4  A    between atoms: N_12  and  C_13
REMARK    5  A    between atoms: C_18  and  C_19
REMARK    6  A    between atoms: C_19  and  O_21
REMARK                            x       y       z     vdW  Elec       q    Type
REMARK                         _______ _______ _______ _____ _____    ______ ____
ROOT
ATOM      1  C   UNL     1       4.597   4.435  16.863  0.00  0.00    +0.000 C 
ATOM      2  O   UNL     1       3.950   5.448  17.134  0.00  0.00    +0.000 OA
ATOM      3  N   UNL     1       4.312   3.182  17.385  0.00  0.00    +0.000 N 
ATOM      4  H   UNL     1       5.146   2.632  17.599  0.00  0.00    +0.000 HD
ENDROOT
BRANCH   1  10
ATOM      5  C   UNL     1       4.712   3.912  13.763  0.00  0.00    +0.000 C 
ATOM      6  N   UNL     1       5.803   4.259  14.647  0.00  0.00    +0.000 N 
ATOM      7  N   UNL     1       7.009   4.514  14.093  0.00  0.00    +0.000 NA
ATOM      8  C   UNL     1       7.737   4.984  15.109  0.00  0.00    +0.000 A 
ATOM      9  C   UNL     1       7.010   4.997  16.306  0.00  0.00    +0.000 A 
ATOM     10  C   UNL     1       5.748   4.504  16.001  0.00  0.00    +0.000 A 
BRANCH   9  11
ATOM     11  N   UNL     1       7.487   5.442  17.574  0.00  0.00    +0.000 N 
ATOM     12  O   UNL     1       7.810   4.560  18.378  0.00  0.00    +0.000 OA
ATOM     13  O   UNL     1       7.448   6.659  17.785  0.00  0.00    +0.000 OA
ENDBRANCH   9  11
ENDBRANCH   1  10
BRANCH   3  14
ATOM     14  C   UNL     1       3.193   2.961  18.236  0.00  0.00    +0.000 A 
ATOM     15  C   UNL     1       1.895   3.012  17.708  0.00  0.00    +0.000 A 
ATOM     16  C   UNL     1       0.780   2.825  18.530  0.00  0.00    +0.000 A 
ATOM     17  C   UNL     1       0.949   2.607  19.894  0.00  0.00    +0.000 A 
ATOM     18  C   UNL     1       2.233   2.541  20.434  0.00  0.00    +0.000 A 
ATOM     19  C   UNL     1       3.362   2.675  19.604  0.00  0.00    +0.000 A 
BRANCH  19  20
ATOM     20  C   UNL     1       4.725   2.620  20.193  0.00  0.00    +0.000 C 
ATOM     21  O   UNL     1       5.068   1.751  20.979  0.00  0.00    +0.000 OA
BRANCH  20  22
ATOM     22  O   UNL     1       5.516   3.664  19.871  0.00  0.00    +0.000 OA
ATOM     23  H   UNL     1       5.263   4.524  20.255  0.00  0.00    +0.000 HD
ENDBRANCH  20  22
ENDBRANCH  19  20
ENDBRANCH   3  14
TORSDOF 5
ENDMDL
MODEL 9
REMARK VINA RESULT:      -6.3      1.467      2.047
REMARK  Name = 
REMARK  6 active torsions:
REMARK  status: ('A' for Active; 'I' for Inactive)
REMARK    1  A    between atoms: C_1  and  N_2
REMARK    2  A    between atoms: C_5  and  N_6
REMARK    3  A    between atoms: C_9  and  C_10
REMARK    4  A    between atoms: N_12  and  C_13
REMARK    5  A    between atoms: C_18  and  C_19
REMARK    6  A    between atoms: C_19  and  O_21
REMARK                            x       y       z     vdW  Elec       q    Type
REMARK                         _______ _______ _______ _____ _____    ______ ____
ROOT
ATOM      1  C   UNL     1       5.347   4.816  18.702  0.00  0.00    +0.000 C 
ATOM      2  O   UNL     1       5.712   3.818  19.326  0.00  0.00    +0.000 OA
ATOM      3  N   UNL     1       4.055   4.992  18.230  0.00  0.00    +0.000 N 
ATOM      4  H   UNL     1       4.015   5.449  17.317  0.00  0.00    +0.000 HD
ENDROOT
BRANCH   1  10
ATOM      5  C   UNL     1       8.115   5.420  20.068  0.00  0.00    +0.000 C 
ATOM      6  N   UNL     1       7.482   6.140  18.986  0.00  0.00    +0.000 N 
ATOM      7  N   UNL     1       8.186   7.125  18.384  0.00  0.00    +0.000 NA
ATOM      8  C   UNL     1       7.438   7.458  17.329  0.00  0.00    +0.000 A 
ATOM      9  C   UNL     1       6.251   6.714  17.279  0.00  0.00    +0.000 A 
ATOM     10  C   UNL     1       6.278   5.865  18.378  0.00  0.00    +0.000 A 
BRANCH   9  11
ATOM     11  N   UNL     1       5.236   6.818  16.284  0.00  0.00    +0.000 N 
ATOM     12  O   UNL     1       5.547   6.452  15.145  0.00  0.00    +0.000 OA
ATOM     13  O   UNL     1       4.174   7.346  16.629  0.00  0.00    +0.000 OA
ENDBRANCH   9  11
ENDBRANCH   1  10
BRANCH   3  14
ATOM     14  C   UNL     1       3.025   4.047  18.492  0.00  0.00    +0.000 A 
ATOM     15  C   UNL     1       2.947   2.872  17.731  0.00  0.00    +0.000 A 
ATOM     16  C   UNL     1       1.927   1.942  17.951  0.00  0.00    +0.000 A 
ATOM     17  C   UNL     1       0.960   2.185  18.922  0.00  0.00    +0.000 A 
ATOM     18  C   UNL     1       1.029   3.343  19.697  0.00  0.00    +0.000 A 
ATOM     19  C   UNL     1       2.082   4.258  19.516  0.00  0.00    +0.000 A 
BRANCH  19  20
ATOM     20  C   UNL     1       2.136   5.497  20.337  0.00  0.00    +0.000 C 
ATOM     21  O   UNL     1       2.033   6.612  19.852  0.00  0.00    +0.000 OA
BRANCH  20  22
ATOM     22  O   UNL     1       2.413   5.292  21.641  0.00  0.00    +0.000 OA
ATOM     23  H   UNL     1       1.736   4.810  22.149  0.00  0.00    +0.000 HD
ENDBRANCH  20  22
ENDBRANCH  19  20
ENDBRANCH   3  14
TORSDOF 5
ENDMDL
