MODEL 1
REMARK VINA RESULT:      -7.6      0.000      0.000
REMARK  Name = 
REMARK  5 active torsions:
REMARK  status: ('A' for Active; 'I' for Inactive)
REMARK    1  A    between atoms: N_3  and  C_4
REMARK    2  A    between atoms: C_6  and  N_7
REMARK    3  A    between atoms: C_11  and  O_12
REMARK    4  A    between atoms: C_19  and  C_20
REMARK    5  A    between atoms: C_20  and  O_21
REMARK                            x       y       z     vdW  Elec       q    Type
REMARK                         _______ _______ _______ _____ _____    ______ ____
ROOT
ATOM      1  N   UNL     1       3.884   5.310  17.546  0.00  0.00    +0.000 N 
ATOM      2  C   UNL     1       3.162   6.304  18.160  0.00  0.00    +0.000 A 
ATOM      3  N   UNL     1       2.332   5.831  19.070  0.00  0.00    +0.000 NA
ATOM      4  C   UNL     1       2.571   4.483  19.073  0.00  0.00    +0.000 A 
ATOM      5  C   UNL     1       2.042   3.440  19.821  0.00  0.00    +0.000 A 
ATOM      6  N   UNL     1       2.468   2.179  19.630  0.00  0.00    +0.000 NA
ATOM      7  C   UNL     1       3.426   1.971  18.711  0.00  0.00    +0.000 A 
ATOM      8  N   UNL     1       3.835   0.659  18.560  0.00  0.00    +0.000 N 
ATOM      9  N   UNL     1       3.999   2.893  17.907  0.00  0.00    +0.000 NA
ATOM     10  C   UNL     1       3.533   4.128  18.145  0.00  0.00    +0.000 A 
ATOM     11  H   UNL     1       3.118   0.040  18.914  0.00  0.00    +0.000 HD
ATOM     12  H   UNL     1       4.179   0.491  17.626  0.00  0.00    +0.000 HD
ENDROOT
BRANCH   1  15
ATOM     13  C   UNL     1       6.542   6.966  17.350  0.00  0.00    +0.000 C 
ATOM     14  C   UNL     1       5.399   6.910  16.356  0.00  0.00    +0.000 C 
ATOM     15  C   UNL     1       4.889   5.486  16.510  0.00  0.00    +0.000 C 
ATOM     16  O   UNL     1       6.045   4.683  16.849  0.00  0.00    +0.000 OA
ATOM     17  C   UNL     1       7.135   5.564  17.215  0.00  0.00    +0.000 C 
BRANCH  13  20
ATOM     18  N   UNL     1       8.647   9.124  18.703  0.00  0.00    +0.000 NA
ATOM     19  N   UNL     1       8.099   8.593  17.859  0.00  0.00    +0.000 NA
ATOM     20  N   UNL     1       7.496   8.002  16.943  0.00  0.00    +0.000 NA
ENDBRANCH  13  20
BRANCH  17  21
ATOM     21  C   UNL     1       7.779   5.071  18.512  0.00  0.00    +0.000 C 
BRANCH  21  22
ATOM     22  O   UNL     1       8.206   6.167  19.314  0.00  0.00    +0.000 OA
ATOM     23  H   UNL     1       8.466   5.802  20.179  0.00  0.00    +0.000 HD
ENDBRANCH  21  22
ENDBRANCH  17  21
ENDBRANCH   1  15
BRANCH   5  24
ATOM     24  O   UNL     1       1.076   3.646  20.776  0.00  0.00    +0.000 OA
ATOM     25  H   UNL     1       0.373   3.009  20.552  0.00  0.00    +0.000 HD
ENDBRANCH   5  24
TORSDOF 5
ENDMDL
MODEL 2
REMARK VINA RESULT:      -7.3      2.355      3.305
REMARK  Name = 
REMARK  5 active torsions:
REMARK  status: ('A' for Active; 'I' for Inactive)
REMARK    1  A    between atoms: N_3  and  C_4
REMARK    2  A    between atoms: C_6  and  N_7
REMARK    3  A    between atoms: C_11  and  O_12
REMARK    4  A    between atoms: C_19  and  C_20
REMARK    5  A    between atoms: C_20  and  O_21
REMARK                            x       y       z     vdW  Elec       q    Type
REMARK                         _______ _______ _______ _____ _____    ______ ____
ROOT
ATOM      1  N   UNL     1       4.188   3.830  18.137  0.00  0.00    +0.000 N 
ATOM      2  C   UNL     1       3.700   3.532  16.889  0.00  0.00    +0.000 A 
ATOM      3  N   UNL     1       2.537   2.911  16.941  0.00  0.00    +0.000 NA
ATOM      4  C   UNL     1       2.247   2.856  18.278  0.00  0.00    +0.000 A 
ATOM      5  C   UNL     1       1.160   2.352  18.979  0.00  0.00    +0.000 A 
ATOM      6  N   UNL     1       1.116   2.436  20.321  0.00  0.00    +0.000 NA
ATOM      7  C   UNL     1       2.143   3.035  20.948  0.00  0.00    +0.000 A 
ATOM      8  N   UNL     1       2.045   3.103  22.326  0.00  0.00    +0.000 N 
ATOM      9  N   UNL     1       3.262   3.538  20.383  0.00  0.00    +0.000 NA
ATOM     10  C   UNL     1       3.247   3.424  19.046  0.00  0.00    +0.000 A 
ATOM     11  H   UNL     1       1.393   2.401  22.651  0.00  0.00    +0.000 HD
ATOM     12  H   UNL     1       2.958   3.129  22.754  0.00  0.00    +0.000 HD
ENDROOT
BRANCH   1  15
ATOM     13  C   UNL     1       6.386   5.216  16.379  0.00  0.00    +0.000 C 
ATOM     14  C   UNL     1       6.578   4.201  17.487  0.00  0.00    +0.000 C 
ATOM     15  C   UNL     1       5.434   4.519  18.436  0.00  0.00    +0.000 C 
ATOM     16  O   UNL     1       5.209   5.945  18.326  0.00  0.00    +0.000 OA
ATOM     17  C   UNL     1       5.914   6.440  17.162  0.00  0.00    +0.000 C 
BRANCH  13  20
ATOM     18  N   UNL     1       7.621   5.491  13.326  0.00  0.00    +0.000 NA
ATOM     19  N   UNL     1       7.649   5.476  14.463  0.00  0.00    +0.000 NA
ATOM     20  N   UNL     1       7.667   5.459  15.709  0.00  0.00    +0.000 NA
ENDBRANCH  13  20
BRANCH  17  21
ATOM     21  C   UNL     1       4.985   7.339  16.344  0.00  0.00    +0.000 C 
BRANCH  21  22
ATOM     22  O   UNL     1       5.071   7.027  14.957  0.00  0.00    +0.000 OA
ATOM     23  H   UNL     1       5.954   6.644  14.806  0.00  0.00    +0.000 HD
ENDBRANCH  21  22
ENDBRANCH  17  21
ENDBRANCH   1  15
BRANCH   5  24
ATOM     24  O   UNL     1       0.096   1.758  18.345  0.00  0.00    +0.000 OA
ATOM     25  H   UNL     1      -0.160   2.395  17.653  0.00  0.00    +0.000 HD
ENDBRANCH   5  24
TORSDOF 5
ENDMDL
MODEL 3
REMARK VINA RESULT:      -7.2      1.231      2.656
REMARK  Name = 
REMARK  5 active torsions:
REMARK  status: ('A' for Active; 'I' for Inactive)
REMARK    1  A    between atoms: N_3  and  C_4
REMARK    2  A    between atoms: C_6  and  N_7
REMARK    3  A    between atoms: C_11  and  O_12
REMARK    4  A    between atoms: C_19  and  C_20
REMARK    5  A    between atoms: C_20  and  O_21
REMARK                            x       y       z     vdW  Elec       q    Type
REMARK                         _______ _______ _______ _____ _____    ______ ____
ROOT
ATOM      1  N   UNL     1       3.862   3.762  17.951  0.00  0.00    +0.000 N 
ATOM      2  C   UNL     1       3.883   2.434  18.299  0.00  0.00    +0.000 A 
ATOM      3  N   UNL     1       3.353   2.220  19.488  0.00  0.00    +0.000 NA
ATOM      4  C   UNL     1       2.930   3.457  19.894  0.00  0.00    +0.000 A 
ATOM      5  C   UNL     1       2.274   3.893  21.038  0.00  0.00    +0.000 A 
ATOM      6  N   UNL     1       1.956   5.190  21.188  0.00  0.00    +0.000 NA
ATOM      7  C   UNL     1       2.277   6.037  20.195  0.00  0.00    +0.000 A 
ATOM      8  N   UNL     1       1.920   7.358  20.395  0.00  0.00    +0.000 N 
ATOM      9  N   UNL     1       2.934   5.741  19.052  0.00  0.00    +0.000 NA
ATOM     10  C   UNL     1       3.223   4.434  18.961  0.00  0.00    +0.000 A 
ATOM     11  H   UNL     1       1.787   7.523  21.384  0.00  0.00    +0.000 HD
ATOM     12  H   UNL     1       2.536   7.980  19.894  0.00  0.00    +0.000 HD
ENDROOT
BRANCH   1  15
ATOM     13  C   UNL     1       5.894   6.054  17.269  0.00  0.00    +0.000 C 
ATOM     14  C   UNL     1       4.495   5.852  16.725  0.00  0.00    +0.000 C 
ATOM     15  C   UNL     1       4.354   4.339  16.710  0.00  0.00    +0.000 C 
ATOM     16  O   UNL     1       5.681   3.818  16.455  0.00  0.00    +0.000 OA
ATOM     17  C   UNL     1       6.643   4.885  16.630  0.00  0.00    +0.000 C 
BRANCH  13  20
ATOM     18  N   UNL     1       8.235   8.245  18.068  0.00  0.00    +0.000 NA
ATOM     19  N   UNL     1       7.366   7.822  17.468  0.00  0.00    +0.000 NA
ATOM     20  N   UNL     1       6.415   7.347  16.817  0.00  0.00    +0.000 NA
ENDBRANCH  13  20
BRANCH  17  21
ATOM     21  C   UNL     1       7.806   4.391  17.492  0.00  0.00    +0.000 C 
BRANCH  21  22
ATOM     22  O   UNL     1       7.875   5.117  18.715  0.00  0.00    +0.000 OA
ATOM     23  H   UNL     1       7.586   6.027  18.521  0.00  0.00    +0.000 HD
ENDBRANCH  21  22
ENDBRANCH  17  21
ENDBRANCH   1  15
BRANCH   5  24
ATOM     24  O   UNL     1       1.924   3.032  22.049  0.00  0.00    +0.000 OA
ATOM     25  H   UNL     1       2.663   3.088  22.683  0.00  0.00    +0.000 HD
ENDBRANCH   5  24
TORSDOF 5
ENDMDL
MODEL 4
REMARK VINA RESULT:      -7.2      2.074      5.919
REMARK  Name = 
REMARK  5 active torsions:
REMARK  status: ('A' for Active; 'I' for Inactive)
REMARK    1  A    between atoms: N_3  and  C_4
REMARK    2  A    between atoms: C_6  and  N_7
REMARK    3  A    between atoms: C_11  and  O_12
REMARK    4  A    between atoms: C_19  and  C_20
REMARK    5  A    between atoms: C_20  and  O_21
REMARK                            x       y       z     vdW  Elec       q    Type
REMARK                         _______ _______ _______ _____ _____    ______ ____
ROOT
ATOM      1  N   UNL     1       5.311   4.742  16.889  0.00  0.00    +0.000 N 
ATOM      2  C   UNL     1       5.014   5.643  15.897  0.00  0.00    +0.000 A 
ATOM      3  N   UNL     1       5.695   6.766  16.020  0.00  0.00    +0.000 NA
ATOM      4  C   UNL     1       6.499   6.553  17.107  0.00  0.00    +0.000 A 
ATOM      5  C   UNL     1       7.460   7.338  17.729  0.00  0.00    +0.000 A 
ATOM      6  N   UNL     1       8.130   6.876  18.799  0.00  0.00    +0.000 NA
ATOM      7  C   UNL     1       7.850   5.634  19.230  0.00  0.00    +0.000 A 
ATOM      8  N   UNL     1       8.572   5.203  20.327  0.00  0.00    +0.000 N 
ATOM      9  N   UNL     1       6.924   4.787  18.728  0.00  0.00    +0.000 NA
ATOM     10  C   UNL     1       6.291   5.304  17.664  0.00  0.00    +0.000 A 
ATOM     11  H   UNL     1       8.938   6.005  20.824  0.00  0.00    +0.000 HD
ATOM     12  H   UNL     1       8.053   4.520  20.858  0.00  0.00    +0.000 HD
ENDROOT
BRANCH   1  15
ATOM     13  C   UNL     1       3.599   3.344  19.117  0.00  0.00    +0.000 C 
ATOM     14  C   UNL     1       4.858   2.833  18.446  0.00  0.00    +0.000 C 
ATOM     15  C   UNL     1       4.750   3.409  17.043  0.00  0.00    +0.000 C 
ATOM     16  O   UNL     1       3.334   3.469  16.746  0.00  0.00    +0.000 OA
ATOM     17  C   UNL     1       2.590   3.270  17.972  0.00  0.00    +0.000 C 
BRANCH  13  20
ATOM     18  N   UNL     1       2.143   3.469  22.081  0.00  0.00    +0.000 NA
ATOM     19  N   UNL     1       2.666   2.979  21.197  0.00  0.00    +0.000 NA
ATOM     20  N   UNL     1       3.236   2.452  20.222  0.00  0.00    +0.000 NA
ENDBRANCH  13  20
BRANCH  17  21
ATOM     21  C   UNL     1       1.494   4.332  18.085  0.00  0.00    +0.000 C 
BRANCH  21  22
ATOM     22  O   UNL     1       1.399   4.821  19.419  0.00  0.00    +0.000 OA
ATOM     23  H   UNL     1       1.410   5.795  19.366  0.00  0.00    +0.000 HD
ENDBRANCH  21  22
ENDBRANCH  17  21
ENDBRANCH   1  15
BRANCH   5  24
ATOM     24  O   UNL     1       7.768   8.601  17.284  0.00  0.00    +0.000 OA
ATOM     25  H   UNL     1       8.473   8.905  17.885  0.00  0.00    +0.000 HD
ENDBRANCH   5  24
TORSDOF 5
ENDMDL
MODEL 5
REMARK VINA RESULT:      -7.1      2.240      6.117
REMARK  Name = 
REMARK  5 active torsions:
REMARK  status: ('A' for Active; 'I' for Inactive)
REMARK    1  A    between atoms: N_3  and  C_4
REMARK    2  A    between atoms: C_6  and  N_7
REMARK    3  A    between atoms: C_11  and  O_12
REMARK    4  A    between atoms: C_19  and  C_20
REMARK    5  A    between atoms: C_20  and  O_21
REMARK                            x       y       z     vdW  Elec       q    Type
REMARK                         _______ _______ _______ _____ _____    ______ ____
ROOT
ATOM      1  N   UNL     1       3.952   4.999  17.314  0.00  0.00    +0.000 N 
ATOM      2  C   UNL     1       4.265   6.023  18.174  0.00  0.00    +0.000 A 
ATOM      3  N   UNL     1       5.451   6.543  17.922  0.00  0.00    +0.000 NA
ATOM      4  C   UNL     1       5.892   5.856  16.822  0.00  0.00    +0.000 A 
ATOM      5  C   UNL     1       7.050   5.950  16.063  0.00  0.00    +0.000 A 
ATOM      6  N   UNL     1       7.235   5.145  15.002  0.00  0.00    +0.000 NA
ATOM      7  C   UNL     1       6.262   4.269  14.697  0.00  0.00    +0.000 A 
ATOM      8  N   UNL     1       6.498   3.472  13.593  0.00  0.00    +0.000 N 
ATOM      9  N   UNL     1       5.109   4.067  15.370  0.00  0.00    +0.000 NA
ATOM     10  C   UNL     1       4.982   4.897  16.416  0.00  0.00    +0.000 A 
ATOM     11  H   UNL     1       7.492   3.443  13.406  0.00  0.00    +0.000 HD
ATOM     12  H   UNL     1       6.010   2.592  13.669  0.00  0.00    +0.000 HD
ENDROOT
BRANCH   1  15
ATOM     13  C   UNL     1       2.472   3.248  19.456  0.00  0.00    +0.000 C 
ATOM     14  C   UNL     1       2.814   2.885  18.025  0.00  0.00    +0.000 C 
ATOM     15  C   UNL     1       2.723   4.221  17.307  0.00  0.00    +0.000 C 
ATOM     16  O   UNL     1       1.698   4.975  17.998  0.00  0.00    +0.000 OA
ATOM     17  C   UNL     1       1.399   4.316  19.253  0.00  0.00    +0.000 C 
BRANCH  13  20
ATOM     18  N   UNL     1       1.290   2.385  22.419  0.00  0.00    +0.000 NA
ATOM     19  N   UNL     1       1.601   2.228  21.336  0.00  0.00    +0.000 NA
ATOM     20  N   UNL     1       1.943   2.069  20.148  0.00  0.00    +0.000 NA
ENDBRANCH  13  20
BRANCH  17  21
ATOM     21  C   UNL     1       1.376   5.349  20.382  0.00  0.00    +0.000 C 
BRANCH  21  22
ATOM     22  O   UNL     1       2.405   5.085  21.330  0.00  0.00    +0.000 OA
ATOM     23  H   UNL     1       3.161   5.653  21.095  0.00  0.00    +0.000 HD
ENDBRANCH  21  22
ENDBRANCH  17  21
ENDBRANCH   1  15
BRANCH   5  24
ATOM     24  O   UNL     1       8.040   6.856  16.354  0.00  0.00    +0.000 OA
ATOM     25  H   UNL     1       7.681   7.712  16.056  0.00  0.00    +0.000 HD
ENDBRANCH   5  24
TORSDOF 5
ENDMDL
MODEL 6
REMARK VINA RESULT:      -7.0      2.143      2.726
REMARK  Name = 
REMARK  5 active torsions:
REMARK  status: ('A' for Active; 'I' for Inactive)
REMARK    1  A    between atoms: N_3  and  C_4
REMARK    2  A    between atoms: C_6  and  N_7
REMARK    3  A    between atoms: C_11  and  O_12
REMARK    4  A    between atoms: C_19  and  C_20
REMARK    5  A    between atoms: C_20  and  O_21
REMARK                            x       y       z     vdW  Elec       q    Type
REMARK                         _______ _______ _______ _____ _____    ______ ____
ROOT
ATOM      1  N   UNL     1       4.124   5.104  18.266  0.00  0.00    +0.000 N 
ATOM      2  C   UNL     1       3.803   6.400  17.947  0.00  0.00    +0.000 A 
ATOM      3  N   UNL     1       2.840   6.880  18.711  0.00  0.00    +0.000 NA
ATOM      4  C   UNL     1       2.571   5.864  19.589  0.00  0.00    +0.000 A 
ATOM      5  C   UNL     1       1.683   5.755  20.650  0.00  0.00    +0.000 A 
ATOM      6  N   UNL     1       1.624   4.625  21.375  0.00  0.00    +0.000 NA
ATOM      7  C   UNL     1       2.458   3.623  21.050  0.00  0.00    +0.000 A 
ATOM      8  N   UNL     1       2.364   2.487  21.832  0.00  0.00    +0.000 N 
ATOM      9  N   UNL     1       3.344   3.598  20.030  0.00  0.00    +0.000 NA
ATOM     10  C   UNL     1       3.356   4.752  19.345  0.00  0.00    +0.000 A 
ATOM     11  H   UNL     1       1.463   2.470  22.293  0.00  0.00    +0.000 HD
ATOM     12  H   UNL     1       2.641   1.665  21.315  0.00  0.00    +0.000 HD
ENDROOT
BRANCH   1  15
ATOM     13  C   UNL     1       6.753   5.744  16.676  0.00  0.00    +0.000 C 
ATOM     14  C   UNL     1       5.630   4.804  16.287  0.00  0.00    +0.000 C 
ATOM     15  C   UNL     1       5.145   4.285  17.631  0.00  0.00    +0.000 C 
ATOM     16  O   UNL     1       6.310   4.254  18.490  0.00  0.00    +0.000 OA
ATOM     17  C   UNL     1       7.375   5.005  17.860  0.00  0.00    +0.000 C 
BRANCH  13  20
ATOM     18  N   UNL     1       7.102   4.740  13.547  0.00  0.00    +0.000 NA
ATOM     19  N   UNL     1       7.390   5.282  14.506  0.00  0.00    +0.000 NA
ATOM     20  N   UNL     1       7.693   5.874  15.559  0.00  0.00    +0.000 NA
ENDBRANCH  13  20
BRANCH  17  21
ATOM     21  C   UNL     1       8.006   5.955  18.880  0.00  0.00    +0.000 C 
BRANCH  21  22
ATOM     22  O   UNL     1       7.743   5.517  20.209  0.00  0.00    +0.000 OA
ATOM     23  H   UNL     1       6.854   5.118  20.206  0.00  0.00    +0.000 HD
ENDBRANCH  21  22
ENDBRANCH  17  21
ENDBRANCH   1  15
BRANCH   5  24
ATOM     24  O   UNL     1       0.841   6.782  21.003  0.00  0.00    +0.000 OA
ATOM     25  H   UNL     1       1.199   7.109  21.849  0.00  0.00    +0.000 HD
ENDBRANCH   5  24
TORSDOF 5
ENDMDL
MODEL 7
REMARK VINA RESULT:      -7.0      3.108      4.937
REMARK  Name = 
REMARK  5 active torsions:
REMARK  status: ('A' for Active; 'I' for Inactive)
REMARK    1  A    between atoms: N_3  and  C_4
REMARK    2  A    between atoms: C_6  and  N_7
REMARK    3  A    between atoms: C_11  and  O_12
REMARK    4  A    between atoms: C_19  and  C_20
REMARK    5  A    between atoms: C_20  and  O_21
REMARK                            x       y       z     vdW  Elec       q    Type
REMARK                         _______ _______ _______ _____ _____    ______ ____
ROOT
ATOM      1  N   UNL     1       2.768   6.378  18.901  0.00  0.00    +0.000 N 
ATOM      2  C   UNL     1       2.333   5.690  20.007  0.00  0.00    +0.000 A 
ATOM      3  N   UNL     1       1.640   6.452  20.831  0.00  0.00    +0.000 NA
ATOM      4  C   UNL     1       1.586   7.666  20.198  0.00  0.00    +0.000 A 
ATOM      5  C   UNL     1       0.983   8.870  20.534  0.00  0.00    +0.000 A 
ATOM      6  N   UNL     1       1.075   9.930  19.713  0.00  0.00    +0.000 NA
ATOM      7  C   UNL     1       1.749   9.778  18.560  0.00  0.00    +0.000 A 
ATOM      8  N   UNL     1       1.806  10.896  17.748  0.00  0.00    +0.000 N 
ATOM      9  N   UNL     1       2.397   8.672  18.135  0.00  0.00    +0.000 NA
ATOM     10  C   UNL     1       2.269   7.650  18.996  0.00  0.00    +0.000 A 
ATOM     11  H   UNL     1       1.628  11.723  18.302  0.00  0.00    +0.000 HD
ATOM     12  H   UNL     1       2.636  10.886  17.174  0.00  0.00    +0.000 HD
ENDROOT
BRANCH   1  15
ATOM     13  C   UNL     1       5.432   4.730  18.715  0.00  0.00    +0.000 C 
ATOM     14  C   UNL     1       5.051   5.981  17.950  0.00  0.00    +0.000 C 
ATOM     15  C   UNL     1       3.545   5.837  17.797  0.00  0.00    +0.000 C 
ATOM     16  O   UNL     1       3.289   4.415  17.707  0.00  0.00    +0.000 OA
ATOM     17  C   UNL     1       4.481   3.698  18.108  0.00  0.00    +0.000 C 
BRANCH  13  20
ATOM     18  N   UNL     1       7.590   4.733  16.212  0.00  0.00    +0.000 NA
ATOM     19  N   UNL     1       7.235   4.571  17.281  0.00  0.00    +0.000 NA
ATOM     20  N   UNL     1       6.835   4.400  18.448  0.00  0.00    +0.000 NA
ENDBRANCH  13  20
BRANCH  17  21
ATOM     21  C   UNL     1       4.107   2.591  19.096  0.00  0.00    +0.000 C 
BRANCH  21  22
ATOM     22  O   UNL     1       5.215   2.258  19.926  0.00  0.00    +0.000 OA
ATOM     23  H   UNL     1       5.963   2.810  19.636  0.00  0.00    +0.000 HD
ENDBRANCH  21  22
ENDBRANCH  17  21
ENDBRANCH   1  15
BRANCH   5  24
ATOM     24  O   UNL     1       0.275   9.029  21.700  0.00  0.00    +0.000 OA
ATOM     25  H   UNL     1      -0.427   9.668  21.473  0.00  0.00    +0.000 HD
ENDBRANCH   5  24
TORSDOF 5
ENDMDL
MODEL 8
REMARK VINA RESULT:      -7.0      2.350      2.918
REMARK  Name = 
REMARK  5 active torsions:
REMARK  status: ('A' for Active; 'I' for Inactive)
REMARK    1  A    between atoms: N_3  and  C_4
REMARK    2  A    between atoms: C_6  and  N_7
REMARK    3  A    between atoms: C_11  and  O_12
REMARK    4  A    between atoms: C_19  and  C_20
REMARK    5  A    between atoms: C_20  and  O_21
REMARK                            x       y       z     vdW  Elec       q    Type
REMARK                         _______ _______ _______ _____ _____    ______ ____
ROOT
ATOM      1  N   UNL     1       3.554   4.667  17.969  0.00  0.00    +0.000 N 
ATOM      2  C   UNL     1       3.078   4.249  16.750  0.00  0.00    +0.000 A 
ATOM      3  N   UNL     1       2.167   3.302  16.866  0.00  0.00    +0.000 NA
ATOM      4  C   UNL     1       2.018   3.145  18.219  0.00  0.00    +0.000 A 
ATOM      5  C   UNL     1       1.196   2.325  18.980  0.00  0.00    +0.000 A 
ATOM      6  N   UNL     1       1.240   2.375  20.323  0.00  0.00    +0.000 NA
ATOM      7  C   UNL     1       2.086   3.250  20.894  0.00  0.00    +0.000 A 
ATOM      8  N   UNL     1       2.086   3.269  22.276  0.00  0.00    +0.000 N 
ATOM      9  N   UNL     1       2.949   4.078  20.265  0.00  0.00    +0.000 NA
ATOM     10  C   UNL     1       2.858   3.981  18.930  0.00  0.00    +0.000 A 
ATOM     11  H   UNL     1       1.707   2.397  22.624  0.00  0.00    +0.000 HD
ATOM     12  H   UNL     1       2.980   3.567  22.636  0.00  0.00    +0.000 HD
ENDROOT
BRANCH   1  15
ATOM     13  C   UNL     1       6.692   4.700  17.964  0.00  0.00    +0.000 C 
ATOM     14  C   UNL     1       5.752   5.249  19.018  0.00  0.00    +0.000 C 
ATOM     15  C   UNL     1       4.553   5.699  18.199  0.00  0.00    +0.000 C 
ATOM     16  O   UNL     1       5.081   6.121  16.919  0.00  0.00    +0.000 OA
ATOM     17  C   UNL     1       6.451   5.665  16.805  0.00  0.00    +0.000 C 
BRANCH  13  20
ATOM     18  N   UNL     1       8.350   5.366  20.744  0.00  0.00    +0.000 NA
ATOM     19  N   UNL     1       8.223   5.082  19.650  0.00  0.00    +0.000 NA
ATOM     20  N   UNL     1       8.072   4.769  18.453  0.00  0.00    +0.000 NA
ENDBRANCH  13  20
BRANCH  17  21
ATOM     21  C   UNL     1       6.661   5.008  15.439  0.00  0.00    +0.000 C 
BRANCH  21  22
ATOM     22  O   UNL     1       7.786   5.573  14.773  0.00  0.00    +0.000 OA
ATOM     23  H   UNL     1       8.579   5.150  15.149  0.00  0.00    +0.000 HD
ENDBRANCH  21  22
ENDBRANCH  17  21
ENDBRANCH   1  15
BRANCH   5  24
ATOM     24  O   UNL     1       0.314   1.442  18.406  0.00  0.00    +0.000 OA
ATOM     25  H   UNL     1       0.808   1.059  17.657  0.00  0.00    +0.000 HD
ENDBRANCH   5  24
TORSDOF 5
ENDMDL
MODEL 9
REMARK VINA RESULT:      -7.0      2.130      3.692
REMARK  Name = 
REMARK  5 active torsions:
REMARK  status: ('A' for Active; 'I' for Inactive)
REMARK    1  A    between atoms: N_3  and  C_4
REMARK    2  A    between atoms: C_6  and  N_7
REMARK    3  A    between atoms: C_11  and  O_12
REMARK    4  A    between atoms: C_19  and  C_20
REMARK    5  A    between atoms: C_20  and  O_21
REMARK                            x       y       z     vdW  Elec       q    Type
REMARK                         _______ _______ _______ _____ _____    ______ ____
ROOT
ATOM      1  N   UNL     1       4.670   4.127  19.031  0.00  0.00    +0.000 N 
ATOM      2  C   UNL     1       4.491   2.860  18.533  0.00  0.00    +0.000 A 
ATOM      3  N   UNL     1       3.275   2.400  18.759  0.00  0.00    +0.000 NA
ATOM      4  C   UNL     1       2.635   3.438  19.383  0.00  0.00    +0.000 A 
ATOM      5  C   UNL     1       1.337   3.591  19.851  0.00  0.00    +0.000 A 
ATOM      6  N   UNL     1       0.953   4.743  20.428  0.00  0.00    +0.000 NA
ATOM      7  C   UNL     1       1.855   5.735  20.518  0.00  0.00    +0.000 A 
ATOM      8  N   UNL     1       1.407   6.900  21.112  0.00  0.00    +0.000 N 
ATOM      9  N   UNL     1       3.147   5.698  20.126  0.00  0.00    +0.000 NA
ATOM     10  C   UNL     1       3.470   4.526  19.559  0.00  0.00    +0.000 A 
ATOM     11  H   UNL     1       0.593   6.698  21.677  0.00  0.00    +0.000 HD
ATOM     12  H   UNL     1       2.167   7.402  21.547  0.00  0.00    +0.000 HD
ENDROOT
BRANCH   1  15
ATOM     13  C   UNL     1       6.458   5.119  16.651  0.00  0.00    +0.000 C 
ATOM     14  C   UNL     1       6.897   4.431  17.928  0.00  0.00    +0.000 C 
ATOM     15  C   UNL     1       5.882   4.926  18.944  0.00  0.00    +0.000 C 
ATOM     16  O   UNL     1       5.521   6.265  18.526  0.00  0.00    +0.000 OA
ATOM     17  C   UNL     1       6.002   6.479  17.178  0.00  0.00    +0.000 C 
BRANCH  13  20
ATOM     18  N   UNL     1       7.111   5.123  13.412  0.00  0.00    +0.000 NA
ATOM     19  N   UNL     1       7.351   5.179  14.523  0.00  0.00    +0.000 NA
ATOM     20  N   UNL     1       7.601   5.243  15.742  0.00  0.00    +0.000 NA
ENDBRANCH  13  20
BRANCH  17  21
ATOM     21  C   UNL     1       4.888   7.095  16.328  0.00  0.00    +0.000 C 
BRANCH  21  22
ATOM     22  O   UNL     1       5.168   6.943  14.940  0.00  0.00    +0.000 OA
ATOM     23  H   UNL     1       4.311   6.946  14.476  0.00  0.00    +0.000 HD
ENDBRANCH  21  22
ENDBRANCH  17  21
ENDBRANCH   1  15
BRANCH   5  24
ATOM     24  O   UNL     1       0.402   2.591  19.744  0.00  0.00    +0.000 OA
ATOM     25  H   UNL     1      -0.455   3.053  19.800  0.00  0.00    +0.000 HD
ENDBRANCH   5  24
TORSDOF 5
ENDMDL
