MODEL 1
REMARK VINA RESULT:      -7.3      0.000      0.000
REMARK  Name = 
REMARK  6 active torsions:
REMARK  status: ('A' for Active; 'I' for Inactive)
REMARK    1  A    between atoms: C_1  and  C_2
REMARK    2  A    between atoms: C_2  and  C_3
REMARK    3  A    between atoms: C_3  and  N_4
REMARK    4  A    between atoms: C_3  and  C_14
REMARK    5  A    between atoms: C_5  and  S_6
REMARK    6  A    between atoms: N_7  and  C_8
REMARK                            x       y       z     vdW  Elec       q    Type
REMARK                         _______ _______ _______ _____ _____    ______ ____
ROOT
ATOM      1  N   UNL     1       4.194   4.497  16.842  0.00  0.00    +0.000 NA
ATOM      2  C   UNL     1       3.342   5.093  17.585  0.00  0.00    +0.000 C 
ATOM      3  N   UNL     1       2.333   4.416  18.235  0.00  0.00    +0.000 N 
ATOM      4  H   UNL     1       1.734   5.007  18.803  0.00  0.00    +0.000 HD
ENDROOT
BRANCH   3   5
ATOM      5  C   UNL     1       2.423   3.017  18.628  0.00  0.00    +0.000 C 
ATOM      6  C   UNL     1       3.344   2.863  19.848  0.00  0.00    +0.000 C 
ATOM      7  C   UNL     1       2.718   3.353  21.156  0.00  0.00    +0.000 C 
ATOM      8  C   UNL     1       1.345   2.737  21.395  0.00  0.00    +0.000 C 
ATOM      9  C   UNL     1       0.415   2.978  20.212  0.00  0.00    +0.000 C 
ATOM     10  C   UNL     1       1.021   2.457  18.910  0.00  0.00    +0.000 C 
ENDBRANCH   3   5
BRANCH   2  11
ATOM     11  S   UNL     1       3.263   6.806  17.915  0.00  0.00    +0.000 S 
ATOM     12  H   UNL     1       3.428   7.274  16.673  0.00  0.00    +0.000 HD
ENDBRANCH   2  11
BRANCH   1  13
ATOM     13  C   UNL     1       5.283   5.108  16.083  0.00  0.00    +0.000 C 
BRANCH  13  14
ATOM     14  C   UNL     1       6.332   5.740  17.009  0.00  0.00    +0.000 A 
ATOM     15  C   UNL     1       6.896   5.010  18.072  0.00  0.00    +0.000 A 
ATOM     16  C   UNL     1       7.835   5.596  18.929  0.00  0.00    +0.000 A 
ATOM     17  C   UNL     1       8.228   6.919  18.738  0.00  0.00    +0.000 A 
ATOM     18  C   UNL     1       7.689   7.652  17.684  0.00  0.00    +0.000 A 
ATOM     19  C   UNL     1       6.747   7.070  16.833  0.00  0.00    +0.000 A 
ENDBRANCH  13  14
BRANCH  13  21
ATOM     20  C   UNL     1       6.589   4.465  13.921  0.00  0.00    +0.000 C 
ATOM     21  C   UNL     1       5.928   3.997  15.219  0.00  0.00    +0.000 C 
ENDBRANCH  13  21
ENDBRANCH   1  13
TORSDOF 5
ENDMDL
MODEL 2
REMARK VINA RESULT:      -7.2      0.191      1.120
REMARK  Name = 
REMARK  6 active torsions:
REMARK  status: ('A' for Active; 'I' for Inactive)
REMARK    1  A    between atoms: C_1  and  C_2
REMARK    2  A    between atoms: C_2  and  C_3
REMARK    3  A    between atoms: C_3  and  N_4
REMARK    4  A    between atoms: C_3  and  C_14
REMARK    5  A    between atoms: C_5  and  S_6
REMARK    6  A    between atoms: N_7  and  C_8
REMARK                            x       y       z     vdW  Elec       q    Type
REMARK                         _______ _______ _______ _____ _____    ______ ____
ROOT
ATOM      1  N   UNL     1       4.136   4.604  16.845  0.00  0.00    +0.000 NA
ATOM      2  C   UNL     1       3.262   5.141  17.607  0.00  0.00    +0.000 C 
ATOM      3  N   UNL     1       2.262   4.409  18.210  0.00  0.00    +0.000 N 
ATOM      4  H   UNL     1       1.643   4.955  18.800  0.00  0.00    +0.000 HD
ENDROOT
BRANCH   3   5
ATOM      5  C   UNL     1       2.381   2.994  18.531  0.00  0.00    +0.000 C 
ATOM      6  C   UNL     1       3.385   2.788  19.675  0.00  0.00    +0.000 C 
ATOM      7  C   UNL     1       2.852   3.215  21.045  0.00  0.00    +0.000 C 
ATOM      8  C   UNL     1       1.500   2.583  21.351  0.00  0.00    +0.000 C 
ATOM      9  C   UNL     1       0.489   2.874  20.248  0.00  0.00    +0.000 C 
ATOM     10  C   UNL     1       1.003   2.416  18.884  0.00  0.00    +0.000 C 
ENDBRANCH   3   5
BRANCH   2  11
ATOM     11  S   UNL     1       3.139   6.833  18.025  0.00  0.00    +0.000 S 
ATOM     12  H   UNL     1       4.272   6.967  18.722  0.00  0.00    +0.000 HD
ENDBRANCH   2  11
BRANCH   1  13
ATOM     13  C   UNL     1       5.219   5.279  16.131  0.00  0.00    +0.000 C 
BRANCH  13  14
ATOM     14  C   UNL     1       6.271   5.837  17.099  0.00  0.00    +0.000 A 
ATOM     15  C   UNL     1       6.740   7.158  16.979  0.00  0.00    +0.000 A 
ATOM     16  C   UNL     1       7.715   7.658  17.850  0.00  0.00    +0.000 A 
ATOM     17  C   UNL     1       8.238   6.848  18.856  0.00  0.00    +0.000 A 
ATOM     18  C   UNL     1       7.777   5.541  18.997  0.00  0.00    +0.000 A 
ATOM     19  C   UNL     1       6.808   5.041  18.124  0.00  0.00    +0.000 A 
ENDBRANCH  13  14
BRANCH  13  21
ATOM     20  C   UNL     1       6.857   4.807  14.160  0.00  0.00    +0.000 C 
ATOM     21  C   UNL     1       5.861   4.244  15.176  0.00  0.00    +0.000 C 
ENDBRANCH  13  21
ENDBRANCH   1  13
TORSDOF 5
ENDMDL
MODEL 3
REMARK VINA RESULT:      -6.7      1.734      3.654
REMARK  Name = 
REMARK  6 active torsions:
REMARK  status: ('A' for Active; 'I' for Inactive)
REMARK    1  A    between atoms: C_1  and  C_2
REMARK    2  A    between atoms: C_2  and  C_3
REMARK    3  A    between atoms: C_3  and  N_4
REMARK    4  A    between atoms: C_3  and  C_14
REMARK    5  A    between atoms: C_5  and  S_6
REMARK    6  A    between atoms: N_7  and  C_8
REMARK                            x       y       z     vdW  Elec       q    Type
REMARK                         _______ _______ _______ _____ _____    ______ ____
ROOT
ATOM      1  N   UNL     1       5.635   4.558  16.936  0.00  0.00    +0.000 NA
ATOM      2  C   UNL     1       5.471   4.434  18.198  0.00  0.00    +0.000 C 
ATOM      3  N   UNL     1       4.384   3.782  18.738  0.00  0.00    +0.000 N 
ATOM      4  H   UNL     1       4.382   3.743  19.751  0.00  0.00    +0.000 HD
ENDROOT
BRANCH   3   5
ATOM      5  C   UNL     1       3.651   2.729  18.048  0.00  0.00    +0.000 C 
ATOM      6  C   UNL     1       3.090   1.718  19.060  0.00  0.00    +0.000 C 
ATOM      7  C   UNL     1       1.895   2.245  19.857  0.00  0.00    +0.000 C 
ATOM      8  C   UNL     1       0.808   2.807  18.947  0.00  0.00    +0.000 C 
ATOM      9  C   UNL     1       1.363   3.874  18.012  0.00  0.00    +0.000 C 
ATOM     10  C   UNL     1       2.535   3.339  17.188  0.00  0.00    +0.000 C 
ENDBRANCH   3   5
BRANCH   2  11
ATOM     11  S   UNL     1       6.525   5.039  19.452  0.00  0.00    +0.000 S 
ATOM     12  H   UNL     1       7.494   5.558  18.689  0.00  0.00    +0.000 HD
ENDBRANCH   2  11
BRANCH   1  13
ATOM     13  C   UNL     1       6.725   5.250  16.252  0.00  0.00    +0.000 C 
BRANCH  13  14
ATOM     14  C   UNL     1       6.795   4.863  14.768  0.00  0.00    +0.000 A 
ATOM     15  C   UNL     1       5.947   3.875  14.234  0.00  0.00    +0.000 A 
ATOM     16  C   UNL     1       6.027   3.508  12.886  0.00  0.00    +0.000 A 
ATOM     17  C   UNL     1       6.955   4.122  12.047  0.00  0.00    +0.000 A 
ATOM     18  C   UNL     1       7.794   5.111  12.555  0.00  0.00    +0.000 A 
ATOM     19  C   UNL     1       7.718   5.472  13.902  0.00  0.00    +0.000 A 
ENDBRANCH  13  14
BRANCH  13  21
ATOM     20  C   UNL     1       7.510   7.532  17.234  0.00  0.00    +0.000 C 
ATOM     21  C   UNL     1       6.478   6.770  16.400  0.00  0.00    +0.000 C 
ENDBRANCH  13  21
ENDBRANCH   1  13
TORSDOF 5
ENDMDL
MODEL 4
REMARK VINA RESULT:      -6.7      1.731      3.754
REMARK  Name = 
REMARK  6 active torsions:
REMARK  status: ('A' for Active; 'I' for Inactive)
REMARK    1  A    between atoms: C_1  and  C_2
REMARK    2  A    between atoms: C_2  and  C_3
REMARK    3  A    between atoms: C_3  and  N_4
REMARK    4  A    between atoms: C_3  and  C_14
REMARK    5  A    between atoms: C_5  and  S_6
REMARK    6  A    between atoms: N_7  and  C_8
REMARK                            x       y       z     vdW  Elec       q    Type
REMARK                         _______ _______ _______ _____ _____    ______ ____
ROOT
ATOM      1  N   UNL     1       5.644   4.572  16.947  0.00  0.00    +0.000 NA
ATOM      2  C   UNL     1       5.493   4.455  18.210  0.00  0.00    +0.000 C 
ATOM      3  N   UNL     1       4.411   3.805  18.764  0.00  0.00    +0.000 N 
ATOM      4  H   UNL     1       4.419   3.772  19.778  0.00  0.00    +0.000 HD
ENDROOT
BRANCH   3   5
ATOM      5  C   UNL     1       3.671   2.749  18.088  0.00  0.00    +0.000 C 
ATOM      6  C   UNL     1       3.103   1.755  19.112  0.00  0.00    +0.000 C 
ATOM      7  C   UNL     1       1.910   2.300  19.900  0.00  0.00    +0.000 C 
ATOM      8  C   UNL     1       0.828   2.857  18.983  0.00  0.00    +0.000 C 
ATOM      9  C   UNL     1       1.392   3.908  18.034  0.00  0.00    +0.000 C 
ATOM     10  C   UNL     1       2.560   3.355  17.219  0.00  0.00    +0.000 C 
ENDBRANCH   3   5
BRANCH   2  11
ATOM     11  S   UNL     1       6.558   5.067  19.450  0.00  0.00    +0.000 S 
ATOM     12  H   UNL     1       5.819   6.094  19.884  0.00  0.00    +0.000 HD
ENDBRANCH   2  11
BRANCH   1  13
ATOM     13  C   UNL     1       6.727   5.261  16.247  0.00  0.00    +0.000 C 
BRANCH  13  14
ATOM     14  C   UNL     1       6.794   4.852  14.769  0.00  0.00    +0.000 A 
ATOM     15  C   UNL     1       7.714   5.453  13.890  0.00  0.00    +0.000 A 
ATOM     16  C   UNL     1       7.758   5.095  12.538  0.00  0.00    +0.000 A 
ATOM     17  C   UNL     1       6.885   4.129  12.040  0.00  0.00    +0.000 A 
ATOM     18  C   UNL     1       5.976   3.515  12.898  0.00  0.00    +0.000 A 
ATOM     19  C   UNL     1       5.928   3.877  14.246  0.00  0.00    +0.000 A 
ENDBRANCH  13  14
BRANCH  13  21
ATOM     20  C   UNL     1       7.488   7.559  17.210  0.00  0.00    +0.000 C 
ATOM     21  C   UNL     1       6.470   6.782  16.374  0.00  0.00    +0.000 C 
ENDBRANCH  13  21
ENDBRANCH   1  13
TORSDOF 5
ENDMDL
MODEL 5
REMARK VINA RESULT:      -6.6      2.872      5.977
REMARK  Name = 
REMARK  6 active torsions:
REMARK  status: ('A' for Active; 'I' for Inactive)
REMARK    1  A    between atoms: C_1  and  C_2
REMARK    2  A    between atoms: C_2  and  C_3
REMARK    3  A    between atoms: C_3  and  N_4
REMARK    4  A    between atoms: C_3  and  C_14
REMARK    5  A    between atoms: C_5  and  S_6
REMARK    6  A    between atoms: N_7  and  C_8
REMARK                            x       y       z     vdW  Elec       q    Type
REMARK                         _______ _______ _______ _____ _____    ______ ____
ROOT
ATOM      1  N   UNL     1       3.891   5.057  19.187  0.00  0.00    +0.000 NA
ATOM      2  C   UNL     1       4.604   3.997  19.190  0.00  0.00    +0.000 C 
ATOM      3  N   UNL     1       5.736   3.871  18.414  0.00  0.00    +0.000 N 
ATOM      4  H   UNL     1       6.218   2.984  18.520  0.00  0.00    +0.000 HD
ENDROOT
BRANCH   3   5
ATOM      5  C   UNL     1       6.548   5.000  17.982  0.00  0.00    +0.000 C 
ATOM      6  C   UNL     1       7.603   4.541  16.964  0.00  0.00    +0.000 C 
ATOM      7  C   UNL     1       7.026   4.225  15.582  0.00  0.00    +0.000 C 
ATOM      8  C   UNL     1       6.174   5.370  15.046  0.00  0.00    +0.000 C 
ATOM      9  C   UNL     1       5.076   5.752  16.031  0.00  0.00    +0.000 C 
ATOM     10  C   UNL     1       5.652   6.103  17.402  0.00  0.00    +0.000 C 
ENDBRANCH   3   5
BRANCH   2  11
ATOM     11  S   UNL     1       4.315   2.546  20.117  0.00  0.00    +0.000 S 
ATOM     12  H   UNL     1       4.816   2.937  21.294  0.00  0.00    +0.000 HD
ENDBRANCH   2  11
BRANCH   1  13
ATOM     13  C   UNL     1       2.660   5.295  19.940  0.00  0.00    +0.000 C 
BRANCH  13  14
ATOM     14  C   UNL     1       2.172   6.741  19.780  0.00  0.00    +0.000 A 
ATOM     15  C   UNL     1       1.528   7.412  20.836  0.00  0.00    +0.000 A 
ATOM     16  C   UNL     1       1.063   8.723  20.681  0.00  0.00    +0.000 A 
ATOM     17  C   UNL     1       1.235   9.388  19.468  0.00  0.00    +0.000 A 
ATOM     18  C   UNL     1       1.881   8.744  18.416  0.00  0.00    +0.000 A 
ATOM     19  C   UNL     1       2.339   7.433  18.569  0.00  0.00    +0.000 A 
ENDBRANCH  13  14
BRANCH  13  21
ATOM     20  C   UNL     1       0.811   3.542  20.483  0.00  0.00    +0.000 C 
ATOM     21  C   UNL     1       1.594   4.305  19.413  0.00  0.00    +0.000 C 
ENDBRANCH  13  21
ENDBRANCH   1  13
TORSDOF 5
ENDMDL
MODEL 6
REMARK VINA RESULT:      -6.6      2.862      6.019
REMARK  Name = 
REMARK  6 active torsions:
REMARK  status: ('A' for Active; 'I' for Inactive)
REMARK    1  A    between atoms: C_1  and  C_2
REMARK    2  A    between atoms: C_2  and  C_3
REMARK    3  A    between atoms: C_3  and  N_4
REMARK    4  A    between atoms: C_3  and  C_14
REMARK    5  A    between atoms: C_5  and  S_6
REMARK    6  A    between atoms: N_7  and  C_8
REMARK                            x       y       z     vdW  Elec       q    Type
REMARK                         _______ _______ _______ _____ _____    ______ ____
ROOT
ATOM      1  N   UNL     1       3.880   5.031  19.190  0.00  0.00    +0.000 NA
ATOM      2  C   UNL     1       4.604   3.978  19.199  0.00  0.00    +0.000 C 
ATOM      3  N   UNL     1       5.741   3.860  18.429  0.00  0.00    +0.000 N 
ATOM      4  H   UNL     1       6.231   2.978  18.540  0.00  0.00    +0.000 HD
ENDROOT
BRANCH   3   5
ATOM      5  C   UNL     1       6.543   4.996  17.996  0.00  0.00    +0.000 C 
ATOM      6  C   UNL     1       7.606   4.544  16.983  0.00  0.00    +0.000 C 
ATOM      7  C   UNL     1       7.038   4.218  15.601  0.00  0.00    +0.000 C 
ATOM      8  C   UNL     1       6.177   5.352  15.057  0.00  0.00    +0.000 C 
ATOM      9  C   UNL     1       5.071   5.727  16.036  0.00  0.00    +0.000 C 
ATOM     10  C   UNL     1       5.638   6.088  17.409  0.00  0.00    +0.000 C 
ENDBRANCH   3   5
BRANCH   2  11
ATOM     11  S   UNL     1       4.326   2.527  20.130  0.00  0.00    +0.000 S 
ATOM     12  H   UNL     1       3.587   3.042  21.119  0.00  0.00    +0.000 HD
ENDBRANCH   2  11
BRANCH   1  13
ATOM     13  C   UNL     1       2.645   5.259  19.937  0.00  0.00    +0.000 C 
BRANCH  13  14
ATOM     14  C   UNL     1       2.147   6.702  19.778  0.00  0.00    +0.000 A 
ATOM     15  C   UNL     1       2.315   7.399  18.566  0.00  0.00    +0.000 A 
ATOM     16  C   UNL     1       1.881   8.722  18.431  0.00  0.00    +0.000 A 
ATOM     17  C   UNL     1       1.271   9.373  19.501  0.00  0.00    +0.000 A 
ATOM     18  C   UNL     1       1.086   8.695  20.704  0.00  0.00    +0.000 A 
ATOM     19  C   UNL     1       1.525   7.376  20.841  0.00  0.00    +0.000 A 
ENDBRANCH  13  14
BRANCH  13  21
ATOM     20  C   UNL     1       0.815   3.480  20.465  0.00  0.00    +0.000 C 
ATOM     21  C   UNL     1       1.587   4.263  19.402  0.00  0.00    +0.000 C 
ENDBRANCH  13  21
ENDBRANCH   1  13
TORSDOF 5
ENDMDL
MODEL 7
REMARK VINA RESULT:      -6.5      1.150      1.713
REMARK  Name = 
REMARK  6 active torsions:
REMARK  status: ('A' for Active; 'I' for Inactive)
REMARK    1  A    between atoms: C_1  and  C_2
REMARK    2  A    between atoms: C_2  and  C_3
REMARK    3  A    between atoms: C_3  and  N_4
REMARK    4  A    between atoms: C_3  and  C_14
REMARK    5  A    between atoms: C_5  and  S_6
REMARK    6  A    between atoms: N_7  and  C_8
REMARK                            x       y       z     vdW  Elec       q    Type
REMARK                         _______ _______ _______ _____ _____    ______ ____
ROOT
ATOM      1  N   UNL     1       4.255   5.796  17.468  0.00  0.00    +0.000 NA
ATOM      2  C   UNL     1       3.225   6.260  18.066  0.00  0.00    +0.000 C 
ATOM      3  N   UNL     1       2.430   5.477  18.875  0.00  0.00    +0.000 N 
ATOM      4  H   UNL     1       1.652   5.972  19.300  0.00  0.00    +0.000 HD
ENDROOT
BRANCH   3   5
ATOM      5  C   UNL     1       2.911   4.298  19.581  0.00  0.00    +0.000 C 
ATOM      6  C   UNL     1       1.907   3.880  20.667  0.00  0.00    +0.000 C 
ATOM      7  C   UNL     1       0.641   3.224  20.114  0.00  0.00    +0.000 C 
ATOM      8  C   UNL     1       0.963   2.079  19.161  0.00  0.00    +0.000 C 
ATOM      9  C   UNL     1       1.887   2.534  18.038  0.00  0.00    +0.000 C 
ATOM     10  C   UNL     1       3.170   3.157  18.588  0.00  0.00    +0.000 C 
ENDBRANCH   3   5
BRANCH   2  11
ATOM     11  S   UNL     1       2.622   7.897  17.989  0.00  0.00    +0.000 S 
ATOM     12  H   UNL     1       3.752   8.558  18.264  0.00  0.00    +0.000 HD
ENDBRANCH   2  11
BRANCH   1  13
ATOM     13  C   UNL     1       5.152   6.518  16.567  0.00  0.00    +0.000 C 
BRANCH  13  14
ATOM     14  C   UNL     1       6.393   7.038  17.306  0.00  0.00    +0.000 A 
ATOM     15  C   UNL     1       7.111   6.213  18.191  0.00  0.00    +0.000 A 
ATOM     16  C   UNL     1       8.229   6.696  18.880  0.00  0.00    +0.000 A 
ATOM     17  C   UNL     1       8.651   8.011  18.696  0.00  0.00    +0.000 A 
ATOM     18  C   UNL     1       7.960   8.839  17.815  0.00  0.00    +0.000 A 
ATOM     19  C   UNL     1       6.840   8.359  17.132  0.00  0.00    +0.000 A 
ENDBRANCH  13  14
BRANCH  13  21
ATOM     20  C   UNL     1       5.376   4.054  15.749  0.00  0.00    +0.000 C 
ATOM     21  C   UNL     1       5.566   5.541  15.441  0.00  0.00    +0.000 C 
ENDBRANCH  13  21
ENDBRANCH   1  13
TORSDOF 5
ENDMDL
MODEL 8
REMARK VINA RESULT:      -6.4      1.206      3.344
REMARK  Name = 
REMARK  6 active torsions:
REMARK  status: ('A' for Active; 'I' for Inactive)
REMARK    1  A    between atoms: C_1  and  C_2
REMARK    2  A    between atoms: C_2  and  C_3
REMARK    3  A    between atoms: C_3  and  N_4
REMARK    4  A    between atoms: C_3  and  C_14
REMARK    5  A    between atoms: C_5  and  S_6
REMARK    6  A    between atoms: N_7  and  C_8
REMARK                            x       y       z     vdW  Elec       q    Type
REMARK                         _______ _______ _______ _____ _____    ______ ____
ROOT
ATOM      1  N   UNL     1       5.693   4.384  17.357  0.00  0.00    +0.000 NA
ATOM      2  C   UNL     1       4.630   5.087  17.454  0.00  0.00    +0.000 C 
ATOM      3  N   UNL     1       3.486   4.611  18.056  0.00  0.00    +0.000 N 
ATOM      4  H   UNL     1       2.719   5.275  18.078  0.00  0.00    +0.000 HD
ENDROOT
BRANCH   3   5
ATOM      5  C   UNL     1       3.486   3.587  19.092  0.00  0.00    +0.000 C 
ATOM      6  C   UNL     1       2.908   4.151  20.399  0.00  0.00    +0.000 C 
ATOM      7  C   UNL     1       1.390   4.342  20.368  0.00  0.00    +0.000 C 
ATOM      8  C   UNL     1       0.667   3.076  19.922  0.00  0.00    +0.000 C 
ATOM      9  C   UNL     1       1.190   2.583  18.579  0.00  0.00    +0.000 C 
ATOM     10  C   UNL     1       2.701   2.356  18.617  0.00  0.00    +0.000 C 
ENDBRANCH   3   5
BRANCH   2  11
ATOM     11  S   UNL     1       4.398   6.716  16.868  0.00  0.00    +0.000 S 
ATOM     12  H   UNL     1       5.278   7.354  17.647  0.00  0.00    +0.000 HD
ENDBRANCH   2  11
BRANCH   1  13
ATOM     13  C   UNL     1       6.950   4.768  16.717  0.00  0.00    +0.000 C 
BRANCH  13  14
ATOM     14  C   UNL     1       6.880   4.605  15.193  0.00  0.00    +0.000 A 
ATOM     15  C   UNL     1       5.950   3.734  14.597  0.00  0.00    +0.000 A 
ATOM     16  C   UNL     1       5.903   3.570  13.208  0.00  0.00    +0.000 A 
ATOM     17  C   UNL     1       6.784   4.275  12.389  0.00  0.00    +0.000 A 
ATOM     18  C   UNL     1       7.704   5.151  12.961  0.00  0.00    +0.000 A 
ATOM     19  C   UNL     1       7.754   5.309  14.348  0.00  0.00    +0.000 A 
ENDBRANCH  13  14
BRANCH  13  21
ATOM     20  C   UNL     1       7.837   6.477  18.473  0.00  0.00    +0.000 C 
ATOM     21  C   UNL     1       7.229   6.244  17.089  0.00  0.00    +0.000 C 
ENDBRANCH  13  21
ENDBRANCH   1  13
TORSDOF 5
ENDMDL
MODEL 9
REMARK VINA RESULT:      -6.3      0.936      1.917
REMARK  Name = 
REMARK  6 active torsions:
REMARK  status: ('A' for Active; 'I' for Inactive)
REMARK    1  A    between atoms: C_1  and  C_2
REMARK    2  A    between atoms: C_2  and  C_3
REMARK    3  A    between atoms: C_3  and  N_4
REMARK    4  A    between atoms: C_3  and  C_14
REMARK    5  A    between atoms: C_5  and  S_6
REMARK    6  A    between atoms: N_7  and  C_8
REMARK                            x       y       z     vdW  Elec       q    Type
REMARK                         _______ _______ _______ _____ _____    ______ ____
ROOT
ATOM      1  N   UNL     1       4.135   5.306  17.608  0.00  0.00    +0.000 NA
ATOM      2  C   UNL     1       3.194   5.972  18.158  0.00  0.00    +0.000 C 
ATOM      3  N   UNL     1       2.294   5.394  19.027  0.00  0.00    +0.000 N 
ATOM      4  H   UNL     1       1.605   6.037  19.403  0.00  0.00    +0.000 HD
ENDROOT
BRANCH   3   5
ATOM      5  C   UNL     1       2.595   4.222  19.838  0.00  0.00    +0.000 C 
ATOM      6  C   UNL     1       1.352   3.787  20.630  0.00  0.00    +0.000 C 
ATOM      7  C   UNL     1       0.282   3.112  19.770  0.00  0.00    +0.000 C 
ATOM      8  C   UNL     1       0.856   1.973  18.936  0.00  0.00    +0.000 C 
ATOM      9  C   UNL     1       2.031   2.444  18.088  0.00  0.00    +0.000 C 
ATOM     10  C   UNL     1       3.119   3.086  18.948  0.00  0.00    +0.000 C 
ENDBRANCH   3   5
BRANCH   2  11
ATOM     11  S   UNL     1       2.847   7.669  17.934  0.00  0.00    +0.000 S 
ATOM     12  H   UNL     1       3.816   7.976  17.065  0.00  0.00    +0.000 HD
ENDBRANCH   2  11
BRANCH   1  13
ATOM     13  C   UNL     1       5.125   5.801  16.653  0.00  0.00    +0.000 C 
BRANCH  13  14
ATOM     14  C   UNL     1       6.307   6.475  17.363  0.00  0.00    +0.000 A 
ATOM     15  C   UNL     1       6.703   7.784  17.032  0.00  0.00    +0.000 A 
ATOM     16  C   UNL     1       7.795   8.388  17.665  0.00  0.00    +0.000 A 
ATOM     17  C   UNL     1       8.509   7.697  18.642  0.00  0.00    +0.000 A 
ATOM     18  C   UNL     1       8.125   6.405  18.991  0.00  0.00    +0.000 A 
ATOM     19  C   UNL     1       7.039   5.799  18.354  0.00  0.00    +0.000 A 
ENDBRANCH  13  14
BRANCH  13  21
ATOM     20  C   UNL     1       6.678   4.897  14.766  0.00  0.00    +0.000 C 
ATOM     21  C   UNL     1       5.616   4.590  15.823  0.00  0.00    +0.000 C 
ENDBRANCH  13  21
ENDBRANCH   1  13
TORSDOF 5
ENDMDL
