MODEL 1
REMARK VINA RESULT:      -7.6      0.000      0.000
REMARK  Name = 
REMARK  9 active torsions:
REMARK  status: ('A' for Active; 'I' for Inactive)
REMARK    1  A    between atoms: C_1  and  O_2
REMARK    2  A    between atoms: O_2  and  C_3
REMARK    3  A    between atoms: C_5  and  C_6
REMARK    4  A    between atoms: C_6  and  C_7
REMARK    5  A    between atoms: C_9  and  C_10
REMARK    6  A    between atoms: C_20  and  O_21
REMARK    7  A    between atoms: O_21  and  C_22
REMARK    8  A    between atoms: C_23  and  O_24
REMARK    9  A    between atoms: O_24  and  C_25
REMARK                            x       y       z     vdW  Elec       q    Type
REMARK                         _______ _______ _______ _____ _____    ______ ____
ROOT
ATOM      1  C   UNL     1       2.507   6.328  19.226  0.00  0.00    +0.000 C 
ATOM      2  C   UNL     1       2.355   7.665  19.332  0.00  0.00    +0.000 C 
ENDROOT
BRANCH   2   3
ATOM      3  C   UNL     1       1.455   8.473  20.103  0.00  0.00    +0.000 A 
ATOM      4  C   UNL     1       1.149   8.315  21.444  0.00  0.00    +0.000 A 
ATOM      5  C   UNL     1       0.276   9.350  21.853  0.00  0.00    +0.000 A 
ATOM      6  C   UNL     1      -0.319   9.689  23.083  0.00  0.00    +0.000 A 
ATOM      7  C   UNL     1      -1.176  10.794  23.153  0.00  0.00    +0.000 A 
ATOM      8  C   UNL     1      -1.438  11.548  22.012  0.00  0.00    +0.000 A 
ATOM      9  C   UNL     1      -0.839  11.236  20.779  0.00  0.00    +0.000 A 
ATOM     10  C   UNL     1       0.023  10.127  20.727  0.00  0.00    +0.000 A 
ATOM     11  N   UNL     1       0.764   9.588  19.681  0.00  0.00    +0.000 N 
ATOM     12  H   UNL     1       0.783  10.004  18.760  0.00  0.00    +0.000 HD
ENDBRANCH   2   3
BRANCH   1  15
ATOM     13  C   UNL     1       5.453   6.011  16.842  0.00  0.00    +0.000 A 
ATOM     14  C   UNL     1       4.405   6.559  17.605  0.00  0.00    +0.000 A 
ATOM     15  C   UNL     1       3.460   5.752  18.236  0.00  0.00    +0.000 A 
ATOM     16  C   UNL     1       3.521   4.378  17.975  0.00  0.00    +0.000 A 
ATOM     17  C   UNL     1       4.490   3.815  17.126  0.00  0.00    +0.000 A 
ATOM     18  C   UNL     1       5.483   4.631  16.550  0.00  0.00    +0.000 A 
BRANCH  13  20
ATOM     19  C   UNL     1       7.430   7.217  17.337  0.00  0.00    +0.000 C 
ATOM     20  O   UNL     1       6.443   6.840  16.371  0.00  0.00    +0.000 OA
ENDBRANCH  13  20
BRANCH  17  21
ATOM     21  O   UNL     1       4.317   2.456  17.020  0.00  0.00    +0.000 OA
ATOM     22  C   UNL     1       3.484   1.774  17.944  0.00  0.00    +0.000 C 
ENDBRANCH  17  21
BRANCH  18  23
ATOM     23  O   UNL     1       6.391   3.988  15.758  0.00  0.00    +0.000 OA
ATOM     24  C   UNL     1       6.230   3.916  14.353  0.00  0.00    +0.000 C 
ENDBRANCH  18  23
ENDBRANCH   1  15
BRANCH   1  25
ATOM     25  C   UNL     1       1.691   5.381  20.090  0.00  0.00    +0.000 C 
ATOM     26  N   UNL     1       1.013   4.594  20.806  0.00  0.00    +0.000 NA
ENDBRANCH   1  25
TORSDOF 6
ENDMDL
MODEL 2
REMARK VINA RESULT:      -7.5      0.541      1.165
REMARK  Name = 
REMARK  9 active torsions:
REMARK  status: ('A' for Active; 'I' for Inactive)
REMARK    1  A    between atoms: C_1  and  O_2
REMARK    2  A    between atoms: O_2  and  C_3
REMARK    3  A    between atoms: C_5  and  C_6
REMARK    4  A    between atoms: C_6  and  C_7
REMARK    5  A    between atoms: C_9  and  C_10
REMARK    6  A    between atoms: C_20  and  O_21
REMARK    7  A    between atoms: O_21  and  C_22
REMARK    8  A    between atoms: C_23  and  O_24
REMARK    9  A    between atoms: O_24  and  C_25
REMARK                            x       y       z     vdW  Elec       q    Type
REMARK                         _______ _______ _______ _____ _____    ______ ____
ROOT
ATOM      1  C   UNL     1       2.585   6.281  19.237  0.00  0.00    +0.000 C 
ATOM      2  C   UNL     1       2.491   7.621  19.358  0.00  0.00    +0.000 C 
ENDROOT
BRANCH   2   3
ATOM      3  C   UNL     1       1.634   8.458  20.147  0.00  0.00    +0.000 A 
ATOM      4  C   UNL     1       0.901   9.543  19.697  0.00  0.00    +0.000 A 
ATOM      5  C   UNL     1       0.129  10.064  20.762  0.00  0.00    +0.000 A 
ATOM      6  C   UNL     1      -0.796  11.120  20.865  0.00  0.00    +0.000 A 
ATOM      7  C   UNL     1      -1.387  11.401  22.102  0.00  0.00    +0.000 A 
ATOM      8  C   UNL     1      -1.058  10.641  23.222  0.00  0.00    +0.000 A 
ATOM      9  C   UNL     1      -0.149   9.572  23.135  0.00  0.00    +0.000 A 
ATOM     10  C   UNL     1       0.431   9.300  21.885  0.00  0.00    +0.000 A 
ATOM     11  N   UNL     1       1.331   8.319  21.483  0.00  0.00    +0.000 N 
ATOM     12  H   UNL     1       1.672   7.606  22.114  0.00  0.00    +0.000 HD
ENDBRANCH   2   3
BRANCH   1  15
ATOM     13  C   UNL     1       5.470   5.876  16.791  0.00  0.00    +0.000 A 
ATOM     14  C   UNL     1       4.453   6.454  17.574  0.00  0.00    +0.000 A 
ATOM     15  C   UNL     1       3.501   5.675  18.230  0.00  0.00    +0.000 A 
ATOM     16  C   UNL     1       3.522   4.298  17.976  0.00  0.00    +0.000 A 
ATOM     17  C   UNL     1       4.458   3.706  17.110  0.00  0.00    +0.000 A 
ATOM     18  C   UNL     1       5.458   4.494  16.508  0.00  0.00    +0.000 A 
BRANCH  13  20
ATOM     19  C   UNL     1       7.384   7.183  17.272  0.00  0.00    +0.000 C 
ATOM     20  O   UNL     1       6.469   6.677  16.294  0.00  0.00    +0.000 OA
ENDBRANCH  13  20
BRANCH  17  21
ATOM     21  O   UNL     1       4.249   2.351  17.016  0.00  0.00    +0.000 OA
ATOM     22  C   UNL     1       3.482   1.683  18.005  0.00  0.00    +0.000 C 
ENDBRANCH  17  21
BRANCH  18  23
ATOM     23  O   UNL     1       6.332   3.823  15.701  0.00  0.00    +0.000 OA
ATOM     24  C   UNL     1       6.224   3.870  14.289  0.00  0.00    +0.000 C 
ENDBRANCH  18  23
ENDBRANCH   1  15
BRANCH   1  25
ATOM     25  C   UNL     1       1.739   5.359  20.101  0.00  0.00    +0.000 C 
ATOM     26  N   UNL     1       1.038   4.594  20.817  0.00  0.00    +0.000 NA
ENDBRANCH   1  25
TORSDOF 6
ENDMDL
MODEL 3
REMARK VINA RESULT:      -7.4      1.896      3.691
REMARK  Name = 
REMARK  9 active torsions:
REMARK  status: ('A' for Active; 'I' for Inactive)
REMARK    1  A    between atoms: C_1  and  O_2
REMARK    2  A    between atoms: O_2  and  C_3
REMARK    3  A    between atoms: C_5  and  C_6
REMARK    4  A    between atoms: C_6  and  C_7
REMARK    5  A    between atoms: C_9  and  C_10
REMARK    6  A    between atoms: C_20  and  O_21
REMARK    7  A    between atoms: O_21  and  C_22
REMARK    8  A    between atoms: C_23  and  O_24
REMARK    9  A    between atoms: O_24  and  C_25
REMARK                            x       y       z     vdW  Elec       q    Type
REMARK                         _______ _______ _______ _____ _____    ______ ____
ROOT
ATOM      1  C   UNL     1       1.884   7.747  19.673  0.00  0.00    +0.000 C 
ATOM      2  C   UNL     1       1.268   8.081  20.826  0.00  0.00    +0.000 C 
ENDROOT
BRANCH   2   3
ATOM      3  C   UNL     1       0.635   9.291  21.263  0.00  0.00    +0.000 A 
ATOM      4  C   UNL     1      -0.392   9.397  22.185  0.00  0.00    +0.000 A 
ATOM      5  C   UNL     1      -0.695  10.763  22.399  0.00  0.00    +0.000 A 
ATOM      6  C   UNL     1      -1.610  11.436  23.231  0.00  0.00    +0.000 A 
ATOM      7  C   UNL     1      -1.678  12.833  23.191  0.00  0.00    +0.000 A 
ATOM      8  C   UNL     1      -0.847  13.549  22.332  0.00  0.00    +0.000 A 
ATOM      9  C   UNL     1       0.084  12.896  21.507  0.00  0.00    +0.000 A 
ATOM     10  C   UNL     1       0.144  11.493  21.563  0.00  0.00    +0.000 A 
ATOM     11  N   UNL     1       0.956  10.581  20.898  0.00  0.00    +0.000 N 
ATOM     12  H   UNL     1       1.686  10.869  20.260  0.00  0.00    +0.000 HD
ENDBRANCH   2   3
BRANCH   1  15
ATOM     13  C   UNL     1       2.922   4.150  20.346  0.00  0.00    +0.000 A 
ATOM     14  C   UNL     1       2.474   5.471  20.541  0.00  0.00    +0.000 A 
ATOM     15  C   UNL     1       2.572   6.432  19.536  0.00  0.00    +0.000 A 
ATOM     16  C   UNL     1       3.251   6.066  18.368  0.00  0.00    +0.000 A 
ATOM     17  C   UNL     1       3.807   4.787  18.191  0.00  0.00    +0.000 A 
ATOM     18  C   UNL     1       3.641   3.801  19.183  0.00  0.00    +0.000 A 
BRANCH  13  20
ATOM     19  C   UNL     1       1.317   2.717  21.333  0.00  0.00    +0.000 C 
ATOM     20  O   UNL     1       2.662   3.206  21.309  0.00  0.00    +0.000 OA
ENDBRANCH  13  20
BRANCH  17  21
ATOM     21  O   UNL     1       4.437   4.691  16.973  0.00  0.00    +0.000 OA
ATOM     22  C   UNL     1       5.127   5.813  16.443  0.00  0.00    +0.000 C 
ENDBRANCH  17  21
BRANCH  18  23
ATOM     23  O   UNL     1       4.199   2.586  18.908  0.00  0.00    +0.000 OA
ATOM     24  C   UNL     1       3.468   1.563  18.258  0.00  0.00    +0.000 C 
ENDBRANCH  18  23
ENDBRANCH   1  15
BRANCH   1  25
ATOM     25  C   UNL     1       1.916   8.712  18.499  0.00  0.00    +0.000 C 
ATOM     26  N   UNL     1       1.942   9.513  17.525  0.00  0.00    +0.000 NA
ENDBRANCH   1  25
TORSDOF 6
ENDMDL
MODEL 4
REMARK VINA RESULT:      -7.4      2.121      3.063
REMARK  Name = 
REMARK  9 active torsions:
REMARK  status: ('A' for Active; 'I' for Inactive)
REMARK    1  A    between atoms: C_1  and  O_2
REMARK    2  A    between atoms: O_2  and  C_3
REMARK    3  A    between atoms: C_5  and  C_6
REMARK    4  A    between atoms: C_6  and  C_7
REMARK    5  A    between atoms: C_9  and  C_10
REMARK    6  A    between atoms: C_20  and  O_21
REMARK    7  A    between atoms: O_21  and  C_22
REMARK    8  A    between atoms: C_23  and  O_24
REMARK    9  A    between atoms: O_24  and  C_25
REMARK                            x       y       z     vdW  Elec       q    Type
REMARK                         _______ _______ _______ _____ _____    ______ ____
ROOT
ATOM      1  C   UNL     1       2.149   7.162  19.633  0.00  0.00    +0.000 C 
ATOM      2  C   UNL     1       1.479   7.516  20.750  0.00  0.00    +0.000 C 
ENDROOT
BRANCH   2   3
ATOM      3  C   UNL     1       0.854   8.744  21.148  0.00  0.00    +0.000 A 
ATOM      4  C   UNL     1      -0.098   8.899  22.141  0.00  0.00    +0.000 A 
ATOM      5  C   UNL     1      -0.415  10.271  22.279  0.00  0.00    +0.000 A 
ATOM      6  C   UNL     1      -1.276  10.987  23.132  0.00  0.00    +0.000 A 
ATOM      7  C   UNL     1      -1.382  12.376  22.997  0.00  0.00    +0.000 A 
ATOM      8  C   UNL     1      -0.640  13.041  22.023  0.00  0.00    +0.000 A 
ATOM      9  C   UNL     1       0.238  12.345  21.174  0.00  0.00    +0.000 A 
ATOM     10  C   UNL     1       0.336  10.952  21.327  0.00  0.00    +0.000 A 
ATOM     11  N   UNL     1       1.114  10.008  20.665  0.00  0.00    +0.000 N 
ATOM     12  H   UNL     1       1.782  10.262  19.950  0.00  0.00    +0.000 HD
ENDBRANCH   2   3
BRANCH   1  15
ATOM     13  C   UNL     1       4.850   4.513  19.238  0.00  0.00    +0.000 A 
ATOM     14  C   UNL     1       4.137   5.722  19.124  0.00  0.00    +0.000 A 
ATOM     15  C   UNL     1       2.810   5.830  19.539  0.00  0.00    +0.000 A 
ATOM     16  C   UNL     1       2.176   4.653  19.956  0.00  0.00    +0.000 A 
ATOM     17  C   UNL     1       2.832   3.410  19.973  0.00  0.00    +0.000 A 
ATOM     18  C   UNL     1       4.193   3.325  19.619  0.00  0.00    +0.000 A 
BRANCH  13  20
ATOM     19  C   UNL     1       6.532   4.717  17.584  0.00  0.00    +0.000 C 
ATOM     20  O   UNL     1       6.196   4.502  18.959  0.00  0.00    +0.000 OA
ENDBRANCH  13  20
BRANCH  17  21
ATOM     21  O   UNL     1       1.985   2.415  20.399  0.00  0.00    +0.000 OA
ATOM     22  C   UNL     1       1.403   2.487  21.691  0.00  0.00    +0.000 C 
ENDBRANCH  17  21
BRANCH  18  23
ATOM     23  O   UNL     1       4.745   2.078  19.688  0.00  0.00    +0.000 OA
ATOM     24  C   UNL     1       5.120   1.500  20.926  0.00  0.00    +0.000 C 
ENDBRANCH  18  23
ENDBRANCH   1  15
BRANCH   1  25
ATOM     25  C   UNL     1       2.270   8.121  18.460  0.00  0.00    +0.000 C 
ATOM     26  N   UNL     1       2.371   8.916  17.486  0.00  0.00    +0.000 NA
ENDBRANCH   1  25
TORSDOF 6
ENDMDL
MODEL 5
REMARK VINA RESULT:      -7.4      1.317      1.647
REMARK  Name = 
REMARK  9 active torsions:
REMARK  status: ('A' for Active; 'I' for Inactive)
REMARK    1  A    between atoms: C_1  and  O_2
REMARK    2  A    between atoms: O_2  and  C_3
REMARK    3  A    between atoms: C_5  and  C_6
REMARK    4  A    between atoms: C_6  and  C_7
REMARK    5  A    between atoms: C_9  and  C_10
REMARK    6  A    between atoms: C_20  and  O_21
REMARK    7  A    between atoms: O_21  and  C_22
REMARK    8  A    between atoms: C_23  and  O_24
REMARK    9  A    between atoms: O_24  and  C_25
REMARK                            x       y       z     vdW  Elec       q    Type
REMARK                         _______ _______ _______ _____ _____    ______ ____
ROOT
ATOM      1  C   UNL     1       2.540   7.266  18.602  0.00  0.00    +0.000 C 
ATOM      2  C   UNL     1       2.107   8.460  18.146  0.00  0.00    +0.000 C 
ENDROOT
BRANCH   2   3
ATOM      3  C   UNL     1       1.091   9.358  18.614  0.00  0.00    +0.000 A 
ATOM      4  C   UNL     1       0.978   9.880  19.891  0.00  0.00    +0.000 A 
ATOM      5  C   UNL     1      -0.114  10.778  19.938  0.00  0.00    +0.000 A 
ATOM      6  C   UNL     1      -0.659  11.594  20.948  0.00  0.00    +0.000 A 
ATOM      7  C   UNL     1      -1.788  12.372  20.672  0.00  0.00    +0.000 A 
ATOM      8  C   UNL     1      -2.369  12.335  19.407  0.00  0.00    +0.000 A 
ATOM      9  C   UNL     1      -1.830  11.541  18.380  0.00  0.00    +0.000 A 
ATOM     10  C   UNL     1      -0.692  10.770  18.672  0.00  0.00    +0.000 A 
ATOM     11  N   UNL     1       0.068   9.916  17.880  0.00  0.00    +0.000 N 
ATOM     12  H   UNL     1      -0.126   9.773  16.898  0.00  0.00    +0.000 HD
ENDBRANCH   2   3
BRANCH   1  15
ATOM     13  C   UNL     1       5.758   6.349  16.794  0.00  0.00    +0.000 A 
ATOM     14  C   UNL     1       4.691   7.097  17.326  0.00  0.00    +0.000 A 
ATOM     15  C   UNL     1       3.547   6.482  17.832  0.00  0.00    +0.000 A 
ATOM     16  C   UNL     1       3.447   5.095  17.675  0.00  0.00    +0.000 A 
ATOM     17  C   UNL     1       4.449   4.335  17.045  0.00  0.00    +0.000 A 
ATOM     18  C   UNL     1       5.632   4.958  16.601  0.00  0.00    +0.000 A 
BRANCH  13  20
ATOM     19  C   UNL     1       7.612   7.619  17.538  0.00  0.00    +0.000 C 
ATOM     20  O   UNL     1       6.922   6.994  16.451  0.00  0.00    +0.000 OA
ENDBRANCH  13  20
BRANCH  17  21
ATOM     21  O   UNL     1       4.099   3.007  16.997  0.00  0.00    +0.000 OA
ATOM     22  C   UNL     1       2.993   2.539  17.753  0.00  0.00    +0.000 C 
ENDBRANCH  17  21
BRANCH  18  23
ATOM     23  O   UNL     1       6.552   4.132  16.022  0.00  0.00    +0.000 OA
ATOM     24  C   UNL     1       6.670   4.021  14.615  0.00  0.00    +0.000 C 
ENDBRANCH  18  23
ENDBRANCH   1  15
BRANCH   1  25
ATOM     25  C   UNL     1       1.990   6.678  19.892  0.00  0.00    +0.000 C 
ATOM     26  N   UNL     1       1.533   6.192  20.962  0.00  0.00    +0.000 NA
ENDBRANCH   1  25
TORSDOF 6
ENDMDL
MODEL 6
REMARK VINA RESULT:      -7.3      1.572      2.078
REMARK  Name = 
REMARK  9 active torsions:
REMARK  status: ('A' for Active; 'I' for Inactive)
REMARK    1  A    between atoms: C_1  and  O_2
REMARK    2  A    between atoms: O_2  and  C_3
REMARK    3  A    between atoms: C_5  and  C_6
REMARK    4  A    between atoms: C_6  and  C_7
REMARK    5  A    between atoms: C_9  and  C_10
REMARK    6  A    between atoms: C_20  and  O_21
REMARK    7  A    between atoms: O_21  and  C_22
REMARK    8  A    between atoms: C_23  and  O_24
REMARK    9  A    between atoms: O_24  and  C_25
REMARK                            x       y       z     vdW  Elec       q    Type
REMARK                         _______ _______ _______ _____ _____    ______ ____
ROOT
ATOM      1  C   UNL     1       2.440   7.505  18.544  0.00  0.00    +0.000 C 
ATOM      2  C   UNL     1       1.992   8.656  18.000  0.00  0.00    +0.000 C 
ENDROOT
BRANCH   2   3
ATOM      3  C   UNL     1       0.995   9.596  18.422  0.00  0.00    +0.000 A 
ATOM      4  C   UNL     1      -0.269   9.755  17.880  0.00  0.00    +0.000 A 
ATOM      5  C   UNL     1      -0.977  10.735  18.615  0.00  0.00    +0.000 A 
ATOM      6  C   UNL     1      -2.278  11.264  18.526  0.00  0.00    +0.000 A 
ATOM      7  C   UNL     1      -2.677  12.267  19.416  0.00  0.00    +0.000 A 
ATOM      8  C   UNL     1      -1.790  12.738  20.380  0.00  0.00    +0.000 A 
ATOM      9  C   UNL     1      -0.492  12.210  20.497  0.00  0.00    +0.000 A 
ATOM     10  C   UNL     1      -0.109  11.199  19.599  0.00  0.00    +0.000 A 
ATOM     11  N   UNL     1       1.074  10.480  19.475  0.00  0.00    +0.000 N 
ATOM     12  H   UNL     1       1.853  10.605  20.109  0.00  0.00    +0.000 HD
ENDBRANCH   2   3
BRANCH   1  15
ATOM     13  C   UNL     1       5.623   6.389  16.785  0.00  0.00    +0.000 A 
ATOM     14  C   UNL     1       4.584   7.200  17.282  0.00  0.00    +0.000 A 
ATOM     15  C   UNL     1       3.417   6.651  17.811  0.00  0.00    +0.000 A 
ATOM     16  C   UNL     1       3.265   5.263  17.712  0.00  0.00    +0.000 A 
ATOM     17  C   UNL     1       4.237   4.439  17.118  0.00  0.00    +0.000 A 
ATOM     18  C   UNL     1       5.443   4.997  16.651  0.00  0.00    +0.000 A 
BRANCH  13  20
ATOM     19  C   UNL     1       7.600   7.476  17.502  0.00  0.00    +0.000 C 
ATOM     20  O   UNL     1       6.811   6.974  16.419  0.00  0.00    +0.000 OA
ENDBRANCH  13  20
BRANCH  17  21
ATOM     21  O   UNL     1       3.836   3.125  17.125  0.00  0.00    +0.000 OA
ATOM     22  C   UNL     1       2.536   2.785  17.580  0.00  0.00    +0.000 C 
ENDBRANCH  17  21
BRANCH  18  23
ATOM     23  O   UNL     1       6.332   4.112  16.110  0.00  0.00    +0.000 OA
ATOM     24  C   UNL     1       6.412   3.901  14.712  0.00  0.00    +0.000 C 
ENDBRANCH  18  23
ENDBRANCH   1  15
BRANCH   1  25
ATOM     25  C   UNL     1       1.938   7.037  19.900  0.00  0.00    +0.000 C 
ATOM     26  N   UNL     1       1.522   6.649  21.026  0.00  0.00    +0.000 NA
ENDBRANCH   1  25
TORSDOF 6
ENDMDL
MODEL 7
REMARK VINA RESULT:      -7.2      1.938      3.128
REMARK  Name = 
REMARK  9 active torsions:
REMARK  status: ('A' for Active; 'I' for Inactive)
REMARK    1  A    between atoms: C_1  and  O_2
REMARK    2  A    between atoms: O_2  and  C_3
REMARK    3  A    between atoms: C_5  and  C_6
REMARK    4  A    between atoms: C_6  and  C_7
REMARK    5  A    between atoms: C_9  and  C_10
REMARK    6  A    between atoms: C_20  and  O_21
REMARK    7  A    between atoms: O_21  and  C_22
REMARK    8  A    between atoms: C_23  and  O_24
REMARK    9  A    between atoms: O_24  and  C_25
REMARK                            x       y       z     vdW  Elec       q    Type
REMARK                         _______ _______ _______ _____ _____    ______ ____
ROOT
ATOM      1  C   UNL     1       1.786   7.746  19.589  0.00  0.00    +0.000 C 
ATOM      2  C   UNL     1       1.156   8.111  20.725  0.00  0.00    +0.000 C 
ENDROOT
BRANCH   2   3
ATOM      3  C   UNL     1       0.620   9.366  21.167  0.00  0.00    +0.000 A 
ATOM      4  C   UNL     1      -0.368   9.549  22.119  0.00  0.00    +0.000 A 
ATOM      5  C   UNL     1      -0.571  10.934  22.327  0.00  0.00    +0.000 A 
ATOM      6  C   UNL     1      -1.413  11.676  23.178  0.00  0.00    +0.000 A 
ATOM      7  C   UNL     1      -1.388  13.073  23.124  0.00  0.00    +0.000 A 
ATOM      8  C   UNL     1      -0.539  13.723  22.232  0.00  0.00    +0.000 A 
ATOM      9  C   UNL     1       0.320  13.001  21.386  0.00  0.00    +0.000 A 
ATOM     10  C   UNL     1       0.288  11.598  21.457  0.00  0.00    +0.000 A 
ATOM     11  N   UNL     1       1.015  10.627  20.778  0.00  0.00    +0.000 N 
ATOM     12  H   UNL     1       1.742  10.860  20.114  0.00  0.00    +0.000 HD
ENDBRANCH   2   3
BRANCH   1  15
ATOM     13  C   UNL     1       3.864   4.838  18.288  0.00  0.00    +0.000 A 
ATOM     14  C   UNL     1       3.134   6.041  18.340  0.00  0.00    +0.000 A 
ATOM     15  C   UNL     1       2.356   6.376  19.447  0.00  0.00    +0.000 A 
ATOM     16  C   UNL     1       2.228   5.410  20.452  0.00  0.00    +0.000 A 
ATOM     17  C   UNL     1       2.855   4.154  20.373  0.00  0.00    +0.000 A 
ATOM     18  C   UNL     1       3.696   3.853  19.284  0.00  0.00    +0.000 A 
BRANCH  13  20
ATOM     19  C   UNL     1       6.096   4.977  17.511  0.00  0.00    +0.000 C 
ATOM     20  O   UNL     1       4.733   4.628  17.245  0.00  0.00    +0.000 OA
ENDBRANCH  13  20
BRANCH  17  21
ATOM     21  O   UNL     1       2.551   3.385  21.470  0.00  0.00    +0.000 OA
ATOM     22  C   UNL     1       1.360   2.615  21.487  0.00  0.00    +0.000 C 
ENDBRANCH  17  21
BRANCH  18  23
ATOM     23  O   UNL     1       4.276   2.617  19.309  0.00  0.00    +0.000 OA
ATOM     24  C   UNL     1       3.698   1.513  18.636  0.00  0.00    +0.000 C 
ENDBRANCH  18  23
ENDBRANCH   1  15
BRANCH   1  25
ATOM     25  C   UNL     1       1.955   8.728  18.441  0.00  0.00    +0.000 C 
ATOM     26  N   UNL     1       2.094   9.544  17.489  0.00  0.00    +0.000 NA
ENDBRANCH   1  25
TORSDOF 6
ENDMDL
MODEL 8
REMARK VINA RESULT:      -7.2      1.293      3.064
REMARK  Name = 
REMARK  9 active torsions:
REMARK  status: ('A' for Active; 'I' for Inactive)
REMARK    1  A    between atoms: C_1  and  O_2
REMARK    2  A    between atoms: O_2  and  C_3
REMARK    3  A    between atoms: C_5  and  C_6
REMARK    4  A    between atoms: C_6  and  C_7
REMARK    5  A    between atoms: C_9  and  C_10
REMARK    6  A    between atoms: C_20  and  O_21
REMARK    7  A    between atoms: O_21  and  C_22
REMARK    8  A    between atoms: C_23  and  O_24
REMARK    9  A    between atoms: O_24  and  C_25
REMARK                            x       y       z     vdW  Elec       q    Type
REMARK                         _______ _______ _______ _____ _____    ______ ____
ROOT
ATOM      1  C   UNL     1       2.663   7.121  18.772  0.00  0.00    +0.000 C 
ATOM      2  C   UNL     1       2.279   8.310  18.262  0.00  0.00    +0.000 C 
ENDROOT
BRANCH   2   3
ATOM      3  C   UNL     1       1.214   9.206  18.608  0.00  0.00    +0.000 A 
ATOM      4  C   UNL     1       0.939   9.712  19.867  0.00  0.00    +0.000 A 
ATOM      5  C   UNL     1      -0.147  10.614  19.786  0.00  0.00    +0.000 A 
ATOM      6  C   UNL     1      -0.815  11.419  20.729  0.00  0.00    +0.000 A 
ATOM      7  C   UNL     1      -1.897  12.206  20.321  0.00  0.00    +0.000 A 
ATOM      8  C   UNL     1      -2.310  12.189  18.991  0.00  0.00    +0.000 A 
ATOM      9  C   UNL     1      -1.646  11.406  18.031  0.00  0.00    +0.000 A 
ATOM     10  C   UNL     1      -0.557  10.626  18.456  0.00  0.00    +0.000 A 
ATOM     11  N   UNL     1       0.295   9.779  17.756  0.00  0.00    +0.000 N 
ATOM     12  H   UNL     1       0.229   9.651  16.756  0.00  0.00    +0.000 HD
ENDBRANCH   2   3
BRANCH   1  15
ATOM     13  C   UNL     1       4.527   4.238  17.135  0.00  0.00    +0.000 A 
ATOM     14  C   UNL     1       3.623   4.962  17.936  0.00  0.00    +0.000 A 
ATOM     15  C   UNL     1       3.752   6.337  18.124  0.00  0.00    +0.000 A 
ATOM     16  C   UNL     1       4.890   6.949  17.585  0.00  0.00    +0.000 A 
ATOM     17  C   UNL     1       5.868   6.230  16.876  0.00  0.00    +0.000 A 
ATOM     18  C   UNL     1       5.692   4.854  16.632  0.00  0.00    +0.000 A 
BRANCH  13  20
ATOM     19  C   UNL     1       3.473   2.238  17.837  0.00  0.00    +0.000 C 
ATOM     20  O   UNL     1       4.268   2.917  16.859  0.00  0.00    +0.000 OA
ENDBRANCH  13  20
BRANCH  17  21
ATOM     21  O   UNL     1       6.890   7.056  16.477  0.00  0.00    +0.000 OA
ATOM     22  C   UNL     1       7.620   7.796  17.443  0.00  0.00    +0.000 C 
ENDBRANCH  17  21
BRANCH  18  23
ATOM     23  O   UNL     1       6.686   4.249  15.917  0.00  0.00    +0.000 OA
ATOM     24  C   UNL     1       6.645   4.179  14.503  0.00  0.00    +0.000 C 
ENDBRANCH  18  23
ENDBRANCH   1  15
BRANCH   1  25
ATOM     25  C   UNL     1       1.976   6.540  19.997  0.00  0.00    +0.000 C 
ATOM     26  N   UNL     1       1.406   6.059  21.014  0.00  0.00    +0.000 NA
ENDBRANCH   1  25
TORSDOF 6
ENDMDL
MODEL 9
REMARK VINA RESULT:      -7.1      1.459      3.266
REMARK  Name = 
REMARK  9 active torsions:
REMARK  status: ('A' for Active; 'I' for Inactive)
REMARK    1  A    between atoms: C_1  and  O_2
REMARK    2  A    between atoms: O_2  and  C_3
REMARK    3  A    between atoms: C_5  and  C_6
REMARK    4  A    between atoms: C_6  and  C_7
REMARK    5  A    between atoms: C_9  and  C_10
REMARK    6  A    between atoms: C_20  and  O_21
REMARK    7  A    between atoms: O_21  and  C_22
REMARK    8  A    between atoms: C_23  and  O_24
REMARK    9  A    between atoms: O_24  and  C_25
REMARK                            x       y       z     vdW  Elec       q    Type
REMARK                         _______ _______ _______ _____ _____    ______ ____
ROOT
ATOM      1  C   UNL     1       2.629   7.239  18.712  0.00  0.00    +0.000 C 
ATOM      2  C   UNL     1       2.239   8.398  18.141  0.00  0.00    +0.000 C 
ENDROOT
BRANCH   2   3
ATOM      3  C   UNL     1       1.185   9.318  18.456  0.00  0.00    +0.000 A 
ATOM      4  C   UNL     1       0.020   9.514  17.734  0.00  0.00    +0.000 A 
ATOM      5  C   UNL     1      -0.797  10.455  18.405  0.00  0.00    +0.000 A 
ATOM      6  C   UNL     1      -2.071  10.995  18.145  0.00  0.00    +0.000 A 
ATOM      7  C   UNL     1      -2.606  11.949  19.017  0.00  0.00    +0.000 A 
ATOM      8  C   UNL     1      -1.880  12.361  20.132  0.00  0.00    +0.000 A 
ATOM      9  C   UNL     1      -0.615  11.821  20.418  0.00  0.00    +0.000 A 
ATOM     10  C   UNL     1      -0.094  10.859  19.535  0.00  0.00    +0.000 A 
ATOM     11  N   UNL     1       1.097  10.142  19.556  0.00  0.00    +0.000 N 
ATOM     12  H   UNL     1       1.767  10.228  20.309  0.00  0.00    +0.000 HD
ENDBRANCH   2   3
BRANCH   1  15
ATOM     13  C   UNL     1       4.426   4.273  17.149  0.00  0.00    +0.000 A 
ATOM     14  C   UNL     1       3.537   5.037  17.928  0.00  0.00    +0.000 A 
ATOM     15  C   UNL     1       3.701   6.412  18.088  0.00  0.00    +0.000 A 
ATOM     16  C   UNL     1       4.859   6.983  17.545  0.00  0.00    +0.000 A 
ATOM     17  C   UNL     1       5.822   6.222  16.858  0.00  0.00    +0.000 A 
ATOM     18  C   UNL     1       5.611   4.847  16.642  0.00  0.00    +0.000 A 
BRANCH  13  20
ATOM     19  C   UNL     1       3.281   2.328  17.865  0.00  0.00    +0.000 C 
ATOM     20  O   UNL     1       4.133   2.954  16.900  0.00  0.00    +0.000 OA
ENDBRANCH  13  20
BRANCH  17  21
ATOM     21  O   UNL     1       6.868   7.013  16.449  0.00  0.00    +0.000 OA
ATOM     22  C   UNL     1       7.624   7.738  17.406  0.00  0.00    +0.000 C 
ENDBRANCH  17  21
BRANCH  18  23
ATOM     23  O   UNL     1       6.592   4.201  15.946  0.00  0.00    +0.000 OA
ATOM     24  C   UNL     1       6.537   4.065  14.538  0.00  0.00    +0.000 C 
ENDBRANCH  18  23
ENDBRANCH   1  15
BRANCH   1  25
ATOM     25  C   UNL     1       1.967   6.735  19.984  0.00  0.00    +0.000 C 
ATOM     26  N   UNL     1       1.418   6.316  21.039  0.00  0.00    +0.000 NA
ENDBRANCH   1  25
TORSDOF 6
ENDMDL
