MODEL 1
REMARK VINA RESULT:      -8.2      0.000      0.000
REMARK  Name = 
REMARK  12 active torsions:
REMARK  status: ('A' for Active; 'I' for Inactive)
REMARK    1  A    between atoms: C_1  and  C_2
REMARK    2  A    between atoms: C_2  and  C_3
REMARK    3  A    between atoms: C_4  and  O_5
REMARK    4  A    between atoms: O_5  and  C_6
REMARK    5  A    between atoms: C_6  and  C_7
REMARK    6  A    between atoms: C_10  and  C_11
REMARK    7  A    between atoms: C_22  and  C_23
REMARK    8  A    between atoms: C_24  and  C_25
REMARK    9  A    between atoms: C_25  and  C_26
REMARK   10  A    between atoms: C_26  and  C_27
REMARK   11  A    between atoms: C_27  and  C_28
REMARK   12  A    between atoms: C_28  and  O_30
REMARK                            x       y       z     vdW  Elec       q    Type
REMARK                         _______ _______ _______ _____ _____    ______ ____
ROOT
ATOM      1  C   UNL     1       2.054   5.492  19.662  0.00  0.00    +0.000 A 
ATOM      2  C   UNL     1       1.837   6.850  19.924  0.00  0.00    +0.000 A 
ATOM      3  C   UNL     1       2.587   7.802  19.214  0.00  0.00    +0.000 A 
ATOM      4  C   UNL     1       3.447   7.442  18.182  0.00  0.00    +0.000 A 
ATOM      5  C   UNL     1       3.608   6.106  17.829  0.00  0.00    +0.000 A 
ATOM      6  C   UNL     1       4.490   5.654  16.737  0.00  0.00    +0.000 A 
ATOM      7  C   UNL     1       5.228   6.669  15.897  0.00  0.00    +0.000 C 
ATOM      8  C   UNL     1       4.650   4.324  16.536  0.00  0.00    +0.000 A 
ATOM      9  C   UNL     1       3.977   3.323  17.404  0.00  0.00    +0.000 A 
ATOM     10  O   UNL     1       4.192   2.121  17.301  0.00  0.00    +0.000 OA
ATOM     11  O   UNL     1       3.061   3.790  18.320  0.00  0.00    +0.000 OA
ATOM     12  C   UNL     1       2.913   5.162  18.595  0.00  0.00    +0.000 A 
ENDROOT
BRANCH   1  14
ATOM     13  C   UNL     1       2.324   3.887  21.624  0.00  0.00    +0.000 C 
ATOM     14  C   UNL     1       1.436   4.391  20.498  0.00  0.00    +0.000 C 
ENDBRANCH   1  14
BRANCH   2  15
ATOM     15  O   UNL     1       0.890   7.219  20.851  0.00  0.00    +0.000 OA
BRANCH  15  16
ATOM     16  C   UNL     1       1.336   8.262  21.734  0.00  0.00    +0.000 C 
BRANCH  16  17
ATOM     17  C   UNL     1       0.381   9.412  21.896  0.00  0.00    +0.000 A 
ATOM     18  C   UNL     1      -0.224   9.722  23.107  0.00  0.00    +0.000 A 
ATOM     19  C   UNL     1      -1.176  10.742  23.165  0.00  0.00    +0.000 A 
ATOM     20  C   UNL     1      -1.536  11.492  22.028  0.00  0.00    +0.000 A 
ATOM     21  C   UNL     1      -0.878  11.199  20.825  0.00  0.00    +0.000 A 
ATOM     22  C   UNL     1       0.063  10.172  20.758  0.00  0.00    +0.000 A 
BRANCH  20  23
ATOM     23  C   UNL     1      -2.604  12.512  22.109  0.00  0.00    +0.000 A 
ATOM     24  C   UNL     1      -3.406  12.631  23.257  0.00  0.00    +0.000 A 
ATOM     25  C   UNL     1      -4.486  13.513  23.305  0.00  0.00    +0.000 A 
ATOM     26  C   UNL     1      -4.769  14.321  22.207  0.00  0.00    +0.000 A 
ATOM     27  C   UNL     1      -3.968  14.254  21.074  0.00  0.00    +0.000 A 
ATOM     28  C   UNL     1      -2.898  13.356  21.022  0.00  0.00    +0.000 A 
ENDBRANCH  20  23
ENDBRANCH  16  17
ENDBRANCH  15  16
ENDBRANCH   2  15
BRANCH   8  29
ATOM     29  C   UNL     1       5.567   3.722  15.490  0.00  0.00    +0.000 C 
BRANCH  29  30
ATOM     30  C   UNL     1       5.242   4.087  14.029  0.00  0.00    +0.000 C 
BRANCH  30  31
ATOM     31  C   UNL     1       6.201   3.512  12.990  0.00  0.00    +0.000 C 
BRANCH  31  32
ATOM     32  C   UNL     1       5.483   2.758  11.896  0.00  0.00    +0.000 C 
ATOM     33  O   UNL     1       5.864   1.708  11.404  0.00  0.00    +0.000 OA
BRANCH  32  34
ATOM     34  O   UNL     1       4.336   3.361  11.507  0.00  0.00    +0.000 OA
ATOM     35  H   UNL     1       3.546   3.074  12.003  0.00  0.00    +0.000 HD
ENDBRANCH  32  34
ENDBRANCH  31  32
ENDBRANCH  30  31
ENDBRANCH  29  30
ENDBRANCH   8  29
TORSDOF 10
ENDMDL
MODEL 2
REMARK VINA RESULT:      -8.2      0.915      1.211
REMARK  Name = 
REMARK  12 active torsions:
REMARK  status: ('A' for Active; 'I' for Inactive)
REMARK    1  A    between atoms: C_1  and  C_2
REMARK    2  A    between atoms: C_2  and  C_3
REMARK    3  A    between atoms: C_4  and  O_5
REMARK    4  A    between atoms: O_5  and  C_6
REMARK    5  A    between atoms: C_6  and  C_7
REMARK    6  A    between atoms: C_10  and  C_11
REMARK    7  A    between atoms: C_22  and  C_23
REMARK    8  A    between atoms: C_24  and  C_25
REMARK    9  A    between atoms: C_25  and  C_26
REMARK   10  A    between atoms: C_26  and  C_27
REMARK   11  A    between atoms: C_27  and  C_28
REMARK   12  A    between atoms: C_28  and  O_30
REMARK                            x       y       z     vdW  Elec       q    Type
REMARK                         _______ _______ _______ _____ _____    ______ ____
ROOT
ATOM      1  C   UNL     1       2.416   6.202  19.824  0.00  0.00    +0.000 A 
ATOM      2  C   UNL     1       1.822   7.462  19.688  0.00  0.00    +0.000 A 
ATOM      3  C   UNL     1       2.264   8.308  18.657  0.00  0.00    +0.000 A 
ATOM      4  C   UNL     1       3.184   7.887  17.703  0.00  0.00    +0.000 A 
ATOM      5  C   UNL     1       3.718   6.603  17.752  0.00  0.00    +0.000 A 
ATOM      6  C   UNL     1       4.685   6.086  16.766  0.00  0.00    +0.000 A 
ATOM      7  C   UNL     1       5.097   6.945  15.594  0.00  0.00    +0.000 C 
ATOM      8  C   UNL     1       5.217   4.856  16.958  0.00  0.00    +0.000 A 
ATOM      9  C   UNL     1       4.864   4.035  18.146  0.00  0.00    +0.000 A 
ATOM     10  O   UNL     1       5.413   2.967  18.387  0.00  0.00    +0.000 OA
ATOM     11  O   UNL     1       3.859   4.502  18.964  0.00  0.00    +0.000 OA
ATOM     12  C   UNL     1       3.327   5.797  18.828  0.00  0.00    +0.000 A 
ENDROOT
BRANCH   1  14
ATOM     13  C   UNL     1       1.148   4.181  20.724  0.00  0.00    +0.000 C 
ATOM     14  C   UNL     1       2.144   5.295  21.007  0.00  0.00    +0.000 C 
ENDBRANCH   1  14
BRANCH   2  15
ATOM     15  O   UNL     1       0.815   7.833  20.548  0.00  0.00    +0.000 OA
BRANCH  15  16
ATOM     16  C   UNL     1       1.248   8.753  21.565  0.00  0.00    +0.000 C 
BRANCH  16  17
ATOM     17  C   UNL     1       0.271   9.849  21.890  0.00  0.00    +0.000 A 
ATOM     18  C   UNL     1      -0.445   9.889  23.079  0.00  0.00    +0.000 A 
ATOM     19  C   UNL     1      -1.407  10.882  23.275  0.00  0.00    +0.000 A 
ATOM     20  C   UNL     1      -1.669  11.870  22.306  0.00  0.00    +0.000 A 
ATOM     21  C   UNL     1      -0.901  11.844  21.133  0.00  0.00    +0.000 A 
ATOM     22  C   UNL     1       0.052  10.847  20.926  0.00  0.00    +0.000 A 
BRANCH  20  23
ATOM     23  C   UNL     1      -2.748  12.858  22.513  0.00  0.00    +0.000 A 
ATOM     24  C   UNL     1      -3.959  12.768  21.803  0.00  0.00    +0.000 A 
ATOM     25  C   UNL     1      -4.941  13.754  21.908  0.00  0.00    +0.000 A 
ATOM     26  C   UNL     1      -4.743  14.843  22.753  0.00  0.00    +0.000 A 
ATOM     27  C   UNL     1      -3.574  14.936  23.498  0.00  0.00    +0.000 A 
ATOM     28  C   UNL     1      -2.584  13.957  23.377  0.00  0.00    +0.000 A 
ENDBRANCH  20  23
ENDBRANCH  16  17
ENDBRANCH  15  16
ENDBRANCH   2  15
BRANCH   8  29
ATOM     29  C   UNL     1       6.261   4.226  16.057  0.00  0.00    +0.000 C 
BRANCH  29  30
ATOM     30  C   UNL     1       5.723   3.565  14.774  0.00  0.00    +0.000 C 
BRANCH  30  31
ATOM     31  C   UNL     1       6.423   3.991  13.485  0.00  0.00    +0.000 C 
BRANCH  31  32
ATOM     32  C   UNL     1       5.919   3.236  12.278  0.00  0.00    +0.000 C 
ATOM     33  O   UNL     1       4.808   3.362  11.789  0.00  0.00    +0.000 OA
BRANCH  32  34
ATOM     34  O   UNL     1       6.840   2.390  11.764  0.00  0.00    +0.000 OA
ATOM     35  H   UNL     1       7.513   2.825  11.205  0.00  0.00    +0.000 HD
ENDBRANCH  32  34
ENDBRANCH  31  32
ENDBRANCH  30  31
ENDBRANCH  29  30
ENDBRANCH   8  29
TORSDOF 10
ENDMDL
MODEL 3
REMARK VINA RESULT:      -8.2      2.020      2.927
REMARK  Name = 
REMARK  12 active torsions:
REMARK  status: ('A' for Active; 'I' for Inactive)
REMARK    1  A    between atoms: C_1  and  C_2
REMARK    2  A    between atoms: C_2  and  C_3
REMARK    3  A    between atoms: C_4  and  O_5
REMARK    4  A    between atoms: O_5  and  C_6
REMARK    5  A    between atoms: C_6  and  C_7
REMARK    6  A    between atoms: C_10  and  C_11
REMARK    7  A    between atoms: C_22  and  C_23
REMARK    8  A    between atoms: C_24  and  C_25
REMARK    9  A    between atoms: C_25  and  C_26
REMARK   10  A    between atoms: C_26  and  C_27
REMARK   11  A    between atoms: C_27  and  C_28
REMARK   12  A    between atoms: C_28  and  O_30
REMARK                            x       y       z     vdW  Elec       q    Type
REMARK                         _______ _______ _______ _____ _____    ______ ____
ROOT
ATOM      1  C   UNL     1       2.136   5.902  20.035  0.00  0.00    +0.000 A 
ATOM      2  C   UNL     1       1.666   7.219  20.111  0.00  0.00    +0.000 A 
ATOM      3  C   UNL     1       2.170   8.168  19.206  0.00  0.00    +0.000 A 
ATOM      4  C   UNL     1       3.027   7.814  18.170  0.00  0.00    +0.000 A 
ATOM      5  C   UNL     1       3.434   6.493  18.006  0.00  0.00    +0.000 A 
ATOM      6  C   UNL     1       4.327   6.046  16.922  0.00  0.00    +0.000 A 
ATOM      7  C   UNL     1       4.801   7.032  15.881  0.00  0.00    +0.000 C 
ATOM      8  C   UNL     1       4.740   4.756  16.908  0.00  0.00    +0.000 A 
ATOM      9  C   UNL     1       4.329   3.799  17.969  0.00  0.00    +0.000 A 
ATOM     10  O   UNL     1       4.775   2.660  18.027  0.00  0.00    +0.000 OA
ATOM     11  O   UNL     1       3.389   4.226  18.880  0.00  0.00    +0.000 OA
ATOM     12  C   UNL     1       2.985   5.572  18.960  0.00  0.00    +0.000 A 
ENDROOT
BRANCH   1  14
ATOM     13  C   UNL     1       0.876   3.752  20.574  0.00  0.00    +0.000 C 
ATOM     14  C   UNL     1       1.797   4.854  21.075  0.00  0.00    +0.000 C 
ENDBRANCH   1  14
BRANCH   2  15
ATOM     15  O   UNL     1       0.716   7.546  21.050  0.00  0.00    +0.000 OA
BRANCH  15  16
ATOM     16  C   UNL     1       1.076   8.689  21.845  0.00  0.00    +0.000 C 
BRANCH  16  17
ATOM     17  C   UNL     1       0.064   9.802  21.856  0.00  0.00    +0.000 A 
ATOM     18  C   UNL     1      -0.221  10.569  20.734  0.00  0.00    +0.000 A 
ATOM     19  C   UNL     1      -1.099  11.649  20.838  0.00  0.00    +0.000 A 
ATOM     20  C   UNL     1      -1.731  11.983  22.053  0.00  0.00    +0.000 A 
ATOM     21  C   UNL     1      -1.471  11.167  23.162  0.00  0.00    +0.000 A 
ATOM     22  C   UNL     1      -0.584  10.095  23.067  0.00  0.00    +0.000 A 
BRANCH  20  23
ATOM     23  C   UNL     1      -2.594  13.180  22.146  0.00  0.00    +0.000 A 
ATOM     24  C   UNL     1      -3.709  13.336  21.304  0.00  0.00    +0.000 A 
ATOM     25  C   UNL     1      -4.466  14.508  21.306  0.00  0.00    +0.000 A 
ATOM     26  C   UNL     1      -4.139  15.543  22.177  0.00  0.00    +0.000 A 
ATOM     27  C   UNL     1      -3.068  15.399  23.050  0.00  0.00    +0.000 A 
ATOM     28  C   UNL     1      -2.299  14.232  23.033  0.00  0.00    +0.000 A 
ENDBRANCH  20  23
ENDBRANCH  16  17
ENDBRANCH  15  16
ENDBRANCH   2  15
BRANCH   8  29
ATOM     29  C   UNL     1       5.701   4.176  15.888  0.00  0.00    +0.000 C 
BRANCH  29  30
ATOM     30  C   UNL     1       7.174   4.595  16.049  0.00  0.00    +0.000 C 
BRANCH  30  31
ATOM     31  C   UNL     1       7.750   4.410  17.451  0.00  0.00    +0.000 C 
BRANCH  31  32
ATOM     32  C   UNL     1       7.556   5.629  18.320  0.00  0.00    +0.000 C 
ATOM     33  O   UNL     1       7.730   6.781  17.957  0.00  0.00    +0.000 OA
BRANCH  32  34
ATOM     34  O   UNL     1       7.148   5.324  19.573  0.00  0.00    +0.000 OA
ATOM     35  H   UNL     1       6.338   4.780  19.607  0.00  0.00    +0.000 HD
ENDBRANCH  32  34
ENDBRANCH  31  32
ENDBRANCH  30  31
ENDBRANCH  29  30
ENDBRANCH   8  29
TORSDOF 10
ENDMDL
MODEL 4
REMARK VINA RESULT:      -8.1      2.790      4.399
REMARK  Name = 
REMARK  12 active torsions:
REMARK  status: ('A' for Active; 'I' for Inactive)
REMARK    1  A    between atoms: C_1  and  C_2
REMARK    2  A    between atoms: C_2  and  C_3
REMARK    3  A    between atoms: C_4  and  O_5
REMARK    4  A    between atoms: O_5  and  C_6
REMARK    5  A    between atoms: C_6  and  C_7
REMARK    6  A    between atoms: C_10  and  C_11
REMARK    7  A    between atoms: C_22  and  C_23
REMARK    8  A    between atoms: C_24  and  C_25
REMARK    9  A    between atoms: C_25  and  C_26
REMARK   10  A    between atoms: C_26  and  C_27
REMARK   11  A    between atoms: C_27  and  C_28
REMARK   12  A    between atoms: C_28  and  O_30
REMARK                            x       y       z     vdW  Elec       q    Type
REMARK                         _______ _______ _______ _____ _____    ______ ____
ROOT
ATOM      1  C   UNL     1       1.381   9.499  19.041  0.00  0.00    +0.000 A 
ATOM      2  C   UNL     1       0.521   9.685  20.130  0.00  0.00    +0.000 A 
ATOM      3  C   UNL     1       0.316   8.615  21.017  0.00  0.00    +0.000 A 
ATOM      4  C   UNL     1       1.028   7.425  20.912  0.00  0.00    +0.000 A 
ATOM      5  C   UNL     1       1.964   7.247  19.900  0.00  0.00    +0.000 A 
ATOM      6  C   UNL     1       2.765   6.019  19.738  0.00  0.00    +0.000 A 
ATOM      7  C   UNL     1       2.630   4.897  20.740  0.00  0.00    +0.000 C 
ATOM      8  C   UNL     1       3.580   5.908  18.663  0.00  0.00    +0.000 A 
ATOM      9  C   UNL     1       3.664   6.984  17.640  0.00  0.00    +0.000 A 
ATOM     10  O   UNL     1       4.317   6.855  16.611  0.00  0.00    +0.000 OA
ATOM     11  O   UNL     1       3.004   8.163  17.903  0.00  0.00    +0.000 OA
ATOM     12  C   UNL     1       2.104   8.291  18.978  0.00  0.00    +0.000 A 
ENDROOT
BRANCH   1  14
ATOM     13  C   UNL     1       2.329  11.753  18.318  0.00  0.00    +0.000 C 
ATOM     14  C   UNL     1       1.525  10.521  17.932  0.00  0.00    +0.000 C 
ENDBRANCH   1  14
BRANCH   2  15
ATOM     15  O   UNL     1      -0.084  10.906  20.315  0.00  0.00    +0.000 OA
BRANCH  15  16
ATOM     16  C   UNL     1      -0.145  11.305  21.695  0.00  0.00    +0.000 C 
BRANCH  16  17
ATOM     17  C   UNL     1      -1.446  11.926  22.122  0.00  0.00    +0.000 A 
ATOM     18  C   UNL     1      -1.992  11.736  23.385  0.00  0.00    +0.000 A 
ATOM     19  C   UNL     1      -3.250  12.262  23.682  0.00  0.00    +0.000 A 
ATOM     20  C   UNL     1      -3.990  13.005  22.742  0.00  0.00    +0.000 A 
ATOM     21  C   UNL     1      -3.402  13.230  21.489  0.00  0.00    +0.000 A 
ATOM     22  C   UNL     1      -2.151  12.696  21.181  0.00  0.00    +0.000 A 
BRANCH  20  23
ATOM     23  C   UNL     1      -5.352  13.480  23.064  0.00  0.00    +0.000 A 
ATOM     24  C   UNL     1      -5.577  14.801  23.489  0.00  0.00    +0.000 A 
ATOM     25  C   UNL     1      -6.839  15.231  23.901  0.00  0.00    +0.000 A 
ATOM     26  C   UNL     1      -7.916  14.349  23.867  0.00  0.00    +0.000 A 
ATOM     27  C   UNL     1      -7.732  13.049  23.412  0.00  0.00    +0.000 A 
ATOM     28  C   UNL     1      -6.463  12.617  23.018  0.00  0.00    +0.000 A 
ENDBRANCH  20  23
ENDBRANCH  16  17
ENDBRANCH  15  16
ENDBRANCH   2  15
BRANCH   8  29
ATOM     29  C   UNL     1       4.414   4.683  18.344  0.00  0.00    +0.000 C 
BRANCH  29  30
ATOM     30  C   UNL     1       5.751   4.572  19.101  0.00  0.00    +0.000 C 
BRANCH  30  31
ATOM     31  C   UNL     1       6.791   5.629  18.734  0.00  0.00    +0.000 C 
BRANCH  31  32
ATOM     32  C   UNL     1       7.479   5.331  17.423  0.00  0.00    +0.000 C 
ATOM     33  O   UNL     1       8.069   4.295  17.164  0.00  0.00    +0.000 OA
BRANCH  32  34
ATOM     34  O   UNL     1       7.370   6.340  16.529  0.00  0.00    +0.000 OA
ATOM     35  H   UNL     1       7.211   6.045  15.613  0.00  0.00    +0.000 HD
ENDBRANCH  32  34
ENDBRANCH  31  32
ENDBRANCH  30  31
ENDBRANCH  29  30
ENDBRANCH   8  29
TORSDOF 10
ENDMDL
MODEL 5
REMARK VINA RESULT:      -8.0      2.293      3.608
REMARK  Name = 
REMARK  12 active torsions:
REMARK  status: ('A' for Active; 'I' for Inactive)
REMARK    1  A    between atoms: C_1  and  C_2
REMARK    2  A    between atoms: C_2  and  C_3
REMARK    3  A    between atoms: C_4  and  O_5
REMARK    4  A    between atoms: O_5  and  C_6
REMARK    5  A    between atoms: C_6  and  C_7
REMARK    6  A    between atoms: C_10  and  C_11
REMARK    7  A    between atoms: C_22  and  C_23
REMARK    8  A    between atoms: C_24  and  C_25
REMARK    9  A    between atoms: C_25  and  C_26
REMARK   10  A    between atoms: C_26  and  C_27
REMARK   11  A    between atoms: C_27  and  C_28
REMARK   12  A    between atoms: C_28  and  O_30
REMARK                            x       y       z     vdW  Elec       q    Type
REMARK                         _______ _______ _______ _____ _____    ______ ____
ROOT
ATOM      1  C   UNL     1       2.177   7.342  19.193  0.00  0.00    +0.000 A 
ATOM      2  C   UNL     1       1.496   6.766  20.271  0.00  0.00    +0.000 A 
ATOM      3  C   UNL     1       1.615   5.382  20.483  0.00  0.00    +0.000 A 
ATOM      4  C   UNL     1       2.477   4.594  19.728  0.00  0.00    +0.000 A 
ATOM      5  C   UNL     1       3.245   5.156  18.714  0.00  0.00    +0.000 A 
ATOM      6  C   UNL     1       4.190   4.384  17.886  0.00  0.00    +0.000 A 
ATOM      7  C   UNL     1       4.405   2.915  18.163  0.00  0.00    +0.000 C 
ATOM      8  C   UNL     1       4.818   5.006  16.861  0.00  0.00    +0.000 A 
ATOM      9  C   UNL     1       4.558   6.435  16.545  0.00  0.00    +0.000 A 
ATOM     10  O   UNL     1       5.039   6.983  15.561  0.00  0.00    +0.000 OA
ATOM     11  O   UNL     1       3.774   7.147  17.425  0.00  0.00    +0.000 OA
ATOM     12  C   UNL     1       3.060   6.521  18.464  0.00  0.00    +0.000 A 
ENDROOT
BRANCH   1  14
ATOM     13  C   UNL     1       0.844   8.983  17.768  0.00  0.00    +0.000 C 
ATOM     14  C   UNL     1       1.969   8.782  18.772  0.00  0.00    +0.000 C 
ENDBRANCH   1  14
BRANCH   2  15
ATOM     15  O   UNL     1       0.746   7.564  21.104  0.00  0.00    +0.000 OA
BRANCH  15  16
ATOM     16  C   UNL     1       1.433   8.759  21.513  0.00  0.00    +0.000 C 
BRANCH  16  17
ATOM     17  C   UNL     1       0.542   9.875  21.987  0.00  0.00    +0.000 A 
ATOM     18  C   UNL     1      -0.377   9.718  23.016  0.00  0.00    +0.000 A 
ATOM     19  C   UNL     1      -1.240  10.767  23.340  0.00  0.00    +0.000 A 
ATOM     20  C   UNL     1      -1.200  12.002  22.664  0.00  0.00    +0.000 A 
ATOM     21  C   UNL     1      -0.233  12.160  21.662  0.00  0.00    +0.000 A 
ATOM     22  C   UNL     1       0.623  11.111  21.325  0.00  0.00    +0.000 A 
BRANCH  20  23
ATOM     23  C   UNL     1      -2.181  13.063  22.979  0.00  0.00    +0.000 A 
ATOM     24  C   UNL     1      -1.795  14.414  23.029  0.00  0.00    +0.000 A 
ATOM     25  C   UNL     1      -2.683  15.412  23.431  0.00  0.00    +0.000 A 
ATOM     26  C   UNL     1      -3.993  15.080  23.768  0.00  0.00    +0.000 A 
ATOM     27  C   UNL     1      -4.413  13.758  23.688  0.00  0.00    +0.000 A 
ATOM     28  C   UNL     1      -3.516  12.758  23.302  0.00  0.00    +0.000 A 
ENDBRANCH  20  23
ENDBRANCH  16  17
ENDBRANCH  15  16
ENDBRANCH   2  15
BRANCH   8  29
ATOM     29  C   UNL     1       5.769   4.322  15.898  0.00  0.00    +0.000 C 
BRANCH  29  30
ATOM     30  C   UNL     1       7.266   4.451  16.235  0.00  0.00    +0.000 C 
BRANCH  30  31
ATOM     31  C   UNL     1       7.576   4.728  17.705  0.00  0.00    +0.000 C 
BRANCH  31  32
ATOM     32  C   UNL     1       7.873   6.185  17.968  0.00  0.00    +0.000 C 
ATOM     33  O   UNL     1       7.829   7.069  17.128  0.00  0.00    +0.000 OA
BRANCH  32  34
ATOM     34  O   UNL     1       8.188   6.434  19.259  0.00  0.00    +0.000 OA
ATOM     35  H   UNL     1       8.924   5.892  19.601  0.00  0.00    +0.000 HD
ENDBRANCH  32  34
ENDBRANCH  31  32
ENDBRANCH  30  31
ENDBRANCH  29  30
ENDBRANCH   8  29
TORSDOF 10
ENDMDL
MODEL 6
REMARK VINA RESULT:      -8.0      1.453      2.544
REMARK  Name = 
REMARK  12 active torsions:
REMARK  status: ('A' for Active; 'I' for Inactive)
REMARK    1  A    between atoms: C_1  and  C_2
REMARK    2  A    between atoms: C_2  and  C_3
REMARK    3  A    between atoms: C_4  and  O_5
REMARK    4  A    between atoms: O_5  and  C_6
REMARK    5  A    between atoms: C_6  and  C_7
REMARK    6  A    between atoms: C_10  and  C_11
REMARK    7  A    between atoms: C_22  and  C_23
REMARK    8  A    between atoms: C_24  and  C_25
REMARK    9  A    between atoms: C_25  and  C_26
REMARK   10  A    between atoms: C_26  and  C_27
REMARK   11  A    between atoms: C_27  and  C_28
REMARK   12  A    between atoms: C_28  and  O_30
REMARK                            x       y       z     vdW  Elec       q    Type
REMARK                         _______ _______ _______ _____ _____    ______ ____
ROOT
ATOM      1  C   UNL     1       2.288   7.309  19.229  0.00  0.00    +0.000 A 
ATOM      2  C   UNL     1       1.588   6.707  20.281  0.00  0.00    +0.000 A 
ATOM      3  C   UNL     1       1.735   5.324  20.484  0.00  0.00    +0.000 A 
ATOM      4  C   UNL     1       2.640   4.565  19.751  0.00  0.00    +0.000 A 
ATOM      5  C   UNL     1       3.424   5.155  18.765  0.00  0.00    +0.000 A 
ATOM      6  C   UNL     1       4.413   4.414  17.960  0.00  0.00    +0.000 A 
ATOM      7  C   UNL     1       4.657   2.948  18.231  0.00  0.00    +0.000 C 
ATOM      8  C   UNL     1       5.057   5.061  16.960  0.00  0.00    +0.000 A 
ATOM      9  C   UNL     1       4.771   6.486  16.649  0.00  0.00    +0.000 A 
ATOM     10  O   UNL     1       5.268   7.055  15.684  0.00  0.00    +0.000 OA
ATOM     11  O   UNL     1       3.943   7.170  17.510  0.00  0.00    +0.000 OA
ATOM     12  C   UNL     1       3.213   6.517  18.521  0.00  0.00    +0.000 A 
ENDROOT
BRANCH   1  14
ATOM     13  C   UNL     1       0.996   8.925  17.738  0.00  0.00    +0.000 C 
ATOM     14  C   UNL     1       2.056   8.748  18.814  0.00  0.00    +0.000 C 
ENDBRANCH   1  14
BRANCH   2  15
ATOM     15  O   UNL     1       0.793   7.478  21.097  0.00  0.00    +0.000 OA
BRANCH  15  16
ATOM     16  C   UNL     1       1.490   8.595  21.675  0.00  0.00    +0.000 C 
BRANCH  16  17
ATOM     17  C   UNL     1       0.625   9.777  22.017  0.00  0.00    +0.000 A 
ATOM     18  C   UNL     1      -0.351   9.734  23.004  0.00  0.00    +0.000 A 
ATOM     19  C   UNL     1      -1.184  10.837  23.203  0.00  0.00    +0.000 A 
ATOM     20  C   UNL     1      -1.056  12.016  22.443  0.00  0.00    +0.000 A 
ATOM     21  C   UNL     1      -0.032  12.060  21.486  0.00  0.00    +0.000 A 
ATOM     22  C   UNL     1       0.794  10.957  21.273  0.00  0.00    +0.000 A 
BRANCH  20  23
ATOM     23  C   UNL     1      -2.005  13.135  22.627  0.00  0.00    +0.000 A 
ATOM     24  C   UNL     1      -1.945  14.277  21.809  0.00  0.00    +0.000 A 
ATOM     25  C   UNL     1      -2.761  15.384  22.042  0.00  0.00    +0.000 A 
ATOM     26  C   UNL     1      -3.680  15.361  23.087  0.00  0.00    +0.000 A 
ATOM     27  C   UNL     1      -3.789  14.229  23.886  0.00  0.00    +0.000 A 
ATOM     28  C   UNL     1      -2.958  13.128  23.662  0.00  0.00    +0.000 A 
ENDBRANCH  20  23
ENDBRANCH  16  17
ENDBRANCH  15  16
ENDBRANCH   2  15
BRANCH   8  29
ATOM     29  C   UNL     1       6.053   4.409  16.022  0.00  0.00    +0.000 C 
BRANCH  29  30
ATOM     30  C   UNL     1       5.478   3.908  14.684  0.00  0.00    +0.000 C 
BRANCH  30  31
ATOM     31  C   UNL     1       6.439   3.979  13.499  0.00  0.00    +0.000 C 
BRANCH  31  32
ATOM     32  C   UNL     1       5.926   3.229  12.293  0.00  0.00    +0.000 C 
ATOM     33  O   UNL     1       4.818   3.372  11.801  0.00  0.00    +0.000 OA
BRANCH  32  34
ATOM     34  O   UNL     1       6.835   2.368  11.782  0.00  0.00    +0.000 OA
ATOM     35  H   UNL     1       7.152   1.699  12.418  0.00  0.00    +0.000 HD
ENDBRANCH  32  34
ENDBRANCH  31  32
ENDBRANCH  30  31
ENDBRANCH  29  30
ENDBRANCH   8  29
TORSDOF 10
ENDMDL
MODEL 7
REMARK VINA RESULT:      -8.0      3.046      4.567
REMARK  Name = 
REMARK  12 active torsions:
REMARK  status: ('A' for Active; 'I' for Inactive)
REMARK    1  A    between atoms: C_1  and  C_2
REMARK    2  A    between atoms: C_2  and  C_3
REMARK    3  A    between atoms: C_4  and  O_5
REMARK    4  A    between atoms: O_5  and  C_6
REMARK    5  A    between atoms: C_6  and  C_7
REMARK    6  A    between atoms: C_10  and  C_11
REMARK    7  A    between atoms: C_22  and  C_23
REMARK    8  A    between atoms: C_24  and  C_25
REMARK    9  A    between atoms: C_25  and  C_26
REMARK   10  A    between atoms: C_26  and  C_27
REMARK   11  A    between atoms: C_27  and  C_28
REMARK   12  A    between atoms: C_28  and  O_30
REMARK                            x       y       z     vdW  Elec       q    Type
REMARK                         _______ _______ _______ _____ _____    ______ ____
ROOT
ATOM      1  C   UNL     1       1.110   9.170  20.431  0.00  0.00    +0.000 A 
ATOM      2  C   UNL     1       1.022  10.357  19.694  0.00  0.00    +0.000 A 
ATOM      3  C   UNL     1       1.699  10.440  18.466  0.00  0.00    +0.000 A 
ATOM      4  C   UNL     1       2.350   9.345  17.909  0.00  0.00    +0.000 A 
ATOM      5  C   UNL     1       2.370   8.121  18.571  0.00  0.00    +0.000 A 
ATOM      6  C   UNL     1       3.028   6.916  18.033  0.00  0.00    +0.000 A 
ATOM      7  C   UNL     1       3.676   6.958  16.669  0.00  0.00    +0.000 C 
ATOM      8  C   UNL     1       3.073   5.801  18.799  0.00  0.00    +0.000 A 
ATOM      9  C   UNL     1       2.495   5.777  20.168  0.00  0.00    +0.000 A 
ATOM     10  O   UNL     1       2.618   4.811  20.911  0.00  0.00    +0.000 OA
ATOM     11  O   UNL     1       1.774   6.879  20.573  0.00  0.00    +0.000 OA
ATOM     12  C   UNL     1       1.757   8.073  19.829  0.00  0.00    +0.000 A 
ENDROOT
BRANCH   1  14
ATOM     13  C   UNL     1      -0.879   8.603  21.922  0.00  0.00    +0.000 C 
ATOM     14  C   UNL     1       0.575   9.045  21.843  0.00  0.00    +0.000 C 
ENDBRANCH   1  14
BRANCH   2  15
ATOM     15  O   UNL     1       0.266  11.400  20.176  0.00  0.00    +0.000 OA
BRANCH  15  16
ATOM     16  C   UNL     1      -0.855  11.724  19.336  0.00  0.00    +0.000 C 
BRANCH  16  17
ATOM     17  C   UNL     1      -2.124  12.061  20.069  0.00  0.00    +0.000 A 
ATOM     18  C   UNL     1      -3.344  12.224  19.425  0.00  0.00    +0.000 A 
ATOM     19  C   UNL     1      -4.462  12.633  20.154  0.00  0.00    +0.000 A 
ATOM     20  C   UNL     1      -4.404  12.871  21.541  0.00  0.00    +0.000 A 
ATOM     21  C   UNL     1      -3.177  12.653  22.183  0.00  0.00    +0.000 A 
ATOM     22  C   UNL     1      -2.052  12.258  21.458  0.00  0.00    +0.000 A 
BRANCH  20  23
ATOM     23  C   UNL     1      -5.588  13.378  22.267  0.00  0.00    +0.000 A 
ATOM     24  C   UNL     1      -6.316  14.479  21.784  0.00  0.00    +0.000 A 
ATOM     25  C   UNL     1      -7.367  15.035  22.514  0.00  0.00    +0.000 A 
ATOM     26  C   UNL     1      -7.733  14.479  23.737  0.00  0.00    +0.000 A 
ATOM     27  C   UNL     1      -7.057  13.364  24.219  0.00  0.00    +0.000 A 
ATOM     28  C   UNL     1      -5.992  12.821  23.494  0.00  0.00    +0.000 A 
ENDBRANCH  20  23
ENDBRANCH  16  17
ENDBRANCH  15  16
ENDBRANCH   2  15
BRANCH   8  29
ATOM     29  C   UNL     1       3.764   4.513  18.396  0.00  0.00    +0.000 C 
BRANCH  29  30
ATOM     30  C   UNL     1       2.979   3.611  17.426  0.00  0.00    +0.000 C 
BRANCH  30  31
ATOM     31  C   UNL     1       2.628   2.227  17.971  0.00  0.00    +0.000 C 
BRANCH  31  32
ATOM     32  C   UNL     1       1.407   2.248  18.859  0.00  0.00    +0.000 C 
ATOM     33  O   UNL     1       0.254   2.262  18.461  0.00  0.00    +0.000 OA
BRANCH  32  34
ATOM     34  O   UNL     1       1.714   2.238  20.176  0.00  0.00    +0.000 OA
ATOM     35  H   UNL     1       1.843   1.344  20.548  0.00  0.00    +0.000 HD
ENDBRANCH  32  34
ENDBRANCH  31  32
ENDBRANCH  30  31
ENDBRANCH  29  30
ENDBRANCH   8  29
TORSDOF 10
ENDMDL
MODEL 8
REMARK VINA RESULT:      -8.0      4.369     12.209
REMARK  Name = 
REMARK  12 active torsions:
REMARK  status: ('A' for Active; 'I' for Inactive)
REMARK    1  A    between atoms: C_1  and  C_2
REMARK    2  A    between atoms: C_2  and  C_3
REMARK    3  A    between atoms: C_4  and  O_5
REMARK    4  A    between atoms: O_5  and  C_6
REMARK    5  A    between atoms: C_6  and  C_7
REMARK    6  A    between atoms: C_10  and  C_11
REMARK    7  A    between atoms: C_22  and  C_23
REMARK    8  A    between atoms: C_24  and  C_25
REMARK    9  A    between atoms: C_25  and  C_26
REMARK   10  A    between atoms: C_26  and  C_27
REMARK   11  A    between atoms: C_27  and  C_28
REMARK   12  A    between atoms: C_28  and  O_30
REMARK                            x       y       z     vdW  Elec       q    Type
REMARK                         _______ _______ _______ _____ _____    ______ ____
ROOT
ATOM      1  C   UNL     1      -1.417  12.197  20.161  0.00  0.00    +0.000 A 
ATOM      2  C   UNL     1      -0.662  11.129  20.660  0.00  0.00    +0.000 A 
ATOM      3  C   UNL     1      -0.777  10.799  22.021  0.00  0.00    +0.000 A 
ATOM      4  C   UNL     1      -1.702  11.421  22.853  0.00  0.00    +0.000 A 
ATOM      5  C   UNL     1      -2.538  12.418  22.362  0.00  0.00    +0.000 A 
ATOM      6  C   UNL     1      -3.550  13.109  23.182  0.00  0.00    +0.000 A 
ATOM      7  C   UNL     1      -3.758  12.699  24.622  0.00  0.00    +0.000 C 
ATOM      8  C   UNL     1      -4.248  14.131  22.634  0.00  0.00    +0.000 A 
ATOM      9  C   UNL     1      -3.998  14.579  21.239  0.00  0.00    +0.000 A 
ATOM     10  O   UNL     1      -4.546  15.566  20.763  0.00  0.00    +0.000 OA
ATOM     11  O   UNL     1      -3.144  13.820  20.471  0.00  0.00    +0.000 OA
ATOM     12  C   UNL     1      -2.360  12.790  21.024  0.00  0.00    +0.000 A 
ENDROOT
BRANCH   1  14
ATOM     13  C   UNL     1      -0.098  13.758  18.636  0.00  0.00    +0.000 C 
ATOM     14  C   UNL     1      -1.227  12.747  18.762  0.00  0.00    +0.000 C 
ENDBRANCH   1  14
BRANCH   2  15
ATOM     15  O   UNL     1       0.156  10.421  19.810  0.00  0.00    +0.000 OA
BRANCH  15  16
ATOM     16  C   UNL     1       1.276   9.813  20.476  0.00  0.00    +0.000 C 
BRANCH  16  17
ATOM     17  C   UNL     1       1.559   8.391  20.078  0.00  0.00    +0.000 A 
ATOM     18  C   UNL     1       1.350   7.315  20.933  0.00  0.00    +0.000 A 
ATOM     19  C   UNL     1       1.725   6.031  20.534  0.00  0.00    +0.000 A 
ATOM     20  C   UNL     1       2.299   5.779  19.272  0.00  0.00    +0.000 A 
ATOM     21  C   UNL     1       2.455   6.868  18.403  0.00  0.00    +0.000 A 
ATOM     22  C   UNL     1       2.095   8.156  18.801  0.00  0.00    +0.000 A 
BRANCH  20  23
ATOM     23  C   UNL     1       2.756   4.420  18.913  0.00  0.00    +0.000 A 
ATOM     24  C   UNL     1       2.177   3.721  17.839  0.00  0.00    +0.000 A 
ATOM     25  C   UNL     1       2.522   2.399  17.558  0.00  0.00    +0.000 A 
ATOM     26  C   UNL     1       3.481   1.753  18.334  0.00  0.00    +0.000 A 
ATOM     27  C   UNL     1       4.099   2.433  19.376  0.00  0.00    +0.000 A 
ATOM     28  C   UNL     1       3.738   3.751  19.666  0.00  0.00    +0.000 A 
ENDBRANCH  20  23
ENDBRANCH  16  17
ENDBRANCH  15  16
ENDBRANCH   2  15
BRANCH   8  29
ATOM     29  C   UNL     1      -5.274  14.963  23.378  0.00  0.00    +0.000 C 
BRANCH  29  30
ATOM     30  C   UNL     1      -6.647  14.295  23.587  0.00  0.00    +0.000 C 
BRANCH  30  31
ATOM     31  C   UNL     1      -7.165  13.495  22.394  0.00  0.00    +0.000 C 
BRANCH  31  32
ATOM     32  C   UNL     1      -7.385  12.039  22.728  0.00  0.00    +0.000 C 
ATOM     33  O   UNL     1      -7.590  11.602  23.849  0.00  0.00    +0.000 OA
BRANCH  32  34
ATOM     34  O   UNL     1      -7.345  11.237  21.640  0.00  0.00    +0.000 OA
ATOM     35  H   UNL     1      -7.968  11.493  20.933  0.00  0.00    +0.000 HD
ENDBRANCH  32  34
ENDBRANCH  31  32
ENDBRANCH  30  31
ENDBRANCH  29  30
ENDBRANCH   8  29
TORSDOF 10
ENDMDL
MODEL 9
REMARK VINA RESULT:      -7.9      1.810      2.733
REMARK  Name = 
REMARK  12 active torsions:
REMARK  status: ('A' for Active; 'I' for Inactive)
REMARK    1  A    between atoms: C_1  and  C_2
REMARK    2  A    between atoms: C_2  and  C_3
REMARK    3  A    between atoms: C_4  and  O_5
REMARK    4  A    between atoms: O_5  and  C_6
REMARK    5  A    between atoms: C_6  and  C_7
REMARK    6  A    between atoms: C_10  and  C_11
REMARK    7  A    between atoms: C_22  and  C_23
REMARK    8  A    between atoms: C_24  and  C_25
REMARK    9  A    between atoms: C_25  and  C_26
REMARK   10  A    between atoms: C_26  and  C_27
REMARK   11  A    between atoms: C_27  and  C_28
REMARK   12  A    between atoms: C_28  and  O_30
REMARK                            x       y       z     vdW  Elec       q    Type
REMARK                         _______ _______ _______ _____ _____    ______ ____
ROOT
ATOM      1  C   UNL     1       2.237   7.946  18.467  0.00  0.00    +0.000 A 
ATOM      2  C   UNL     1       1.599   7.646  19.677  0.00  0.00    +0.000 A 
ATOM      3  C   UNL     1       1.936   6.454  20.340  0.00  0.00    +0.000 A 
ATOM      4  C   UNL     1       2.964   5.629  19.894  0.00  0.00    +0.000 A 
ATOM      5  C   UNL     1       3.686   5.953  18.750  0.00  0.00    +0.000 A 
ATOM      6  C   UNL     1       4.795   5.133  18.229  0.00  0.00    +0.000 A 
ATOM      7  C   UNL     1       5.239   3.902  18.983  0.00  0.00    +0.000 C 
ATOM      8  C   UNL     1       5.370   5.485  17.055  0.00  0.00    +0.000 A 
ATOM      9  C   UNL     1       4.892   6.658  16.278  0.00  0.00    +0.000 A 
ATOM     10  O   UNL     1       5.332   6.928  15.167  0.00  0.00    +0.000 OA
ATOM     11  O   UNL     1       3.948   7.468  16.868  0.00  0.00    +0.000 OA
ATOM     12  C   UNL     1       3.289   7.103  18.056  0.00  0.00    +0.000 A 
ENDROOT
BRANCH   1  14
ATOM     13  C   UNL     1       2.161  10.475  18.150  0.00  0.00    +0.000 C 
ATOM     14  C   UNL     1       1.815   9.104  17.588  0.00  0.00    +0.000 C 
ENDBRANCH   1  14
BRANCH   2  15
ATOM     15  O   UNL     1       0.676   8.526  20.193  0.00  0.00    +0.000 OA
BRANCH  15  16
ATOM     16  C   UNL     1       0.947   8.896  21.556  0.00  0.00    +0.000 C 
BRANCH  16  17
ATOM     17  C   UNL     1       0.189  10.096  22.052  0.00  0.00    +0.000 A 
ATOM     18  C   UNL     1      -0.718  10.031  23.103  0.00  0.00    +0.000 A 
ATOM     19  C   UNL     1      -1.459  11.163  23.449  0.00  0.00    +0.000 A 
ATOM     20  C   UNL     1      -1.305  12.390  22.775  0.00  0.00    +0.000 A 
ATOM     21  C   UNL     1      -0.350  12.451  21.751  0.00  0.00    +0.000 A 
ATOM     22  C   UNL     1       0.384  11.320  21.392  0.00  0.00    +0.000 A 
BRANCH  20  23
ATOM     23  C   UNL     1      -2.162  13.546  23.116  0.00  0.00    +0.000 A 
ATOM     24  C   UNL     1      -1.639  14.659  23.797  0.00  0.00    +0.000 A 
ATOM     25  C   UNL     1      -2.458  15.706  24.221  0.00  0.00    +0.000 A 
ATOM     26  C   UNL     1      -3.822  15.675  23.945  0.00  0.00    +0.000 A 
ATOM     27  C   UNL     1      -4.360  14.606  23.237  0.00  0.00    +0.000 A 
ATOM     28  C   UNL     1      -3.540  13.550  22.830  0.00  0.00    +0.000 A 
ENDBRANCH  20  23
ENDBRANCH  16  17
ENDBRANCH  15  16
ENDBRANCH   2  15
BRANCH   8  29
ATOM     29  C   UNL     1       6.479   4.703  16.378  0.00  0.00    +0.000 C 
BRANCH  29  30
ATOM     30  C   UNL     1       6.037   3.785  15.222  0.00  0.00    +0.000 C 
BRANCH  30  31
ATOM     31  C   UNL     1       6.740   4.038  13.890  0.00  0.00    +0.000 C 
BRANCH  31  32
ATOM     32  C   UNL     1       5.978   3.467  12.718  0.00  0.00    +0.000 C 
ATOM     33  O   UNL     1       4.783   3.614  12.523  0.00  0.00    +0.000 OA
BRANCH  32  34
ATOM     34  O   UNL     1       6.765   2.766  11.870  0.00  0.00    +0.000 OA
ATOM     35  H   UNL     1       7.061   3.273  11.090  0.00  0.00    +0.000 HD
ENDBRANCH  32  34
ENDBRANCH  31  32
ENDBRANCH  30  31
ENDBRANCH  29  30
ENDBRANCH   8  29
TORSDOF 10
ENDMDL
