MODEL 1
REMARK VINA RESULT:      -8.4      0.000      0.000
REMARK  Name = 
REMARK  5 active torsions:
REMARK  status: ('A' for Active; 'I' for Inactive)
REMARK    1  A    between atoms: C_1  and  C_2
REMARK    2  A    between atoms: C_5  and  C_6
REMARK    3  A    between atoms: C_12  and  C_13
REMARK    4  A    between atoms: C_13  and  N_15
REMARK    5  A    between atoms: C_16  and  C_18
REMARK                            x       y       z     vdW  Elec       q    Type
REMARK                         _______ _______ _______ _____ _____    ______ ____
ROOT
ATOM      1  C   UNL     1       3.812   6.758  17.898  0.00  0.00    +0.000 C 
ATOM      2  O   UNL     1       3.825   7.188  16.745  0.00  0.00    +0.000 OA
ENDROOT
BRANCH   1   8
ATOM      3  C   UNL     1       7.107   6.638  17.735  0.00  0.00    +0.000 C 
ATOM      4  C   UNL     1       6.090   5.714  18.270  0.00  0.00    +0.000 A 
ATOM      5  O   UNL     1       6.566   4.603  18.887  0.00  0.00    +0.000 OA
ATOM      6  N   UNL     1       5.517   3.842  19.351  0.00  0.00    +0.000 NA
ATOM      7  C   UNL     1       4.390   4.488  19.002  0.00  0.00    +0.000 A 
ATOM      8  C   UNL     1       4.712   5.718  18.338  0.00  0.00    +0.000 A 
BRANCH   7   9
ATOM      9  C   UNL     1       3.076   3.904  19.296  0.00  0.00    +0.000 A 
ATOM     10  C   UNL     1       2.380   3.181  18.315  0.00  0.00    +0.000 A 
ATOM     11  C   UNL     1       1.137   2.607  18.598  0.00  0.00    +0.000 A 
ATOM     12  C   UNL     1       0.575   2.745  19.866  0.00  0.00    +0.000 A 
ATOM     13  C   UNL     1       1.242   3.476  20.844  0.00  0.00    +0.000 A 
ATOM     14  C   UNL     1       2.474   4.066  20.554  0.00  0.00    +0.000 A 
ENDBRANCH   7   9
ENDBRANCH   1   8
BRANCH   1  15
ATOM     15  N   UNL     1       2.997   7.237  18.895  0.00  0.00    +0.000 NA
ATOM     16  C   UNL     1       2.233   8.257  18.643  0.00  0.00    +0.000 C 
ATOM     17  N   UNL     1       2.119   8.895  17.428  0.00  0.00    +0.000 N 
ATOM     18  H   UNL     1       2.880   8.684  16.777  0.00  0.00    +0.000 HD
ATOM     19  H   UNL     1       1.932   9.892  17.457  0.00  0.00    +0.000 HD
BRANCH  16  20
ATOM     20  C   UNL     1       1.395   8.789  19.763  0.00  0.00    +0.000 A 
ATOM     21  C   UNL     1       0.547   9.883  19.559  0.00  0.00    +0.000 A 
ATOM     22  C   UNL     1      -0.228  10.369  20.617  0.00  0.00    +0.000 A 
ATOM     23  C   UNL     1      -0.147   9.764  21.873  0.00  0.00    +0.000 A 
ATOM     24 CL   UNL     1      -1.077  10.381  23.182  0.00  0.00    +0.000 Cl
ATOM     25  C   UNL     1       0.690   8.669  22.078  0.00  0.00    +0.000 A 
ATOM     26  C   UNL     1       1.459   8.176  21.022  0.00  0.00    +0.000 A 
ENDBRANCH  16  20
ENDBRANCH   1  15
TORSDOF 4
ENDMDL
MODEL 2
REMARK VINA RESULT:      -8.4      0.055      1.395
REMARK  Name = 
REMARK  5 active torsions:
REMARK  status: ('A' for Active; 'I' for Inactive)
REMARK    1  A    between atoms: C_1  and  C_2
REMARK    2  A    between atoms: C_5  and  C_6
REMARK    3  A    between atoms: C_12  and  C_13
REMARK    4  A    between atoms: C_13  and  N_15
REMARK    5  A    between atoms: C_16  and  C_18
REMARK                            x       y       z     vdW  Elec       q    Type
REMARK                         _______ _______ _______ _____ _____    ______ ____
ROOT
ATOM      1  C   UNL     1       3.812   6.748  17.904  0.00  0.00    +0.000 C 
ATOM      2  O   UNL     1       3.805   7.173  16.750  0.00  0.00    +0.000 OA
ENDROOT
BRANCH   1   8
ATOM      3  C   UNL     1       7.107   6.644  17.715  0.00  0.00    +0.000 C 
ATOM      4  C   UNL     1       6.098   5.713  18.255  0.00  0.00    +0.000 A 
ATOM      5  O   UNL     1       6.583   4.602  18.865  0.00  0.00    +0.000 OA
ATOM      6  N   UNL     1       5.542   3.835  19.334  0.00  0.00    +0.000 NA
ATOM      7  C   UNL     1       4.410   4.477  18.996  0.00  0.00    +0.000 A 
ATOM      8  C   UNL     1       4.720   5.711  18.334  0.00  0.00    +0.000 A 
BRANCH   7   9
ATOM      9  C   UNL     1       3.100   3.885  19.298  0.00  0.00    +0.000 A 
ATOM     10  C   UNL     1       2.483   4.114  20.538  0.00  0.00    +0.000 A 
ATOM     11  C   UNL     1       1.227   3.567  20.821  0.00  0.00    +0.000 A 
ATOM     12  C   UNL     1       0.572   2.788  19.869  0.00  0.00    +0.000 A 
ATOM     13  C   UNL     1       1.180   2.534  18.644  0.00  0.00    +0.000 A 
ATOM     14  C   UNL     1       2.443   3.064  18.369  0.00  0.00    +0.000 A 
ENDBRANCH   7   9
ENDBRANCH   1   8
BRANCH   1  15
ATOM     15  N   UNL     1       3.015   7.231  18.913  0.00  0.00    +0.000 NA
ATOM     16  C   UNL     1       2.231   8.237  18.664  0.00  0.00    +0.000 C 
ATOM     17  N   UNL     1       2.078   8.853  17.443  0.00  0.00    +0.000 N 
ATOM     18  H   UNL     1       2.827   8.643  16.777  0.00  0.00    +0.000 HD
ATOM     19  H   UNL     1       1.878   9.848  17.461  0.00  0.00    +0.000 HD
BRANCH  16  20
ATOM     20  C   UNL     1       1.412   8.775  19.795  0.00  0.00    +0.000 A 
ATOM     21  C   UNL     1       1.449   8.163  21.053  0.00  0.00    +0.000 A 
ATOM     22  C   UNL     1       0.676   8.678  22.099  0.00  0.00    +0.000 A 
ATOM     23  C   UNL     1      -0.133   9.794  21.882  0.00  0.00    +0.000 A 
ATOM     24 CL   UNL     1      -1.107  10.408  23.160  0.00  0.00    +0.000 Cl
ATOM     25  C   UNL     1      -0.167  10.411  20.633  0.00  0.00    +0.000 A 
ATOM     26  C   UNL     1       0.610   9.906  19.589  0.00  0.00    +0.000 A 
ENDBRANCH  16  20
ENDBRANCH   1  15
TORSDOF 4
ENDMDL
MODEL 3
REMARK VINA RESULT:      -8.3      1.613      2.380
REMARK  Name = 
REMARK  5 active torsions:
REMARK  status: ('A' for Active; 'I' for Inactive)
REMARK    1  A    between atoms: C_1  and  C_2
REMARK    2  A    between atoms: C_5  and  C_6
REMARK    3  A    between atoms: C_12  and  C_13
REMARK    4  A    between atoms: C_13  and  N_15
REMARK    5  A    between atoms: C_16  and  C_18
REMARK                            x       y       z     vdW  Elec       q    Type
REMARK                         _______ _______ _______ _____ _____    ______ ____
ROOT
ATOM      1  C   UNL     1       4.892   6.759  16.973  0.00  0.00    +0.000 C 
ATOM      2  O   UNL     1       4.766   6.519  15.774  0.00  0.00    +0.000 OA
ENDROOT
BRANCH   1   8
ATOM      3  C   UNL     1       7.894   7.987  17.591  0.00  0.00    +0.000 C 
ATOM      4  C   UNL     1       7.204   6.752  18.010  0.00  0.00    +0.000 A 
ATOM      5  O   UNL     1       7.882   5.960  18.879  0.00  0.00    +0.000 OA
ATOM      6  N   UNL     1       7.121   4.859  19.197  0.00  0.00    +0.000 NA
ATOM      7  C   UNL     1       5.973   4.974  18.507  0.00  0.00    +0.000 A 
ATOM      8  C   UNL     1       5.966   6.197  17.759  0.00  0.00    +0.000 A 
BRANCH   7   9
ATOM      9  C   UNL     1       4.955   3.917  18.576  0.00  0.00    +0.000 A 
ATOM     10  C   UNL     1       4.431   3.509  19.812  0.00  0.00    +0.000 A 
ATOM     11  C   UNL     1       3.448   2.517  19.879  0.00  0.00    +0.000 A 
ATOM     12  C   UNL     1       2.975   1.922  18.712  0.00  0.00    +0.000 A 
ATOM     13  C   UNL     1       3.500   2.298  17.479  0.00  0.00    +0.000 A 
ATOM     14  C   UNL     1       4.495   3.276  17.415  0.00  0.00    +0.000 A 
ENDBRANCH   7   9
ENDBRANCH   1   8
BRANCH   1  15
ATOM     15  N   UNL     1       4.079   7.608  17.684  0.00  0.00    +0.000 NA
ATOM     16  C   UNL     1       2.901   7.193  18.043  0.00  0.00    +0.000 C 
ATOM     17  N   UNL     1       2.391   5.934  17.819  0.00  0.00    +0.000 N 
ATOM     18  H   UNL     1       2.898   5.403  17.106  0.00  0.00    +0.000 HD
ATOM     19  H   UNL     1       1.388   5.874  17.673  0.00  0.00    +0.000 HD
BRANCH  16  20
ATOM     20  C   UNL     1       2.018   8.157  18.771  0.00  0.00    +0.000 A 
ATOM     21  C   UNL     1       1.775   8.005  20.141  0.00  0.00    +0.000 A 
ATOM     22  C   UNL     1       0.946   8.914  20.805  0.00  0.00    +0.000 A 
ATOM     23  C   UNL     1       0.359   9.965  20.098  0.00  0.00    +0.000 A 
ATOM     24 CL   UNL     1      -0.686  11.065  20.909  0.00  0.00    +0.000 Cl
ATOM     25  C   UNL     1       0.605  10.126  18.735  0.00  0.00    +0.000 A 
ATOM     26  C   UNL     1       1.439   9.225  18.071  0.00  0.00    +0.000 A 
ENDBRANCH  16  20
ENDBRANCH   1  15
TORSDOF 4
ENDMDL
MODEL 4
REMARK VINA RESULT:      -8.3      1.512      1.856
REMARK  Name = 
REMARK  5 active torsions:
REMARK  status: ('A' for Active; 'I' for Inactive)
REMARK    1  A    between atoms: C_1  and  C_2
REMARK    2  A    between atoms: C_5  and  C_6
REMARK    3  A    between atoms: C_12  and  C_13
REMARK    4  A    between atoms: C_13  and  N_15
REMARK    5  A    between atoms: C_16  and  C_18
REMARK                            x       y       z     vdW  Elec       q    Type
REMARK                         _______ _______ _______ _____ _____    ______ ____
ROOT
ATOM      1  C   UNL     1       4.807   6.722  16.998  0.00  0.00    +0.000 C 
ATOM      2  O   UNL     1       4.684   6.464  15.802  0.00  0.00    +0.000 OA
ENDROOT
BRANCH   1   8
ATOM      3  C   UNL     1       7.843   7.885  17.573  0.00  0.00    +0.000 C 
ATOM      4  C   UNL     1       7.120   6.684  18.032  0.00  0.00    +0.000 A 
ATOM      5  O   UNL     1       7.778   5.901  18.925  0.00  0.00    +0.000 OA
ATOM      6  N   UNL     1       6.986   4.833  19.279  0.00  0.00    +0.000 NA
ATOM      7  C   UNL     1       5.840   4.957  18.587  0.00  0.00    +0.000 A 
ATOM      8  C   UNL     1       5.866   6.156  17.800  0.00  0.00    +0.000 A 
BRANCH   7   9
ATOM      9  C   UNL     1       4.794   3.932  18.691  0.00  0.00    +0.000 A 
ATOM     10  C   UNL     1       4.446   3.152  17.577  0.00  0.00    +0.000 A 
ATOM     11  C   UNL     1       3.463   2.162  17.678  0.00  0.00    +0.000 A 
ATOM     12  C   UNL     1       2.819   1.938  18.893  0.00  0.00    +0.000 A 
ATOM     13  C   UNL     1       3.136   2.717  20.000  0.00  0.00    +0.000 A 
ATOM     14  C   UNL     1       4.104   3.719  19.894  0.00  0.00    +0.000 A 
ENDBRANCH   7   9
ENDBRANCH   1   8
BRANCH   1  15
ATOM     15  N   UNL     1       4.004   7.597  17.689  0.00  0.00    +0.000 NA
ATOM     16  C   UNL     1       2.813   7.212  18.037  0.00  0.00    +0.000 C 
ATOM     17  N   UNL     1       2.277   5.963  17.820  0.00  0.00    +0.000 N 
ATOM     18  H   UNL     1       2.781   5.413  17.119  0.00  0.00    +0.000 HD
ATOM     19  H   UNL     1       1.275   5.923  17.661  0.00  0.00    +0.000 HD
BRANCH  16  20
ATOM     20  C   UNL     1       1.943   8.204  18.743  0.00  0.00    +0.000 A 
ATOM     21  C   UNL     1       1.341   9.252  18.037  0.00  0.00    +0.000 A 
ATOM     22  C   UNL     1       0.532  10.171  18.712  0.00  0.00    +0.000 A 
ATOM     23  C   UNL     1       0.334  10.044  20.088  0.00  0.00    +0.000 A 
ATOM     24 CL   UNL     1      -0.635  11.193  20.924  0.00  0.00    +0.000 Cl
ATOM     25  C   UNL     1       0.925   8.997  20.794  0.00  0.00    +0.000 A 
ATOM     26  C   UNL     1       1.726   8.072  20.121  0.00  0.00    +0.000 A 
ENDBRANCH  16  20
ENDBRANCH   1  15
TORSDOF 4
ENDMDL
MODEL 5
REMARK VINA RESULT:      -8.2      1.347      1.905
REMARK  Name = 
REMARK  5 active torsions:
REMARK  status: ('A' for Active; 'I' for Inactive)
REMARK    1  A    between atoms: C_1  and  C_2
REMARK    2  A    between atoms: C_5  and  C_6
REMARK    3  A    between atoms: C_12  and  C_13
REMARK    4  A    between atoms: C_13  and  N_15
REMARK    5  A    between atoms: C_16  and  C_18
REMARK                            x       y       z     vdW  Elec       q    Type
REMARK                         _______ _______ _______ _____ _____    ______ ____
ROOT
ATOM      1  C   UNL     1       4.756   6.581  17.115  0.00  0.00    +0.000 C 
ATOM      2  O   UNL     1       4.689   6.366  15.906  0.00  0.00    +0.000 OA
ENDROOT
BRANCH   1   8
ATOM      3  C   UNL     1       7.872   7.394  17.844  0.00  0.00    +0.000 C 
ATOM      4  C   UNL     1       6.997   6.282  18.259  0.00  0.00    +0.000 A 
ATOM      5  O   UNL     1       7.519   5.428  19.177  0.00  0.00    +0.000 OA
ATOM      6  N   UNL     1       6.596   4.455  19.486  0.00  0.00    +0.000 NA
ATOM      7  C   UNL     1       5.507   4.709  18.740  0.00  0.00    +0.000 A 
ATOM      8  C   UNL     1       5.705   5.898  17.963  0.00  0.00    +0.000 A 
BRANCH   7   9
ATOM      9  C   UNL     1       4.348   3.808  18.785  0.00  0.00    +0.000 A 
ATOM     10  C   UNL     1       4.003   3.032  17.668  0.00  0.00    +0.000 A 
ATOM     11  C   UNL     1       2.911   2.158  17.715  0.00  0.00    +0.000 A 
ATOM     12  C   UNL     1       2.154   2.047  18.879  0.00  0.00    +0.000 A 
ATOM     13  C   UNL     1       2.469   2.826  19.988  0.00  0.00    +0.000 A 
ATOM     14  C   UNL     1       3.548   3.712  19.934  0.00  0.00    +0.000 A 
ENDBRANCH   7   9
ENDBRANCH   1   8
BRANCH   1  15
ATOM     15  N   UNL     1       3.994   7.509  17.782  0.00  0.00    +0.000 NA
ATOM     16  C   UNL     1       2.755   7.223  18.051  0.00  0.00    +0.000 C 
ATOM     17  N   UNL     1       2.126   6.032  17.770  0.00  0.00    +0.000 N 
ATOM     18  H   UNL     1       2.620   5.454  17.085  0.00  0.00    +0.000 HD
ATOM     19  H   UNL     1       1.135   6.084  17.553  0.00  0.00    +0.000 HD
BRANCH  16  20
ATOM     20  C   UNL     1       1.934   8.273  18.732  0.00  0.00    +0.000 A 
ATOM     21  C   UNL     1       1.658   8.184  20.101  0.00  0.00    +0.000 A 
ATOM     22  C   UNL     1       0.888   9.172  20.721  0.00  0.00    +0.000 A 
ATOM     23  C   UNL     1       0.392  10.240  19.971  0.00  0.00    +0.000 A 
ATOM     24 CL   UNL     1      -0.582  11.439  20.728  0.00  0.00    +0.000 Cl
ATOM     25  C   UNL     1       0.670  10.337  18.609  0.00  0.00    +0.000 A 
ATOM     26  C   UNL     1       1.446   9.357  17.988  0.00  0.00    +0.000 A 
ENDBRANCH  16  20
ENDBRANCH   1  15
TORSDOF 4
ENDMDL
MODEL 6
REMARK VINA RESULT:      -8.2      1.862      4.044
REMARK  Name = 
REMARK  5 active torsions:
REMARK  status: ('A' for Active; 'I' for Inactive)
REMARK    1  A    between atoms: C_1  and  C_2
REMARK    2  A    between atoms: C_5  and  C_6
REMARK    3  A    between atoms: C_12  and  C_13
REMARK    4  A    between atoms: C_13  and  N_15
REMARK    5  A    between atoms: C_16  and  C_18
REMARK                            x       y       z     vdW  Elec       q    Type
REMARK                         _______ _______ _______ _____ _____    ______ ____
ROOT
ATOM      1  C   UNL     1       2.134   4.387  18.383  0.00  0.00    +0.000 C 
ATOM      2  O   UNL     1       1.819   3.990  17.262  0.00  0.00    +0.000 OA
ENDROOT
BRANCH   1   8
ATOM      3  C   UNL     1       1.585   2.684  21.158  0.00  0.00    +0.000 C 
ATOM      4  C   UNL     1       2.798   2.949  20.361  0.00  0.00    +0.000 A 
ATOM      5  O   UNL     1       3.932   2.335  20.785  0.00  0.00    +0.000 OA
ATOM      6  N   UNL     1       4.975   2.654  19.947  0.00  0.00    +0.000 NA
ATOM      7  C   UNL     1       4.477   3.480  19.010  0.00  0.00    +0.000 A 
ATOM      8  C   UNL     1       3.070   3.668  19.215  0.00  0.00    +0.000 A 
BRANCH   7   9
ATOM      9  C   UNL     1       5.357   4.062  17.988  0.00  0.00    +0.000 A 
ATOM     10  C   UNL     1       6.399   4.928  18.352  0.00  0.00    +0.000 A 
ATOM     11  C   UNL     1       7.250   5.468  17.382  0.00  0.00    +0.000 A 
ATOM     12  C   UNL     1       7.072   5.147  16.038  0.00  0.00    +0.000 A 
ATOM     13  C   UNL     1       6.030   4.307  15.658  0.00  0.00    +0.000 A 
ATOM     14  C   UNL     1       5.168   3.783  16.625  0.00  0.00    +0.000 A 
ENDBRANCH   7   9
ENDBRANCH   1   8
BRANCH   1  15
ATOM     15  N   UNL     1       1.687   5.558  18.945  0.00  0.00    +0.000 NA
ATOM     16  C   UNL     1       2.277   6.671  18.625  0.00  0.00    +0.000 C 
ATOM     17  N   UNL     1       3.302   6.804  17.716  0.00  0.00    +0.000 N 
ATOM     18  H   UNL     1       3.768   5.923  17.486  0.00  0.00    +0.000 HD
ATOM     19  H   UNL     1       3.980   7.536  17.905  0.00  0.00    +0.000 HD
BRANCH  16  20
ATOM     20  C   UNL     1       1.802   7.923  19.293  0.00  0.00    +0.000 A 
ATOM     21  C   UNL     1       1.559   7.947  20.671  0.00  0.00    +0.000 A 
ATOM     22  C   UNL     1       1.114   9.125  21.278  0.00  0.00    +0.000 A 
ATOM     23  C   UNL     1       0.908  10.270  20.507  0.00  0.00    +0.000 A 
ATOM     24 CL   UNL     1       0.331  11.710  21.249  0.00  0.00    +0.000 Cl
ATOM     25  C   UNL     1       1.157  10.254  19.135  0.00  0.00    +0.000 A 
ATOM     26  C   UNL     1       1.609   9.081  18.527  0.00  0.00    +0.000 A 
ENDBRANCH  16  20
ENDBRANCH   1  15
TORSDOF 4
ENDMDL
MODEL 7
REMARK VINA RESULT:      -8.2      1.338      1.909
REMARK  Name = 
REMARK  5 active torsions:
REMARK  status: ('A' for Active; 'I' for Inactive)
REMARK    1  A    between atoms: C_1  and  C_2
REMARK    2  A    between atoms: C_5  and  C_6
REMARK    3  A    between atoms: C_12  and  C_13
REMARK    4  A    between atoms: C_13  and  N_15
REMARK    5  A    between atoms: C_16  and  C_18
REMARK                            x       y       z     vdW  Elec       q    Type
REMARK                         _______ _______ _______ _____ _____    ______ ____
ROOT
ATOM      1  C   UNL     1       4.746   6.551  17.113  0.00  0.00    +0.000 C 
ATOM      2  O   UNL     1       4.676   6.324  15.906  0.00  0.00    +0.000 OA
ENDROOT
BRANCH   1   8
ATOM      3  C   UNL     1       7.858   7.368  17.857  0.00  0.00    +0.000 C 
ATOM      4  C   UNL     1       6.982   6.255  18.269  0.00  0.00    +0.000 A 
ATOM      5  O   UNL     1       7.499   5.404  19.191  0.00  0.00    +0.000 OA
ATOM      6  N   UNL     1       6.576   4.430  19.496  0.00  0.00    +0.000 NA
ATOM      7  C   UNL     1       5.490   4.681  18.744  0.00  0.00    +0.000 A 
ATOM      8  C   UNL     1       5.692   5.870  17.967  0.00  0.00    +0.000 A 
BRANCH   7   9
ATOM      9  C   UNL     1       4.332   3.780  18.785  0.00  0.00    +0.000 A 
ATOM     10  C   UNL     1       3.547   3.677  19.945  0.00  0.00    +0.000 A 
ATOM     11  C   UNL     1       2.433   2.833  19.980  0.00  0.00    +0.000 A 
ATOM     12  C   UNL     1       2.087   2.084  18.858  0.00  0.00    +0.000 A 
ATOM     13  C   UNL     1       2.867   2.157  17.708  0.00  0.00    +0.000 A 
ATOM     14  C   UNL     1       3.991   2.985  17.679  0.00  0.00    +0.000 A 
ENDBRANCH   7   9
ENDBRANCH   1   8
BRANCH   1  15
ATOM     15  N   UNL     1       3.991   7.491  17.772  0.00  0.00    +0.000 NA
ATOM     16  C   UNL     1       2.753   7.212  18.055  0.00  0.00    +0.000 C 
ATOM     17  N   UNL     1       2.120   6.018  17.797  0.00  0.00    +0.000 N 
ATOM     18  H   UNL     1       2.608   5.429  17.117  0.00  0.00    +0.000 HD
ATOM     19  H   UNL     1       1.128   6.070  17.587  0.00  0.00    +0.000 HD
BRANCH  16  20
ATOM     20  C   UNL     1       1.940   8.275  18.726  0.00  0.00    +0.000 A 
ATOM     21  C   UNL     1       1.462   9.370  17.999  0.00  0.00    +0.000 A 
ATOM     22  C   UNL     1       0.706  10.355  18.642  0.00  0.00    +0.000 A 
ATOM     23  C   UNL     1       0.437  10.244  20.007  0.00  0.00    +0.000 A 
ATOM     24 CL   UNL     1      -0.468  11.471  20.804  0.00  0.00    +0.000 Cl
ATOM     25  C   UNL     1       0.904   9.150  20.734  0.00  0.00    +0.000 A 
ATOM     26  C   UNL     1       1.652   8.161  20.093  0.00  0.00    +0.000 A 
ENDBRANCH  16  20
ENDBRANCH   1  15
TORSDOF 4
ENDMDL
MODEL 8
REMARK VINA RESULT:      -8.2      1.641      3.903
REMARK  Name = 
REMARK  5 active torsions:
REMARK  status: ('A' for Active; 'I' for Inactive)
REMARK    1  A    between atoms: C_1  and  C_2
REMARK    2  A    between atoms: C_5  and  C_6
REMARK    3  A    between atoms: C_12  and  C_13
REMARK    4  A    between atoms: C_13  and  N_15
REMARK    5  A    between atoms: C_16  and  C_18
REMARK                            x       y       z     vdW  Elec       q    Type
REMARK                         _______ _______ _______ _____ _____    ______ ____
ROOT
ATOM      1  C   UNL     1       2.330   4.583  18.506  0.00  0.00    +0.000 C 
ATOM      2  O   UNL     1       2.112   4.298  17.330  0.00  0.00    +0.000 OA
ENDROOT
BRANCH   1   8
ATOM      3  C   UNL     1       1.606   2.469  20.937  0.00  0.00    +0.000 C 
ATOM      4  C   UNL     1       2.875   2.910  20.328  0.00  0.00    +0.000 A 
ATOM      5  O   UNL     1       3.996   2.299  20.790  0.00  0.00    +0.000 OA
ATOM      6  N   UNL     1       5.099   2.790  20.129  0.00  0.00    +0.000 NA
ATOM      7  C   UNL     1       4.649   3.717  19.266  0.00  0.00    +0.000 A 
ATOM      8  C   UNL     1       3.219   3.801  19.332  0.00  0.00    +0.000 A 
BRANCH   7   9
ATOM      9  C   UNL     1       5.590   4.485  18.441  0.00  0.00    +0.000 A 
ATOM     10  C   UNL     1       5.646   4.291  17.052  0.00  0.00    +0.000 A 
ATOM     11  C   UNL     1       6.528   5.035  16.262  0.00  0.00    +0.000 A 
ATOM     12  C   UNL     1       7.363   5.983  16.849  0.00  0.00    +0.000 A 
ATOM     13  C   UNL     1       7.337   6.172  18.227  0.00  0.00    +0.000 A 
ATOM     14  C   UNL     1       6.469   5.415  19.018  0.00  0.00    +0.000 A 
ENDBRANCH   7   9
ENDBRANCH   1   8
BRANCH   1  15
ATOM     15  N   UNL     1       1.809   5.681  19.147  0.00  0.00    +0.000 NA
ATOM     16  C   UNL     1       2.281   6.857  18.857  0.00  0.00    +0.000 C 
ATOM     17  N   UNL     1       3.242   7.125  17.908  0.00  0.00    +0.000 N 
ATOM     18  H   UNL     1       3.772   6.301  17.612  0.00  0.00    +0.000 HD
ATOM     19  H   UNL     1       3.861   7.906  18.101  0.00  0.00    +0.000 HD
BRANCH  16  20
ATOM     20  C   UNL     1       1.732   8.029  19.608  0.00  0.00    +0.000 A 
ATOM     21  C   UNL     1       1.525   7.954  20.990  0.00  0.00    +0.000 A 
ATOM     22  C   UNL     1       1.010   9.058  21.677  0.00  0.00    +0.000 A 
ATOM     23  C   UNL     1       0.697  10.226  20.980  0.00  0.00    +0.000 A 
ATOM     24 CL   UNL     1       0.033  11.573  21.820  0.00  0.00    +0.000 Cl
ATOM     25  C   UNL     1       0.909  10.308  19.605  0.00  0.00    +0.000 A 
ATOM     26  C   UNL     1       1.432   9.211  18.917  0.00  0.00    +0.000 A 
ENDBRANCH  16  20
ENDBRANCH   1  15
TORSDOF 4
ENDMDL
MODEL 9
REMARK VINA RESULT:      -8.2      1.831      3.831
REMARK  Name = 
REMARK  5 active torsions:
REMARK  status: ('A' for Active; 'I' for Inactive)
REMARK    1  A    between atoms: C_1  and  C_2
REMARK    2  A    between atoms: C_5  and  C_6
REMARK    3  A    between atoms: C_12  and  C_13
REMARK    4  A    between atoms: C_13  and  N_15
REMARK    5  A    between atoms: C_16  and  C_18
REMARK                            x       y       z     vdW  Elec       q    Type
REMARK                         _______ _______ _______ _____ _____    ______ ____
ROOT
ATOM      1  C   UNL     1       2.163   4.403  18.380  0.00  0.00    +0.000 C 
ATOM      2  O   UNL     1       1.854   3.998  17.260  0.00  0.00    +0.000 OA
ENDROOT
BRANCH   1   8
ATOM      3  C   UNL     1       1.599   2.656  21.125  0.00  0.00    +0.000 C 
ATOM      4  C   UNL     1       2.820   2.954  20.352  0.00  0.00    +0.000 A 
ATOM      5  O   UNL     1       3.958   2.356  20.788  0.00  0.00    +0.000 OA
ATOM      6  N   UNL     1       5.009   2.704  19.972  0.00  0.00    +0.000 NA
ATOM      7  C   UNL     1       4.512   3.533  19.037  0.00  0.00    +0.000 A 
ATOM      8  C   UNL     1       3.098   3.692  19.220  0.00  0.00    +0.000 A 
BRANCH   7   9
ATOM      9  C   UNL     1       5.397   4.143  18.037  0.00  0.00    +0.000 A 
ATOM     10  C   UNL     1       5.261   3.828  16.676  0.00  0.00    +0.000 A 
ATOM     11  C   UNL     1       6.090   4.422  15.719  0.00  0.00    +0.000 A 
ATOM     12  C   UNL     1       7.063   5.339  16.110  0.00  0.00    +0.000 A 
ATOM     13  C   UNL     1       7.227   5.645  17.457  0.00  0.00    +0.000 A 
ATOM     14  C   UNL     1       6.411   5.037  18.414  0.00  0.00    +0.000 A 
ENDBRANCH   7   9
ENDBRANCH   1   8
BRANCH   1  15
ATOM     15  N   UNL     1       1.709   5.575  18.934  0.00  0.00    +0.000 NA
ATOM     16  C   UNL     1       2.284   6.690  18.596  0.00  0.00    +0.000 C 
ATOM     17  N   UNL     1       3.298   6.824  17.674  0.00  0.00    +0.000 N 
ATOM     18  H   UNL     1       3.771   5.945  17.449  0.00  0.00    +0.000 HD
ATOM     19  H   UNL     1       3.970   7.565  17.848  0.00  0.00    +0.000 HD
BRANCH  16  20
ATOM     20  C   UNL     1       1.803   7.945  19.254  0.00  0.00    +0.000 A 
ATOM     21  C   UNL     1       1.609   9.111  18.506  0.00  0.00    +0.000 A 
ATOM     22  C   UNL     1       1.161  10.276  19.138  0.00  0.00    +0.000 A 
ATOM     23  C   UNL     1       0.917  10.272  20.513  0.00  0.00    +0.000 A 
ATOM     24 CL   UNL     1       0.396  11.712  21.295  0.00  0.00    +0.000 Cl
ATOM     25  C   UNL     1       1.101   9.110  21.260  0.00  0.00    +0.000 A 
ATOM     26  C   UNL     1       1.540   7.943  20.631  0.00  0.00    +0.000 A 
ENDBRANCH  16  20
ENDBRANCH   1  15
TORSDOF 4
ENDMDL
