MODEL 1
REMARK VINA RESULT:      -8.2      0.000      0.000
REMARK  Name = 
REMARK  6 active torsions:
REMARK  status: ('A' for Active; 'I' for Inactive)
REMARK    1  A    between atoms: C_1  and  C_2
REMARK    2  A    between atoms: C_2  and  O_3
REMARK    3  A    between atoms: O_3  and  C_4
REMARK    4  A    between atoms: C_4  and  C_6
REMARK    5  A    between atoms: N_10  and  S_11
REMARK    6  A    between atoms: S_11  and  C_14
REMARK                            x       y       z     vdW  Elec       q    Type
REMARK                         _______ _______ _______ _____ _____    ______ ____
ROOT
ATOM      1  S   UNL     1       4.413   3.634  18.571  0.00  0.00    +0.000 S 
ATOM      2  O   UNL     1       3.526   2.609  18.067  0.00  0.00    +0.000 OA
ATOM      3  O   UNL     1       5.291   3.374  19.694  0.00  0.00    +0.000 OA
ENDROOT
BRANCH   1   4
ATOM      4  C   UNL     1       3.405   5.040  19.000  0.00  0.00    +0.000 A 
ATOM      5  C   UNL     1       2.805   5.108  20.263  0.00  0.00    +0.000 A 
ATOM      6  C   UNL     1       2.076   6.244  20.622  0.00  0.00    +0.000 A 
ATOM      7  C   UNL     1       1.988   7.317  19.732  0.00  0.00    +0.000 A 
ATOM      8  N   UNL     1       1.289   8.473  20.096  0.00  0.00    +0.000 N 
ATOM      9  C   UNL     1       1.193   9.587  19.298  0.00  0.00    +0.000 A 
ATOM     10  O   UNL     1       0.577  10.589  19.641  0.00  0.00    +0.000 OA
ATOM     11  C   UNL     1       1.874   9.521  17.984  0.00  0.00    +0.000 A 
ATOM     12  C   UNL     1       2.534   8.423  17.591  0.00  0.00    +0.000 A 
ATOM     13  C   UNL     1       2.609   7.259  18.473  0.00  0.00    +0.000 A 
ATOM     14  C   UNL     1       3.313   6.113  18.103  0.00  0.00    +0.000 A 
ATOM     15  H   UNL     1       0.833   8.540  20.995  0.00  0.00    +0.000 HD
ENDBRANCH   1   4
BRANCH   1  20
ATOM     16  C   UNL     1       7.285   5.572  16.605  0.00  0.00    +0.000 C 
ATOM     17  C   UNL     1       6.958   5.250  15.142  0.00  0.00    +0.000 C 
ATOM     18  C   UNL     1       5.598   4.591  14.887  0.00  0.00    +0.000 C 
ATOM     19  C   UNL     1       5.169   3.594  15.961  0.00  0.00    +0.000 C 
ATOM     20  N   UNL     1       5.368   4.203  17.291  0.00  0.00    +0.000 NA
ATOM     21  C   UNL     1       6.792   4.495  17.566  0.00  0.00    +0.000 C 
BRANCH  16  22
ATOM     22  C   UNL     1       6.903   6.922  17.184  0.00  0.00    +0.000 C 
ATOM     23  O   UNL     1       5.871   7.483  16.833  0.00  0.00    +0.000 OA
BRANCH  22  24
ATOM     24  O   UNL     1       7.820   7.468  18.021  0.00  0.00    +0.000 OA
BRANCH  24  26
ATOM     25  C   UNL     1       8.934   9.500  18.883  0.00  0.00    +0.000 C 
ATOM     26  C   UNL     1       8.049   8.878  17.813  0.00  0.00    +0.000 C 
ENDBRANCH  24  26
ENDBRANCH  22  24
ENDBRANCH  16  22
ENDBRANCH   1  20
TORSDOF 5
ENDMDL
MODEL 2
REMARK VINA RESULT:      -7.9      2.681      4.682
REMARK  Name = 
REMARK  6 active torsions:
REMARK  status: ('A' for Active; 'I' for Inactive)
REMARK    1  A    between atoms: C_1  and  C_2
REMARK    2  A    between atoms: C_2  and  O_3
REMARK    3  A    between atoms: O_3  and  C_4
REMARK    4  A    between atoms: C_4  and  C_6
REMARK    5  A    between atoms: N_10  and  S_11
REMARK    6  A    between atoms: S_11  and  C_14
REMARK                            x       y       z     vdW  Elec       q    Type
REMARK                         _______ _______ _______ _____ _____    ______ ____
ROOT
ATOM      1  S   UNL     1       4.655   5.926  17.717  0.00  0.00    +0.000 S 
ATOM      2  O   UNL     1       5.881   6.268  18.404  0.00  0.00    +0.000 OA
ATOM      3  O   UNL     1       4.531   6.097  16.284  0.00  0.00    +0.000 OA
ENDROOT
BRANCH   1   4
ATOM      4  C   UNL     1       3.345   6.864  18.478  0.00  0.00    +0.000 A 
ATOM      5  C   UNL     1       2.803   6.442  19.697  0.00  0.00    +0.000 A 
ATOM      6  C   UNL     1       1.827   7.219  20.327  0.00  0.00    +0.000 A 
ATOM      7  C   UNL     1       1.432   8.429  19.753  0.00  0.00    +0.000 A 
ATOM      8  N   UNL     1       0.482   9.231  20.393  0.00  0.00    +0.000 N 
ATOM      9  C   UNL     1       0.073  10.453  19.918  0.00  0.00    +0.000 A 
ATOM     10  O   UNL     1      -0.760  11.139  20.499  0.00  0.00    +0.000 OA
ATOM     11  C   UNL     1       0.691  10.912  18.652  0.00  0.00    +0.000 A 
ATOM     12  C   UNL     1       1.588  10.162  17.998  0.00  0.00    +0.000 A 
ATOM     13  C   UNL     1       1.993   8.866  18.540  0.00  0.00    +0.000 A 
ATOM     14  C   UNL     1       2.946   8.076  17.897  0.00  0.00    +0.000 A 
ATOM     15  H   UNL     1       0.063   8.940  21.265  0.00  0.00    +0.000 HD
ENDBRANCH   1   4
BRANCH   1  20
ATOM     16  C   UNL     1       2.736   2.436  17.691  0.00  0.00    +0.000 C 
ATOM     17  C   UNL     1       3.512   1.624  18.734  0.00  0.00    +0.000 C 
ATOM     18  C   UNL     1       4.505   2.413  19.595  0.00  0.00    +0.000 C 
ATOM     19  C   UNL     1       5.239   3.527  18.851  0.00  0.00    +0.000 C 
ATOM     20  N   UNL     1       4.260   4.318  18.081  0.00  0.00    +0.000 NA
ATOM     21  C   UNL     1       3.589   3.516  17.034  0.00  0.00    +0.000 C 
BRANCH  16  22
ATOM     22  C   UNL     1       1.401   3.059  18.059  0.00  0.00    +0.000 C 
ATOM     23  O   UNL     1       0.961   4.013  17.427  0.00  0.00    +0.000 OA
BRANCH  22  24
ATOM     24  O   UNL     1       0.812   2.542  19.166  0.00  0.00    +0.000 OA
BRANCH  24  26
ATOM     25  C   UNL     1       1.398   2.837  21.551  0.00  0.00    +0.000 C 
ATOM     26  C   UNL     1       0.780   3.440  20.297  0.00  0.00    +0.000 C 
ENDBRANCH  24  26
ENDBRANCH  22  24
ENDBRANCH  16  22
ENDBRANCH   1  20
TORSDOF 5
ENDMDL
MODEL 3
REMARK VINA RESULT:      -7.6      2.625      4.845
REMARK  Name = 
REMARK  6 active torsions:
REMARK  status: ('A' for Active; 'I' for Inactive)
REMARK    1  A    between atoms: C_1  and  C_2
REMARK    2  A    between atoms: C_2  and  O_3
REMARK    3  A    between atoms: O_3  and  C_4
REMARK    4  A    between atoms: C_4  and  C_6
REMARK    5  A    between atoms: N_10  and  S_11
REMARK    6  A    between atoms: S_11  and  C_14
REMARK                            x       y       z     vdW  Elec       q    Type
REMARK                         _______ _______ _______ _____ _____    ______ ____
ROOT
ATOM      1  S   UNL     1       4.923   5.807  17.422  0.00  0.00    +0.000 S 
ATOM      2  O   UNL     1       6.183   6.093  18.072  0.00  0.00    +0.000 OA
ATOM      3  O   UNL     1       4.810   5.819  15.977  0.00  0.00    +0.000 OA
ENDROOT
BRANCH   1   4
ATOM      4  C   UNL     1       3.728   6.967  18.057  0.00  0.00    +0.000 A 
ATOM      5  C   UNL     1       3.295   8.030  17.257  0.00  0.00    +0.000 A 
ATOM      6  C   UNL     1       2.304   8.894  17.730  0.00  0.00    +0.000 A 
ATOM      7  C   UNL     1       1.728   8.663  18.982  0.00  0.00    +0.000 A 
ATOM      8  N   UNL     1       0.712   9.502  19.450  0.00  0.00    +0.000 N 
ATOM      9  C   UNL     1       0.064   9.317  20.647  0.00  0.00    +0.000 A 
ATOM     10  O   UNL     1      -0.826  10.065  21.034  0.00  0.00    +0.000 OA
ATOM     11  C   UNL     1       0.498   8.159  21.463  0.00  0.00    +0.000 A 
ATOM     12  C   UNL     1       1.483   7.347  21.058  0.00  0.00    +0.000 A 
ATOM     13  C   UNL     1       2.146   7.582  19.776  0.00  0.00    +0.000 A 
ATOM     14  C   UNL     1       3.155   6.736  19.316  0.00  0.00    +0.000 A 
ATOM     15  H   UNL     1       0.394  10.286  18.898  0.00  0.00    +0.000 HD
ENDBRANCH   1   4
BRANCH   1  20
ATOM     16  C   UNL     1       2.641   2.564  17.788  0.00  0.00    +0.000 C 
ATOM     17  C   UNL     1       3.323   1.808  18.935  0.00  0.00    +0.000 C 
ATOM     18  C   UNL     1       4.392   2.587  19.709  0.00  0.00    +0.000 C 
ATOM     19  C   UNL     1       5.243   3.517  18.848  0.00  0.00    +0.000 C 
ATOM     20  N   UNL     1       4.357   4.307  17.972  0.00  0.00    +0.000 NA
ATOM     21  C   UNL     1       3.608   3.459  17.019  0.00  0.00    +0.000 C 
BRANCH  16  22
ATOM     22  C   UNL     1       1.380   3.365  18.057  0.00  0.00    +0.000 C 
ATOM     23  O   UNL     1       1.083   4.320  17.347  0.00  0.00    +0.000 OA
BRANCH  22  24
ATOM     24  O   UNL     1       0.692   2.998  19.166  0.00  0.00    +0.000 OA
BRANCH  24  26
ATOM     25  C   UNL     1       1.372   3.162  21.538  0.00  0.00    +0.000 C 
ATOM     26  C   UNL     1       0.869   3.881  20.295  0.00  0.00    +0.000 C 
ENDBRANCH  24  26
ENDBRANCH  22  24
ENDBRANCH  16  22
ENDBRANCH   1  20
TORSDOF 5
ENDMDL
MODEL 4
REMARK VINA RESULT:      -7.6      1.126      1.889
REMARK  Name = 
REMARK  6 active torsions:
REMARK  status: ('A' for Active; 'I' for Inactive)
REMARK    1  A    between atoms: C_1  and  C_2
REMARK    2  A    between atoms: C_2  and  O_3
REMARK    3  A    between atoms: O_3  and  C_4
REMARK    4  A    between atoms: C_4  and  C_6
REMARK    5  A    between atoms: N_10  and  S_11
REMARK    6  A    between atoms: S_11  and  C_14
REMARK                            x       y       z     vdW  Elec       q    Type
REMARK                         _______ _______ _______ _____ _____    ______ ____
ROOT
ATOM      1  S   UNL     1       3.687   4.489  18.559  0.00  0.00    +0.000 S 
ATOM      2  O   UNL     1       2.630   3.688  17.980  0.00  0.00    +0.000 OA
ATOM      3  O   UNL     1       4.293   4.122  19.823  0.00  0.00    +0.000 OA
ENDROOT
BRANCH   1   4
ATOM      4  C   UNL     1       3.055   6.146  18.734  0.00  0.00    +0.000 A 
ATOM      5  C   UNL     1       3.145   7.043  17.664  0.00  0.00    +0.000 A 
ATOM      6  C   UNL     1       2.584   8.317  17.780  0.00  0.00    +0.000 A 
ATOM      7  C   UNL     1       1.904   8.668  18.948  0.00  0.00    +0.000 A 
ATOM      8  N   UNL     1       1.309   9.929  19.060  0.00  0.00    +0.000 N 
ATOM      9  C   UNL     1       0.586  10.334  20.156  0.00  0.00    +0.000 A 
ATOM     10  O   UNL     1       0.071  11.444  20.229  0.00  0.00    +0.000 OA
ATOM     11  C   UNL     1       0.455   9.358  21.262  0.00  0.00    +0.000 A 
ATOM     12  C   UNL     1       1.030   8.149  21.200  0.00  0.00    +0.000 A 
ATOM     13  C   UNL     1       1.793   7.760  20.015  0.00  0.00    +0.000 A 
ATOM     14  C   UNL     1       2.378   6.498  19.911  0.00  0.00    +0.000 A 
ATOM     15  H   UNL     1       1.375  10.600  18.308  0.00  0.00    +0.000 HD
ENDBRANCH   1   4
BRANCH   1  20
ATOM     16  C   UNL     1       7.327   4.995  17.024  0.00  0.00    +0.000 C 
ATOM     17  C   UNL     1       7.050   5.016  15.517  0.00  0.00    +0.000 C 
ATOM     18  C   UNL     1       5.576   5.119  15.107  0.00  0.00    +0.000 C 
ATOM     19  C   UNL     1       4.615   4.349  16.009  0.00  0.00    +0.000 C 
ATOM     20  N   UNL     1       4.930   4.653  17.419  0.00  0.00    +0.000 NA
ATOM     21  C   UNL     1       6.285   4.197  17.802  0.00  0.00    +0.000 C 
BRANCH  16  22
ATOM     22  C   UNL     1       7.563   6.298  17.766  0.00  0.00    +0.000 C 
ATOM     23  O   UNL     1       7.615   6.318  18.991  0.00  0.00    +0.000 OA
BRANCH  22  24
ATOM     24  O   UNL     1       7.613   7.404  16.983  0.00  0.00    +0.000 OA
BRANCH  24  26
ATOM     25  C   UNL     1       8.562   9.349  18.180  0.00  0.00    +0.000 C 
ATOM     26  C   UNL     1       7.316   8.636  17.675  0.00  0.00    +0.000 C 
ENDBRANCH  24  26
ENDBRANCH  22  24
ENDBRANCH  16  22
ENDBRANCH   1  20
TORSDOF 5
ENDMDL
MODEL 5
REMARK VINA RESULT:      -7.5      1.056      1.222
REMARK  Name = 
REMARK  6 active torsions:
REMARK  status: ('A' for Active; 'I' for Inactive)
REMARK    1  A    between atoms: C_1  and  C_2
REMARK    2  A    between atoms: C_2  and  O_3
REMARK    3  A    between atoms: O_3  and  C_4
REMARK    4  A    between atoms: C_4  and  C_6
REMARK    5  A    between atoms: N_10  and  S_11
REMARK    6  A    between atoms: S_11  and  C_14
REMARK                            x       y       z     vdW  Elec       q    Type
REMARK                         _______ _______ _______ _____ _____    ______ ____
ROOT
ATOM      1  S   UNL     1       3.335   3.822  18.469  0.00  0.00    +0.000 S 
ATOM      2  O   UNL     1       2.386   3.187  17.580  0.00  0.00    +0.000 OA
ATOM      3  O   UNL     1       3.819   3.142  19.653  0.00  0.00    +0.000 OA
ENDROOT
BRANCH   1   4
ATOM      4  C   UNL     1       2.609   5.361  19.001  0.00  0.00    +0.000 A 
ATOM      5  C   UNL     1       2.148   5.497  20.315  0.00  0.00    +0.000 A 
ATOM      6  C   UNL     1       1.647   6.726  20.749  0.00  0.00    +0.000 A 
ATOM      7  C   UNL     1       1.649   7.818  19.879  0.00  0.00    +0.000 A 
ATOM      8  N   UNL     1       1.182   9.062  20.315  0.00  0.00    +0.000 N 
ATOM      9  C   UNL     1       1.192  10.194  19.536  0.00  0.00    +0.000 A 
ATOM     10  O   UNL     1       0.780  11.274  19.943  0.00  0.00    +0.000 OA
ATOM     11  C   UNL     1       1.729  10.049  18.163  0.00  0.00    +0.000 A 
ATOM     12  C   UNL     1       2.165   8.869  17.703  0.00  0.00    +0.000 A 
ATOM     13  C   UNL     1       2.134   7.689  18.566  0.00  0.00    +0.000 A 
ATOM     14  C   UNL     1       2.608   6.454  18.123  0.00  0.00    +0.000 A 
ATOM     15  H   UNL     1       0.828   9.181  21.253  0.00  0.00    +0.000 HD
ENDBRANCH   1   4
BRANCH   1  20
ATOM     16  C   UNL     1       7.085   4.807  17.560  0.00  0.00    +0.000 C 
ATOM     17  C   UNL     1       6.974   5.205  16.084  0.00  0.00    +0.000 C 
ATOM     18  C   UNL     1       5.551   5.367  15.538  0.00  0.00    +0.000 C 
ATOM     19  C   UNL     1       4.543   4.366  16.097  0.00  0.00    +0.000 C 
ATOM     20  N   UNL     1       4.684   4.308  17.564  0.00  0.00    +0.000 NA
ATOM     21  C   UNL     1       6.013   3.808  17.981  0.00  0.00    +0.000 C 
BRANCH  16  22
ATOM     22  C   UNL     1       7.163   5.883  18.628  0.00  0.00    +0.000 C 
ATOM     23  O   UNL     1       7.143   5.586  19.817  0.00  0.00    +0.000 OA
BRANCH  22  24
ATOM     24  O   UNL     1       7.159   7.157  18.162  0.00  0.00    +0.000 OA
BRANCH  24  26
ATOM     25  C   UNL     1       8.278   9.359  18.053  0.00  0.00    +0.000 C 
ATOM     26  C   UNL     1       8.385   7.881  18.400  0.00  0.00    +0.000 C 
ENDBRANCH  24  26
ENDBRANCH  22  24
ENDBRANCH  16  22
ENDBRANCH   1  20
TORSDOF 5
ENDMDL
MODEL 6
REMARK VINA RESULT:      -7.5      2.336      6.164
REMARK  Name = 
REMARK  6 active torsions:
REMARK  status: ('A' for Active; 'I' for Inactive)
REMARK    1  A    between atoms: C_1  and  C_2
REMARK    2  A    between atoms: C_2  and  O_3
REMARK    3  A    between atoms: O_3  and  C_4
REMARK    4  A    between atoms: C_4  and  C_6
REMARK    5  A    between atoms: N_10  and  S_11
REMARK    6  A    between atoms: S_11  and  C_14
REMARK                            x       y       z     vdW  Elec       q    Type
REMARK                         _______ _______ _______ _____ _____    ______ ____
ROOT
ATOM      1  S   UNL     1       4.316   2.677  18.909  0.00  0.00    +0.000 S 
ATOM      2  O   UNL     1       5.188   2.393  20.028  0.00  0.00    +0.000 OA
ATOM      3  O   UNL     1       3.643   1.609  18.199  0.00  0.00    +0.000 OA
ENDROOT
BRANCH   1   4
ATOM      4  C   UNL     1       5.274   3.588  17.712  0.00  0.00    +0.000 A 
ATOM      5  C   UNL     1       6.294   4.444  18.142  0.00  0.00    +0.000 A 
ATOM      6  C   UNL     1       7.090   5.100  17.200  0.00  0.00    +0.000 A 
ATOM      7  C   UNL     1       6.886   4.862  15.839  0.00  0.00    +0.000 A 
ATOM      8  N   UNL     1       7.700   5.487  14.889  0.00  0.00    +0.000 N 
ATOM      9  C   UNL     1       7.593   5.272  13.536  0.00  0.00    +0.000 A 
ATOM     10  O   UNL     1       8.322   5.830  12.724  0.00  0.00    +0.000 OA
ATOM     11  C   UNL     1       6.542   4.325  13.097  0.00  0.00    +0.000 A 
ATOM     12  C   UNL     1       5.729   3.725  13.976  0.00  0.00    +0.000 A 
ATOM     13  C   UNL     1       5.877   3.984  15.407  0.00  0.00    +0.000 A 
ATOM     14  C   UNL     1       5.063   3.351  16.347  0.00  0.00    +0.000 A 
ATOM     15  H   UNL     1       8.432   6.123  15.174  0.00  0.00    +0.000 HD
ENDBRANCH   1   4
BRANCH   1  20
ATOM     16  C   UNL     1       1.675   5.655  18.780  0.00  0.00    +0.000 C 
ATOM     17  C   UNL     1       1.201   5.740  20.236  0.00  0.00    +0.000 C 
ATOM     18  C   UNL     1       2.015   4.933  21.254  0.00  0.00    +0.000 C 
ATOM     19  C   UNL     1       2.523   3.591  20.734  0.00  0.00    +0.000 C 
ATOM     20  N   UNL     1       3.138   3.789  19.408  0.00  0.00    +0.000 NA
ATOM     21  C   UNL     1       2.161   4.260  18.401  0.00  0.00    +0.000 C 
BRANCH  16  22
ATOM     22  C   UNL     1       2.687   6.658  18.257  0.00  0.00    +0.000 C 
ATOM     23  O   UNL     1       3.564   6.310  17.474  0.00  0.00    +0.000 OA
BRANCH  22  24
ATOM     24  O   UNL     1       2.592   7.902  18.789  0.00  0.00    +0.000 OA
BRANCH  24  26
ATOM     25  C   UNL     1       0.940   9.662  18.258  0.00  0.00    +0.000 C 
ATOM     26  C   UNL     1       2.206   8.924  17.847  0.00  0.00    +0.000 C 
ENDBRANCH  24  26
ENDBRANCH  22  24
ENDBRANCH  16  22
ENDBRANCH   1  20
TORSDOF 5
ENDMDL
MODEL 7
REMARK VINA RESULT:      -7.4      2.882      4.975
REMARK  Name = 
REMARK  6 active torsions:
REMARK  status: ('A' for Active; 'I' for Inactive)
REMARK    1  A    between atoms: C_1  and  C_2
REMARK    2  A    between atoms: C_2  and  O_3
REMARK    3  A    between atoms: O_3  and  C_4
REMARK    4  A    between atoms: C_4  and  C_6
REMARK    5  A    between atoms: N_10  and  S_11
REMARK    6  A    between atoms: S_11  and  C_14
REMARK                            x       y       z     vdW  Elec       q    Type
REMARK                         _______ _______ _______ _____ _____    ______ ____
ROOT
ATOM      1  S   UNL     1       4.351   5.696  18.249  0.00  0.00    +0.000 S 
ATOM      2  O   UNL     1       5.185   5.549  19.422  0.00  0.00    +0.000 OA
ATOM      3  O   UNL     1       4.935   5.914  16.941  0.00  0.00    +0.000 OA
ENDROOT
BRANCH   1   4
ATOM      4  C   UNL     1       3.234   7.050  18.564  0.00  0.00    +0.000 A 
ATOM      5  C   UNL     1       2.893   7.926  17.529  0.00  0.00    +0.000 A 
ATOM      6  C   UNL     1       1.961   8.941  17.760  0.00  0.00    +0.000 A 
ATOM      7  C   UNL     1       1.351   9.045  19.013  0.00  0.00    +0.000 A 
ATOM      8  N   UNL     1       0.392  10.036  19.244  0.00  0.00    +0.000 N 
ATOM      9  C   UNL     1      -0.285  10.177  20.431  0.00  0.00    +0.000 A 
ATOM     10  O   UNL     1      -1.124  11.053  20.609  0.00  0.00    +0.000 OA
ATOM     11  C   UNL     1       0.050   9.212  21.504  0.00  0.00    +0.000 A 
ATOM     12  C   UNL     1       0.980   8.263  21.327  0.00  0.00    +0.000 A 
ATOM     13  C   UNL     1       1.677   8.151  20.047  0.00  0.00    +0.000 A 
ATOM     14  C   UNL     1       2.628   7.155  19.824  0.00  0.00    +0.000 A 
ATOM     15  H   UNL     1       0.141  10.692  18.518  0.00  0.00    +0.000 HD
ENDBRANCH   1   4
BRANCH   1  20
ATOM     16  C   UNL     1       1.099   3.419  18.576  0.00  0.00    +0.000 C 
ATOM     17  C   UNL     1       1.588   2.067  18.045  0.00  0.00    +0.000 C 
ATOM     18  C   UNL     1       3.101   1.933  17.842  0.00  0.00    +0.000 C 
ATOM     19  C   UNL     1       3.785   3.200  17.336  0.00  0.00    +0.000 C 
ATOM     20  N   UNL     1       3.326   4.350  18.140  0.00  0.00    +0.000 NA
ATOM     21  C   UNL     1       1.875   4.595  17.991  0.00  0.00    +0.000 C 
BRANCH  16  22
ATOM     22  C   UNL     1       0.977   3.643  20.073  0.00  0.00    +0.000 C 
ATOM     23  O   UNL     1       0.753   4.762  20.521  0.00  0.00    +0.000 OA
BRANCH  22  24
ATOM     24  O   UNL     1       1.223   2.551  20.838  0.00  0.00    +0.000 OA
BRANCH  24  26
ATOM     25  C   UNL     1       3.679   2.432  21.099  0.00  0.00    +0.000 C 
ATOM     26  C   UNL     1       2.331   2.702  21.752  0.00  0.00    +0.000 C 
ENDBRANCH  24  26
ENDBRANCH  22  24
ENDBRANCH  16  22
ENDBRANCH   1  20
TORSDOF 5
ENDMDL
MODEL 8
REMARK VINA RESULT:      -7.3      2.291      5.710
REMARK  Name = 
REMARK  6 active torsions:
REMARK  status: ('A' for Active; 'I' for Inactive)
REMARK    1  A    between atoms: C_1  and  C_2
REMARK    2  A    between atoms: C_2  and  O_3
REMARK    3  A    between atoms: O_3  and  C_4
REMARK    4  A    between atoms: C_4  and  C_6
REMARK    5  A    between atoms: N_10  and  S_11
REMARK    6  A    between atoms: S_11  and  C_14
REMARK                            x       y       z     vdW  Elec       q    Type
REMARK                         _______ _______ _______ _____ _____    ______ ____
ROOT
ATOM      1  S   UNL     1       3.386   2.547  17.644  0.00  0.00    +0.000 S 
ATOM      2  O   UNL     1       4.204   1.362  17.778  0.00  0.00    +0.000 OA
ATOM      3  O   UNL     1       2.341   2.622  16.643  0.00  0.00    +0.000 OA
ENDROOT
BRANCH   1   4
ATOM      4  C   UNL     1       4.489   3.920  17.363  0.00  0.00    +0.000 A 
ATOM      5  C   UNL     1       4.299   4.750  16.253  0.00  0.00    +0.000 A 
ATOM      6  C   UNL     1       5.120   5.867  16.076  0.00  0.00    +0.000 A 
ATOM      7  C   UNL     1       6.095   6.165  17.031  0.00  0.00    +0.000 A 
ATOM      8  N   UNL     1       6.897   7.300  16.880  0.00  0.00    +0.000 N 
ATOM      9  C   UNL     1       7.847   7.687  17.795  0.00  0.00    +0.000 A 
ATOM     10  O   UNL     1       8.536   8.688  17.642  0.00  0.00    +0.000 OA
ATOM     11  C   UNL     1       8.004   6.827  18.991  0.00  0.00    +0.000 A 
ATOM     12  C   UNL     1       7.268   5.719  19.159  0.00  0.00    +0.000 A 
ATOM     13  C   UNL     1       6.270   5.345  18.158  0.00  0.00    +0.000 A 
ATOM     14  C   UNL     1       5.470   4.213  18.320  0.00  0.00    +0.000 A 
ATOM     15  H   UNL     1       6.792   7.905  16.079  0.00  0.00    +0.000 HD
ENDBRANCH   1   4
BRANCH   1  20
ATOM     16  C   UNL     1       1.159   4.331  20.422  0.00  0.00    +0.000 C 
ATOM     17  C   UNL     1       1.546   3.570  21.695  0.00  0.00    +0.000 C 
ATOM     18  C   UNL     1       2.762   2.644  21.579  0.00  0.00    +0.000 C 
ATOM     19  C   UNL     1       2.880   1.922  20.239  0.00  0.00    +0.000 C 
ATOM     20  N   UNL     1       2.687   2.897  19.148  0.00  0.00    +0.000 NA
ATOM     21  C   UNL     1       1.333   3.492  19.160  0.00  0.00    +0.000 C 
BRANCH  16  22
ATOM     22  C   UNL     1       1.751   5.703  20.153  0.00  0.00    +0.000 C 
ATOM     23  O   UNL     1       1.821   6.539  21.047  0.00  0.00    +0.000 OA
BRANCH  22  24
ATOM     24  O   UNL     1       2.093   5.938  18.862  0.00  0.00    +0.000 OA
BRANCH  24  26
ATOM     25  C   UNL     1       2.188   8.137  17.736  0.00  0.00    +0.000 C 
ATOM     26  C   UNL     1       2.869   7.139  18.660  0.00  0.00    +0.000 C 
ENDBRANCH  24  26
ENDBRANCH  22  24
ENDBRANCH  16  22
ENDBRANCH   1  20
TORSDOF 5
ENDMDL
MODEL 9
REMARK VINA RESULT:      -7.3      2.222      3.864
REMARK  Name = 
REMARK  6 active torsions:
REMARK  status: ('A' for Active; 'I' for Inactive)
REMARK    1  A    between atoms: C_1  and  C_2
REMARK    2  A    between atoms: C_2  and  O_3
REMARK    3  A    between atoms: O_3  and  C_4
REMARK    4  A    between atoms: C_4  and  C_6
REMARK    5  A    between atoms: N_10  and  S_11
REMARK    6  A    between atoms: S_11  and  C_14
REMARK                            x       y       z     vdW  Elec       q    Type
REMARK                         _______ _______ _______ _____ _____    ______ ____
ROOT
ATOM      1  S   UNL     1       3.016   5.104  18.659  0.00  0.00    +0.000 S 
ATOM      2  O   UNL     1       2.202   4.570  17.589  0.00  0.00    +0.000 OA
ATOM      3  O   UNL     1       3.120   4.418  19.930  0.00  0.00    +0.000 OA
ENDROOT
BRANCH   1   4
ATOM      4  C   UNL     1       2.430   6.754  18.993  0.00  0.00    +0.000 A 
ATOM      5  C   UNL     1       2.304   7.674  17.946  0.00  0.00    +0.000 A 
ATOM      6  C   UNL     1       1.776   8.942  18.199  0.00  0.00    +0.000 A 
ATOM      7  C   UNL     1       1.342   9.264  19.488  0.00  0.00    +0.000 A 
ATOM      8  N   UNL     1       0.780  10.519  19.743  0.00  0.00    +0.000 N 
ATOM      9  C   UNL     1       0.289  10.897  20.970  0.00  0.00    +0.000 A 
ATOM     10  O   UNL     1      -0.202  12.002  21.168  0.00  0.00    +0.000 OA
ATOM     11  C   UNL     1       0.384   9.896  22.058  0.00  0.00    +0.000 A 
ATOM     12  C   UNL     1       0.936   8.692  21.856  0.00  0.00    +0.000 A 
ATOM     13  C   UNL     1       1.447   8.333  20.534  0.00  0.00    +0.000 A 
ATOM     14  C   UNL     1       2.001   7.077  20.288  0.00  0.00    +0.000 A 
ATOM     15  H   UNL     1       0.694  11.207  19.009  0.00  0.00    +0.000 HD
ENDBRANCH   1   4
BRANCH   1  20
ATOM     16  C   UNL     1       6.032   5.623  16.110  0.00  0.00    +0.000 C 
ATOM     17  C   UNL     1       7.247   5.682  17.043  0.00  0.00    +0.000 C 
ATOM     18  C   UNL     1       6.995   5.273  18.498  0.00  0.00    +0.000 C 
ATOM     19  C   UNL     1       5.637   5.702  19.049  0.00  0.00    +0.000 C 
ATOM     20  N   UNL     1       4.588   5.349  18.073  0.00  0.00    +0.000 NA
ATOM     21  C   UNL     1       4.745   6.074  16.793  0.00  0.00    +0.000 C 
BRANCH  16  22
ATOM     22  C   UNL     1       5.730   4.348  15.343  0.00  0.00    +0.000 C 
ATOM     23  O   UNL     1       5.814   3.255  15.892  0.00  0.00    +0.000 OA
BRANCH  22  24
ATOM     24  O   UNL     1       5.462   4.521  14.025  0.00  0.00    +0.000 OA
BRANCH  24  26
ATOM     25  C   UNL     1       5.635   3.061  12.037  0.00  0.00    +0.000 C 
ATOM     26  C   UNL     1       6.360   3.819  13.139  0.00  0.00    +0.000 C 
ENDBRANCH  24  26
ENDBRANCH  22  24
ENDBRANCH  16  22
ENDBRANCH   1  20
TORSDOF 5
ENDMDL
