MODEL 1
REMARK VINA RESULT:      -6.6      0.000      0.000
REMARK  Name = 
REMARK  15 active torsions:
REMARK  status: ('A' for Active; 'I' for Inactive)
REMARK    1  A    between atoms: C_1  and  C_2
REMARK    2  A    between atoms: C_2  and  C_3
REMARK    3  A    between atoms: C_2  and  C_4
REMARK    4  A    between atoms: C_4  and  C_5
REMARK    5  A    between atoms: C_4  and  C_10
REMARK    6  A    between atoms: C_5  and  N_6
REMARK    7  A    between atoms: N_6  and  O_7
REMARK    8  A    between atoms: N_12  and  C_13
REMARK    9  A    between atoms: C_13  and  C_14
REMARK   10  A    between atoms: C_13  and  C_19
REMARK   11  A    between atoms: N_16  and  C_17
REMARK   12  A    between atoms: N_16  and  C_18
REMARK   13  A    between atoms: C_19  and  C_20
REMARK   14  A    between atoms: C_19  and  C_21
REMARK   15  A    between atoms: C_19  and  C_22
REMARK                            x       y       z     vdW  Elec       q    Type
REMARK                         _______ _______ _______ _____ _____    ______ ____
ROOT
ATOM      1  C   UNL     1       4.960   5.433  17.668  0.00  0.00    +0.000 C 
ATOM      2  O   UNL     1       4.336   5.926  16.735  0.00  0.00    +0.000 OA
ATOM      3  N   UNL     1       4.297   4.942  18.800  0.00  0.00    +0.000 N 
ATOM      4  H   UNL     1       4.825   4.576  19.583  0.00  0.00    +0.000 HD
ENDROOT
BRANCH   1   5
ATOM      5  C   UNL     1       6.496   5.326  17.675  0.00  0.00    +0.000 C 
BRANCH   5   7
ATOM      6  C   UNL     1       7.939   7.505  17.973  0.00  0.00    +0.000 C 
ATOM      7  C   UNL     1       7.254   6.309  18.644  0.00  0.00    +0.000 C 
ATOM      8  C   UNL     1       8.237   5.633  19.611  0.00  0.00    +0.000 C 
ENDBRANCH   5   7
BRANCH   5   9
ATOM      9  C   UNL     1       7.004   5.484  16.223  0.00  0.00    +0.000 C 
BRANCH   9  10
ATOM     10  N   UNL     1       6.395   4.538  15.289  0.00  0.00    +0.000 N 
ATOM     11  C   UNL     1       6.806   4.443  13.979  0.00  0.00    +0.000 C 
ATOM     12  O   UNL     1       7.452   5.288  13.372  0.00  0.00    +0.000 OA
BRANCH  10  13
ATOM     13  O   UNL     1       6.078   3.298  15.887  0.00  0.00    +0.000 OA
ATOM     14  H   UNL     1       5.130   3.207  15.668  0.00  0.00    +0.000 HD
ENDBRANCH  10  13
ENDBRANCH   9  10
ENDBRANCH   5   9
ENDBRANCH   1   5
BRANCH   3  15
ATOM     15  C   UNL     1       2.822   4.859  18.886  0.00  0.00    +0.000 C 
BRANCH  15  16
ATOM     16  C   UNL     1       2.280   5.737  20.072  0.00  0.00    +0.000 C 
ATOM     17  O   UNL     1       2.149   5.270  21.207  0.00  0.00    +0.000 OA
ATOM     18  N   UNL     1       1.969   7.078  19.850  0.00  0.00    +0.000 N 
ATOM     19  C   UNL     1       2.283   7.824  18.646  0.00  0.00    +0.000 C 
ATOM     20  C   UNL     1       1.472   7.875  20.968  0.00  0.00    +0.000 C 
ENDBRANCH  15  16
BRANCH  15  21
ATOM     21  C   UNL     1       2.294   3.363  18.885  0.00  0.00    +0.000 C 
ATOM     22  C   UNL     1       2.444   2.789  17.459  0.00  0.00    +0.000 C 
ATOM     23  C   UNL     1       3.142   2.480  19.829  0.00  0.00    +0.000 C 
ATOM     24  C   UNL     1       0.826   3.169  19.326  0.00  0.00    +0.000 C 
ENDBRANCH  15  21
ENDBRANCH   3  15
TORSDOF 8
ENDMDL
MODEL 2
REMARK VINA RESULT:      -6.6      1.911      5.941
REMARK  Name = 
REMARK  15 active torsions:
REMARK  status: ('A' for Active; 'I' for Inactive)
REMARK    1  A    between atoms: C_1  and  C_2
REMARK    2  A    between atoms: C_2  and  C_3
REMARK    3  A    between atoms: C_2  and  C_4
REMARK    4  A    between atoms: C_4  and  C_5
REMARK    5  A    between atoms: C_4  and  C_10
REMARK    6  A    between atoms: C_5  and  N_6
REMARK    7  A    between atoms: N_6  and  O_7
REMARK    8  A    between atoms: N_12  and  C_13
REMARK    9  A    between atoms: C_13  and  C_14
REMARK   10  A    between atoms: C_13  and  C_19
REMARK   11  A    between atoms: N_16  and  C_17
REMARK   12  A    between atoms: N_16  and  C_18
REMARK   13  A    between atoms: C_19  and  C_20
REMARK   14  A    between atoms: C_19  and  C_21
REMARK   15  A    between atoms: C_19  and  C_22
REMARK                            x       y       z     vdW  Elec       q    Type
REMARK                         _______ _______ _______ _____ _____    ______ ____
ROOT
ATOM      1  C   UNL     1       4.507   4.436  19.095  0.00  0.00    +0.000 C 
ATOM      2  O   UNL     1       5.314   3.589  19.462  0.00  0.00    +0.000 OA
ATOM      3  N   UNL     1       4.849   5.383  18.122  0.00  0.00    +0.000 N 
ATOM      4  H   UNL     1       4.191   6.105  17.857  0.00  0.00    +0.000 HD
ENDROOT
BRANCH   1   5
ATOM      5  C   UNL     1       3.083   4.533  19.672  0.00  0.00    +0.000 C 
BRANCH   5   7
ATOM      6  C   UNL     1       1.497   2.866  18.398  0.00  0.00    +0.000 C 
ATOM      7  C   UNL     1       2.251   3.197  19.691  0.00  0.00    +0.000 C 
ATOM      8  C   UNL     1       1.302   3.044  20.889  0.00  0.00    +0.000 C 
ENDBRANCH   5   7
BRANCH   5   9
ATOM      9  C   UNL     1       2.323   5.645  18.912  0.00  0.00    +0.000 C 
BRANCH   9  10
ATOM     10  N   UNL     1       2.342   6.936  19.600  0.00  0.00    +0.000 N 
ATOM     11  C   UNL     1       2.116   8.117  18.933  0.00  0.00    +0.000 C 
ATOM     12  O   UNL     1       2.190   8.277  17.720  0.00  0.00    +0.000 OA
BRANCH  10  13
ATOM     13  O   UNL     1       1.771   6.882  20.891  0.00  0.00    +0.000 OA
ATOM     14  H   UNL     1       2.193   6.084  21.262  0.00  0.00    +0.000 HD
ENDBRANCH  10  13
ENDBRANCH   9  10
ENDBRANCH   5   9
ENDBRANCH   1   5
BRANCH   3  15
ATOM     15  C   UNL     1       6.132   5.341  17.385  0.00  0.00    +0.000 C 
BRANCH  15  16
ATOM     16  C   UNL     1       6.918   6.692  17.549  0.00  0.00    +0.000 C 
ATOM     17  O   UNL     1       6.671   7.667  16.834  0.00  0.00    +0.000 OA
ATOM     18  N   UNL     1       7.891   6.807  18.541  0.00  0.00    +0.000 N 
ATOM     19  C   UNL     1       8.131   5.841  19.596  0.00  0.00    +0.000 C 
ATOM     20  C   UNL     1       8.604   8.074  18.678  0.00  0.00    +0.000 C 
ENDBRANCH  15  16
BRANCH  15  21
ATOM     21  C   UNL     1       5.957   4.865  15.881  0.00  0.00    +0.000 C 
ATOM     22  C   UNL     1       5.060   5.884  15.144  0.00  0.00    +0.000 C 
ATOM     23  C   UNL     1       7.319   4.838  15.150  0.00  0.00    +0.000 C 
ATOM     24  C   UNL     1       5.343   3.461  15.688  0.00  0.00    +0.000 C 
ENDBRANCH  15  21
ENDBRANCH   3  15
TORSDOF 8
ENDMDL
MODEL 3
REMARK VINA RESULT:      -6.4      1.031      1.297
REMARK  Name = 
REMARK  15 active torsions:
REMARK  status: ('A' for Active; 'I' for Inactive)
REMARK    1  A    between atoms: C_1  and  C_2
REMARK    2  A    between atoms: C_2  and  C_3
REMARK    3  A    between atoms: C_2  and  C_4
REMARK    4  A    between atoms: C_4  and  C_5
REMARK    5  A    between atoms: C_4  and  C_10
REMARK    6  A    between atoms: C_5  and  N_6
REMARK    7  A    between atoms: N_6  and  O_7
REMARK    8  A    between atoms: N_12  and  C_13
REMARK    9  A    between atoms: C_13  and  C_14
REMARK   10  A    between atoms: C_13  and  C_19
REMARK   11  A    between atoms: N_16  and  C_17
REMARK   12  A    between atoms: N_16  and  C_18
REMARK   13  A    between atoms: C_19  and  C_20
REMARK   14  A    between atoms: C_19  and  C_21
REMARK   15  A    between atoms: C_19  and  C_22
REMARK                            x       y       z     vdW  Elec       q    Type
REMARK                         _______ _______ _______ _____ _____    ______ ____
ROOT
ATOM      1  C   UNL     1       4.670   4.718  17.238  0.00  0.00    +0.000 C 
ATOM      2  O   UNL     1       3.860   4.399  16.374  0.00  0.00    +0.000 OA
ATOM      3  N   UNL     1       4.297   4.784  18.587  0.00  0.00    +0.000 N 
ATOM      4  H   UNL     1       4.961   5.091  19.287  0.00  0.00    +0.000 HD
ENDROOT
BRANCH   1   5
ATOM      5  C   UNL     1       6.132   5.078  16.915  0.00  0.00    +0.000 C 
BRANCH   5   7
ATOM      6  C   UNL     1       7.464   7.298  17.374  0.00  0.00    +0.000 C 
ATOM      7  C   UNL     1       6.861   6.012  17.950  0.00  0.00    +0.000 C 
ATOM      8  C   UNL     1       7.903   5.310  18.833  0.00  0.00    +0.000 C 
ENDBRANCH   5   7
BRANCH   5   9
ATOM      9  C   UNL     1       6.182   5.686  15.493  0.00  0.00    +0.000 C 
BRANCH   9  10
ATOM     10  N   UNL     1       7.021   4.927  14.566  0.00  0.00    +0.000 N 
ATOM     11  C   UNL     1       6.480   4.129  13.585  0.00  0.00    +0.000 C 
ATOM     12  O   UNL     1       5.328   3.713  13.559  0.00  0.00    +0.000 OA
BRANCH  10  13
ATOM     13  O   UNL     1       8.178   5.631  14.166  0.00  0.00    +0.000 OA
ATOM     14  H   UNL     1       8.739   5.561  14.963  0.00  0.00    +0.000 HD
ENDBRANCH  10  13
ENDBRANCH   9  10
ENDBRANCH   5   9
ENDBRANCH   1   5
BRANCH   3  15
ATOM     15  C   UNL     1       2.968   4.348  19.067  0.00  0.00    +0.000 C 
BRANCH  15  16
ATOM     16  C   UNL     1       2.418   5.331  20.164  0.00  0.00    +0.000 C 
ATOM     17  O   UNL     1       2.310   4.980  21.343  0.00  0.00    +0.000 OA
ATOM     18  N   UNL     1       2.073   6.634  19.810  0.00  0.00    +0.000 N 
ATOM     19  C   UNL     1       2.356   7.259  18.531  0.00  0.00    +0.000 C 
ATOM     20  C   UNL     1       1.570   7.532  20.846  0.00  0.00    +0.000 C 
ENDBRANCH  15  16
BRANCH  15  21
ATOM     21  C   UNL     1       2.943   2.818  19.490  0.00  0.00    +0.000 C 
ATOM     22  C   UNL     1       2.821   1.957  18.213  0.00  0.00    +0.000 C 
ATOM     23  C   UNL     1       4.264   2.420  20.188  0.00  0.00    +0.000 C 
ATOM     24  C   UNL     1       1.810   2.406  20.455  0.00  0.00    +0.000 C 
ENDBRANCH  15  21
ENDBRANCH   3  15
TORSDOF 8
ENDMDL
MODEL 4
REMARK VINA RESULT:      -6.4      1.891      5.997
REMARK  Name = 
REMARK  15 active torsions:
REMARK  status: ('A' for Active; 'I' for Inactive)
REMARK    1  A    between atoms: C_1  and  C_2
REMARK    2  A    between atoms: C_2  and  C_3
REMARK    3  A    between atoms: C_2  and  C_4
REMARK    4  A    between atoms: C_4  and  C_5
REMARK    5  A    between atoms: C_4  and  C_10
REMARK    6  A    between atoms: C_5  and  N_6
REMARK    7  A    between atoms: N_6  and  O_7
REMARK    8  A    between atoms: N_12  and  C_13
REMARK    9  A    between atoms: C_13  and  C_14
REMARK   10  A    between atoms: C_13  and  C_19
REMARK   11  A    between atoms: N_16  and  C_17
REMARK   12  A    between atoms: N_16  and  C_18
REMARK   13  A    between atoms: C_19  and  C_20
REMARK   14  A    between atoms: C_19  and  C_21
REMARK   15  A    between atoms: C_19  and  C_22
REMARK                            x       y       z     vdW  Elec       q    Type
REMARK                         _______ _______ _______ _____ _____    ______ ____
ROOT
ATOM      1  C   UNL     1       4.367   4.511  18.788  0.00  0.00    +0.000 C 
ATOM      2  O   UNL     1       5.168   3.758  19.330  0.00  0.00    +0.000 OA
ATOM      3  N   UNL     1       4.766   5.364  17.752  0.00  0.00    +0.000 N 
ATOM      4  H   UNL     1       4.106   6.013  17.340  0.00  0.00    +0.000 HD
ENDROOT
BRANCH   1   5
ATOM      5  C   UNL     1       2.885   4.586  19.204  0.00  0.00    +0.000 C 
BRANCH   5   7
ATOM      6  C   UNL     1       1.648   2.397  19.975  0.00  0.00    +0.000 C 
ATOM      7  C   UNL     1       1.995   3.345  18.822  0.00  0.00    +0.000 C 
ATOM      8  C   UNL     1       2.503   2.529  17.624  0.00  0.00    +0.000 C 
ENDBRANCH   5   7
BRANCH   5   9
ATOM      9  C   UNL     1       2.284   5.892  18.633  0.00  0.00    +0.000 C 
BRANCH   9  10
ATOM     10  N   UNL     1       2.332   7.012  19.573  0.00  0.00    +0.000 N 
ATOM     11  C   UNL     1       1.949   8.282  19.208  0.00  0.00    +0.000 C 
ATOM     12  O   UNL     1       1.840   8.691  18.059  0.00  0.00    +0.000 OA
BRANCH  10  13
ATOM     13  O   UNL     1       1.956   6.648  20.885  0.00  0.00    +0.000 OA
ATOM     14  H   UNL     1       2.254   5.719  20.927  0.00  0.00    +0.000 HD
ENDBRANCH  10  13
ENDBRANCH   9  10
ENDBRANCH   5   9
ENDBRANCH   1   5
BRANCH   3  15
ATOM     15  C   UNL     1       6.120   5.317  17.158  0.00  0.00    +0.000 C 
BRANCH  15  16
ATOM     16  C   UNL     1       6.879   6.675  17.385  0.00  0.00    +0.000 C 
ATOM     17  O   UNL     1       6.645   7.664  16.684  0.00  0.00    +0.000 OA
ATOM     18  N   UNL     1       7.811   6.779  18.416  0.00  0.00    +0.000 N 
ATOM     19  C   UNL     1       8.025   5.792  19.457  0.00  0.00    +0.000 C 
ATOM     20  C   UNL     1       8.499   8.052  18.611  0.00  0.00    +0.000 C 
ENDBRANCH  15  16
BRANCH  15  21
ATOM     21  C   UNL     1       6.110   4.818  15.652  0.00  0.00    +0.000 C 
ATOM     22  C   UNL     1       7.548   4.905  15.095  0.00  0.00    +0.000 C 
ATOM     23  C   UNL     1       5.672   3.337  15.567  0.00  0.00    +0.000 C 
ATOM     24  C   UNL     1       5.178   5.592  14.694  0.00  0.00    +0.000 C 
ENDBRANCH  15  21
ENDBRANCH   3  15
TORSDOF 8
ENDMDL
MODEL 5
REMARK VINA RESULT:      -6.4      1.826      3.149
REMARK  Name = 
REMARK  15 active torsions:
REMARK  status: ('A' for Active; 'I' for Inactive)
REMARK    1  A    between atoms: C_1  and  C_2
REMARK    2  A    between atoms: C_2  and  C_3
REMARK    3  A    between atoms: C_2  and  C_4
REMARK    4  A    between atoms: C_4  and  C_5
REMARK    5  A    between atoms: C_4  and  C_10
REMARK    6  A    between atoms: C_5  and  N_6
REMARK    7  A    between atoms: N_6  and  O_7
REMARK    8  A    between atoms: N_12  and  C_13
REMARK    9  A    between atoms: C_13  and  C_14
REMARK   10  A    between atoms: C_13  and  C_19
REMARK   11  A    between atoms: N_16  and  C_17
REMARK   12  A    between atoms: N_16  and  C_18
REMARK   13  A    between atoms: C_19  and  C_20
REMARK   14  A    between atoms: C_19  and  C_21
REMARK   15  A    between atoms: C_19  and  C_22
REMARK                            x       y       z     vdW  Elec       q    Type
REMARK                         _______ _______ _______ _____ _____    ______ ____
ROOT
ATOM      1  C   UNL     1       6.269   5.286  18.927  0.00  0.00    +0.000 C 
ATOM      2  O   UNL     1       6.370   5.012  20.117  0.00  0.00    +0.000 OA
ATOM      3  N   UNL     1       5.024   5.267  18.286  0.00  0.00    +0.000 N 
ATOM      4  H   UNL     1       4.956   5.452  17.293  0.00  0.00    +0.000 HD
ENDROOT
BRANCH   1   5
ATOM      5  C   UNL     1       7.482   5.654  18.052  0.00  0.00    +0.000 C 
BRANCH   5   7
ATOM      6  C   UNL     1       8.152   8.197  18.040  0.00  0.00    +0.000 C 
ATOM      7  C   UNL     1       7.419   7.053  17.333  0.00  0.00    +0.000 C 
ATOM      8  C   UNL     1       6.007   7.515  16.941  0.00  0.00    +0.000 C 
ENDBRANCH   5   7
BRANCH   5   9
ATOM      9  C   UNL     1       7.708   4.517  17.028  0.00  0.00    +0.000 C 
BRANCH   9  10
ATOM     10  N   UNL     1       6.679   4.458  15.990  0.00  0.00    +0.000 N 
ATOM     11  C   UNL     1       6.948   4.785  14.681  0.00  0.00    +0.000 C 
ATOM     12  O   UNL     1       7.911   5.434  14.293  0.00  0.00    +0.000 OA
BRANCH  10  13
ATOM     13  O   UNL     1       5.803   3.360  16.144  0.00  0.00    +0.000 OA
ATOM     14  H   UNL     1       4.932   3.781  16.010  0.00  0.00    +0.000 HD
ENDBRANCH  10  13
ENDBRANCH   9  10
ENDBRANCH   5   9
ENDBRANCH   1   5
BRANCH   3  15
ATOM     15  C   UNL     1       3.755   5.057  19.018  0.00  0.00    +0.000 C 
BRANCH  15  16
ATOM     16  C   UNL     1       3.220   3.594  18.803  0.00  0.00    +0.000 C 
ATOM     17  O   UNL     1       3.434   2.982  17.753  0.00  0.00    +0.000 OA
ATOM     18  N   UNL     1       2.517   2.961  19.826  0.00  0.00    +0.000 N 
ATOM     19  C   UNL     1       2.385   3.454  21.184  0.00  0.00    +0.000 C 
ATOM     20  C   UNL     1       2.034   1.601  19.606  0.00  0.00    +0.000 C 
ENDBRANCH  15  16
BRANCH  15  21
ATOM     21  C   UNL     1       2.686   6.194  18.727  0.00  0.00    +0.000 C 
ATOM     22  C   UNL     1       1.503   5.571  17.954  0.00  0.00    +0.000 C 
ATOM     23  C   UNL     1       2.122   6.769  20.047  0.00  0.00    +0.000 C 
ATOM     24  C   UNL     1       3.199   7.406  17.919  0.00  0.00    +0.000 C 
ENDBRANCH  15  21
ENDBRANCH   3  15
TORSDOF 8
ENDMDL
MODEL 6
REMARK VINA RESULT:      -6.3      2.286      6.112
REMARK  Name = 
REMARK  15 active torsions:
REMARK  status: ('A' for Active; 'I' for Inactive)
REMARK    1  A    between atoms: C_1  and  C_2
REMARK    2  A    between atoms: C_2  and  C_3
REMARK    3  A    between atoms: C_2  and  C_4
REMARK    4  A    between atoms: C_4  and  C_5
REMARK    5  A    between atoms: C_4  and  C_10
REMARK    6  A    between atoms: C_5  and  N_6
REMARK    7  A    between atoms: N_6  and  O_7
REMARK    8  A    between atoms: N_12  and  C_13
REMARK    9  A    between atoms: C_13  and  C_14
REMARK   10  A    between atoms: C_13  and  C_19
REMARK   11  A    between atoms: N_16  and  C_17
REMARK   12  A    between atoms: N_16  and  C_18
REMARK   13  A    between atoms: C_19  and  C_20
REMARK   14  A    between atoms: C_19  and  C_21
REMARK   15  A    between atoms: C_19  and  C_22
REMARK                            x       y       z     vdW  Elec       q    Type
REMARK                         _______ _______ _______ _____ _____    ______ ____
ROOT
ATOM      1  C   UNL     1       3.836   5.713  19.216  0.00  0.00    +0.000 C 
ATOM      2  O   UNL     1       4.543   5.171  20.059  0.00  0.00    +0.000 OA
ATOM      3  N   UNL     1       4.343   6.039  17.952  0.00  0.00    +0.000 N 
ATOM      4  H   UNL     1       3.764   6.525  17.278  0.00  0.00    +0.000 HD
ENDROOT
BRANCH   1   5
ATOM      5  C   UNL     1       2.365   6.083  19.479  0.00  0.00    +0.000 C 
BRANCH   5   7
ATOM      6  C   UNL     1       1.079   7.802  20.999  0.00  0.00    +0.000 C 
ATOM      7  C   UNL     1       2.087   7.584  19.864  0.00  0.00    +0.000 C 
ATOM      8  C   UNL     1       1.733   8.500  18.684  0.00  0.00    +0.000 C 
ENDBRANCH   5   7
BRANCH   5   9
ATOM      9  C   UNL     1       1.805   5.125  20.556  0.00  0.00    +0.000 C 
BRANCH   9  10
ATOM     10  N   UNL     1       1.712   3.736  20.106  0.00  0.00    +0.000 N 
ATOM     11  C   UNL     1       1.541   2.696  20.990  0.00  0.00    +0.000 C 
ATOM     12  O   UNL     1       1.755   2.743  22.195  0.00  0.00    +0.000 OA
BRANCH  10  13
ATOM     13  O   UNL     1       0.993   3.594  18.899  0.00  0.00    +0.000 OA
ATOM     14  H   UNL     1       0.423   4.387  18.911  0.00  0.00    +0.000 HD
ENDBRANCH  10  13
ENDBRANCH   9  10
ENDBRANCH   5   9
ENDBRANCH   1   5
BRANCH   3  15
ATOM     15  C   UNL     1       5.696   5.634  17.507  0.00  0.00    +0.000 C 
BRANCH  15  16
ATOM     16  C   UNL     1       6.688   6.853  17.551  0.00  0.00    +0.000 C 
ATOM     17  O   UNL     1       6.529   7.834  16.818  0.00  0.00    +0.000 OA
ATOM     18  N   UNL     1       7.749   6.844  18.453  0.00  0.00    +0.000 N 
ATOM     19  C   UNL     1       7.933   5.883  19.525  0.00  0.00    +0.000 C 
ATOM     20  C   UNL     1       8.655   7.990  18.479  0.00  0.00    +0.000 C 
ENDBRANCH  15  16
BRANCH  15  21
ATOM     21  C   UNL     1       5.676   4.855  16.125  0.00  0.00    +0.000 C 
ATOM     22  C   UNL     1       7.092   4.300  15.853  0.00  0.00    +0.000 C 
ATOM     23  C   UNL     1       4.712   3.648  16.187  0.00  0.00    +0.000 C 
ATOM     24  C   UNL     1       5.243   5.682  14.894  0.00  0.00    +0.000 C 
ENDBRANCH  15  21
ENDBRANCH   3  15
TORSDOF 8
ENDMDL
MODEL 7
REMARK VINA RESULT:      -6.3      1.728      3.243
REMARK  Name = 
REMARK  15 active torsions:
REMARK  status: ('A' for Active; 'I' for Inactive)
REMARK    1  A    between atoms: C_1  and  C_2
REMARK    2  A    between atoms: C_2  and  C_3
REMARK    3  A    between atoms: C_2  and  C_4
REMARK    4  A    between atoms: C_4  and  C_5
REMARK    5  A    between atoms: C_4  and  C_10
REMARK    6  A    between atoms: C_5  and  N_6
REMARK    7  A    between atoms: N_6  and  O_7
REMARK    8  A    between atoms: N_12  and  C_13
REMARK    9  A    between atoms: C_13  and  C_14
REMARK   10  A    between atoms: C_13  and  C_19
REMARK   11  A    between atoms: N_16  and  C_17
REMARK   12  A    between atoms: N_16  and  C_18
REMARK   13  A    between atoms: C_19  and  C_20
REMARK   14  A    between atoms: C_19  and  C_21
REMARK   15  A    between atoms: C_19  and  C_22
REMARK                            x       y       z     vdW  Elec       q    Type
REMARK                         _______ _______ _______ _____ _____    ______ ____
ROOT
ATOM      1  C   UNL     1       5.448   4.799  18.117  0.00  0.00    +0.000 C 
ATOM      2  O   UNL     1       5.384   3.967  19.016  0.00  0.00    +0.000 OA
ATOM      3  N   UNL     1       4.344   5.598  17.795  0.00  0.00    +0.000 N 
ATOM      4  H   UNL     1       4.393   6.251  17.023  0.00  0.00    +0.000 HD
ENDROOT
BRANCH   1   5
ATOM      5  C   UNL     1       6.720   5.019  17.277  0.00  0.00    +0.000 C 
BRANCH   5   7
ATOM      6  C   UNL     1       8.035   5.814  19.411  0.00  0.00    +0.000 C 
ATOM      7  C   UNL     1       7.808   5.968  17.903  0.00  0.00    +0.000 C 
ATOM      8  C   UNL     1       7.641   7.456  17.562  0.00  0.00    +0.000 C 
ENDBRANCH   5   7
BRANCH   5   9
ATOM      9  C   UNL     1       6.298   5.514  15.874  0.00  0.00    +0.000 C 
BRANCH   9  10
ATOM     10  N   UNL     1       7.024   4.861  14.785  0.00  0.00    +0.000 N 
ATOM     11  C   UNL     1       6.379   4.118  13.824  0.00  0.00    +0.000 C 
ATOM     12  O   UNL     1       5.247   3.660  13.919  0.00  0.00    +0.000 OA
BRANCH  10  13
ATOM     13  O   UNL     1       8.096   5.639  14.292  0.00  0.00    +0.000 OA
ATOM     14  H   UNL     1       7.907   6.512  14.687  0.00  0.00    +0.000 HD
ENDBRANCH  10  13
ENDBRANCH   9  10
ENDBRANCH   5   9
ENDBRANCH   1   5
BRANCH   3  15
ATOM     15  C   UNL     1       3.097   5.592  18.591  0.00  0.00    +0.000 C 
BRANCH  15  16
ATOM     16  C   UNL     1       2.207   4.348  18.229  0.00  0.00    +0.000 C 
ATOM     17  O   UNL     1       2.157   3.910  17.076  0.00  0.00    +0.000 OA
ATOM     18  N   UNL     1       1.483   3.704  19.231  0.00  0.00    +0.000 N 
ATOM     19  C   UNL     1       1.615   3.952  20.654  0.00  0.00    +0.000 C 
ATOM     20  C   UNL     1       0.667   2.547  18.872  0.00  0.00    +0.000 C 
ENDBRANCH  15  16
BRANCH  15  21
ATOM     21  C   UNL     1       2.331   6.981  18.537  0.00  0.00    +0.000 C 
ATOM     22  C   UNL     1       2.040   7.439  19.984  0.00  0.00    +0.000 C 
ATOM     23  C   UNL     1       3.212   8.069  17.879  0.00  0.00    +0.000 C 
ATOM     24  C   UNL     1       0.998   6.984  17.758  0.00  0.00    +0.000 C 
ENDBRANCH  15  21
ENDBRANCH   3  15
TORSDOF 8
ENDMDL
MODEL 8
REMARK VINA RESULT:      -6.3      1.972      5.873
REMARK  Name = 
REMARK  15 active torsions:
REMARK  status: ('A' for Active; 'I' for Inactive)
REMARK    1  A    between atoms: C_1  and  C_2
REMARK    2  A    between atoms: C_2  and  C_3
REMARK    3  A    between atoms: C_2  and  C_4
REMARK    4  A    between atoms: C_4  and  C_5
REMARK    5  A    between atoms: C_4  and  C_10
REMARK    6  A    between atoms: C_5  and  N_6
REMARK    7  A    between atoms: N_6  and  O_7
REMARK    8  A    between atoms: N_12  and  C_13
REMARK    9  A    between atoms: C_13  and  C_14
REMARK   10  A    between atoms: C_13  and  C_19
REMARK   11  A    between atoms: N_16  and  C_17
REMARK   12  A    between atoms: N_16  and  C_18
REMARK   13  A    between atoms: C_19  and  C_20
REMARK   14  A    between atoms: C_19  and  C_21
REMARK   15  A    between atoms: C_19  and  C_22
REMARK                            x       y       z     vdW  Elec       q    Type
REMARK                         _______ _______ _______ _____ _____    ______ ____
ROOT
ATOM      1  C   UNL     1       4.262   4.238  18.598  0.00  0.00    +0.000 C 
ATOM      2  O   UNL     1       4.998   3.551  19.298  0.00  0.00    +0.000 OA
ATOM      3  N   UNL     1       4.705   4.752  17.373  0.00  0.00    +0.000 N 
ATOM      4  H   UNL     1       4.104   5.354  16.823  0.00  0.00    +0.000 HD
ENDROOT
BRANCH   1   5
ATOM      5  C   UNL     1       2.821   4.595  19.008  0.00  0.00    +0.000 C 
BRANCH   5   7
ATOM      6  C   UNL     1       1.128   2.920  20.124  0.00  0.00    +0.000 C 
ATOM      7  C   UNL     1       1.747   3.458  18.829  0.00  0.00    +0.000 C 
ATOM      8  C   UNL     1       2.193   2.282  17.948  0.00  0.00    +0.000 C 
ENDBRANCH   5   7
BRANCH   5   9
ATOM      9  C   UNL     1       2.400   5.875  18.247  0.00  0.00    +0.000 C 
BRANCH   9  10
ATOM     10  N   UNL     1       2.570   7.098  19.030  0.00  0.00    +0.000 N 
ATOM     11  C   UNL     1       2.334   8.343  18.493  0.00  0.00    +0.000 C 
ATOM     12  O   UNL     1       2.274   8.603  17.298  0.00  0.00    +0.000 OA
BRANCH  10  13
ATOM     13  O   UNL     1       2.153   6.958  20.372  0.00  0.00    +0.000 OA
ATOM     14  H   UNL     1       1.772   7.839  20.555  0.00  0.00    +0.000 HD
ENDBRANCH  10  13
ENDBRANCH   9  10
ENDBRANCH   5   9
ENDBRANCH   1   5
BRANCH   3  15
ATOM     15  C   UNL     1       6.015   4.393  16.787  0.00  0.00    +0.000 C 
BRANCH  15  16
ATOM     16  C   UNL     1       7.193   5.009  17.626  0.00  0.00    +0.000 C 
ATOM     17  O   UNL     1       8.179   4.335  17.937  0.00  0.00    +0.000 OA
ATOM     18  N   UNL     1       7.142   6.350  18.002  0.00  0.00    +0.000 N 
ATOM     19  C   UNL     1       6.175   7.320  17.524  0.00  0.00    +0.000 C 
ATOM     20  C   UNL     1       8.250   6.902  18.777  0.00  0.00    +0.000 C 
ENDBRANCH  15  16
BRANCH  15  21
ATOM     21  C   UNL     1       6.092   4.698  15.231  0.00  0.00    +0.000 C 
ATOM     22  C   UNL     1       5.170   5.898  14.919  0.00  0.00    +0.000 C 
ATOM     23  C   UNL     1       7.527   5.102  14.820  0.00  0.00    +0.000 C 
ATOM     24  C   UNL     1       5.694   3.534  14.298  0.00  0.00    +0.000 C 
ENDBRANCH  15  21
ENDBRANCH   3  15
TORSDOF 8
ENDMDL
MODEL 9
REMARK VINA RESULT:      -6.2      1.022      1.309
REMARK  Name = 
REMARK  15 active torsions:
REMARK  status: ('A' for Active; 'I' for Inactive)
REMARK    1  A    between atoms: C_1  and  C_2
REMARK    2  A    between atoms: C_2  and  C_3
REMARK    3  A    between atoms: C_2  and  C_4
REMARK    4  A    between atoms: C_4  and  C_5
REMARK    5  A    between atoms: C_4  and  C_10
REMARK    6  A    between atoms: C_5  and  N_6
REMARK    7  A    between atoms: N_6  and  O_7
REMARK    8  A    between atoms: N_12  and  C_13
REMARK    9  A    between atoms: C_13  and  C_14
REMARK   10  A    between atoms: C_13  and  C_19
REMARK   11  A    between atoms: N_16  and  C_17
REMARK   12  A    between atoms: N_16  and  C_18
REMARK   13  A    between atoms: C_19  and  C_20
REMARK   14  A    between atoms: C_19  and  C_21
REMARK   15  A    between atoms: C_19  and  C_22
REMARK                            x       y       z     vdW  Elec       q    Type
REMARK                         _______ _______ _______ _____ _____    ______ ____
ROOT
ATOM      1  C   UNL     1       4.830   5.113  18.569  0.00  0.00    +0.000 C 
ATOM      2  O   UNL     1       4.866   5.018  19.790  0.00  0.00    +0.000 OA
ATOM      3  N   UNL     1       3.648   4.863  17.860  0.00  0.00    +0.000 N 
ATOM      4  H   UNL     1       3.640   4.901  16.848  0.00  0.00    +0.000 HD
ENDROOT
BRANCH   1   5
ATOM      5  C   UNL     1       6.064   5.493  17.728  0.00  0.00    +0.000 C 
BRANCH   5   7
ATOM      6  C   UNL     1       7.685   7.550  17.480  0.00  0.00    +0.000 C 
ATOM      7  C   UNL     1       7.083   6.484  18.404  0.00  0.00    +0.000 C 
ATOM      8  C   UNL     1       8.206   5.809  19.205  0.00  0.00    +0.000 C 
ENDBRANCH   5   7
BRANCH   5   9
ATOM      9  C   UNL     1       5.575   6.047  16.369  0.00  0.00    +0.000 C 
BRANCH   9  10
ATOM     10  N   UNL     1       5.704   5.090  15.271  0.00  0.00    +0.000 N 
ATOM     11  C   UNL     1       6.906   4.866  14.640  0.00  0.00    +0.000 C 
ATOM     12  O   UNL     1       7.880   5.608  14.678  0.00  0.00    +0.000 OA
BRANCH  10  13
ATOM     13  O   UNL     1       4.923   3.928  15.458  0.00  0.00    +0.000 OA
ATOM     14  H   UNL     1       5.429   3.264  14.951  0.00  0.00    +0.000 HD
ENDBRANCH  10  13
ENDBRANCH   9  10
ENDBRANCH   5   9
ENDBRANCH   1   5
BRANCH   3  15
ATOM     15  C   UNL     1       2.355   4.611  18.533  0.00  0.00    +0.000 C 
BRANCH  15  16
ATOM     16  C   UNL     1       2.132   5.624  19.715  0.00  0.00    +0.000 C 
ATOM     17  O   UNL     1       2.081   5.239  20.887  0.00  0.00    +0.000 OA
ATOM     18  N   UNL     1       2.020   6.986  19.442  0.00  0.00    +0.000 N 
ATOM     19  C   UNL     1       2.286   7.610  18.160  0.00  0.00    +0.000 C 
ATOM     20  C   UNL     1       1.819   7.908  20.557  0.00  0.00    +0.000 C 
ENDBRANCH  15  16
BRANCH  15  21
ATOM     21  C   UNL     1       2.161   3.087  18.933  0.00  0.00    +0.000 C 
ATOM     22  C   UNL     1       0.648   2.792  19.026  0.00  0.00    +0.000 C 
ATOM     23  C   UNL     1       2.745   2.155  17.845  0.00  0.00    +0.000 C 
ATOM     24  C   UNL     1       2.816   2.653  20.262  0.00  0.00    +0.000 C 
ENDBRANCH  15  21
ENDBRANCH   3  15
TORSDOF 8
ENDMDL
