MODEL 1
REMARK VINA RESULT:      -8.5      0.000      0.000
REMARK  Name = 
REMARK  9 active torsions:
REMARK  status: ('A' for Active; 'I' for Inactive)
REMARK    1  A    between atoms: C_1  and  C_2
REMARK    2  A    between atoms: C_2  and  N_3
REMARK    3  A    between atoms: N_3  and  C_17
REMARK    4  A    between atoms: C_4  and  C_6
REMARK    5  A    between atoms: C_11  and  N_12
REMARK    6  A    between atoms: C_17  and  C_18
REMARK    7  A    between atoms: C_17  and  C_19
REMARK    8  A    between atoms: C_19  and  N_20
REMARK    9  A    between atoms: C_23  and  C_24
REMARK                            x       y       z     vdW  Elec       q    Type
REMARK                         _______ _______ _______ _____ _____    ______ ____
ROOT
ATOM      1  N   UNL     1       3.896   4.864  18.592  0.00  0.00    +0.000 N 
ATOM      2  C   UNL     1       5.152   4.293  18.220  0.00  0.00    +0.000 C 
ATOM      3  O   UNL     1       5.805   3.713  19.090  0.00  0.00    +0.000 OA
ENDROOT
BRANCH   2   4
ATOM      4  C   UNL     1       5.809   4.391  16.826  0.00  0.00    +0.000 A 
ATOM      5  C   UNL     1       5.523   3.484  15.785  0.00  0.00    +0.000 A 
ATOM      6  C   UNL     1       5.985   3.579  14.469  0.00  0.00    +0.000 A 
ATOM      7  C   UNL     1       6.747   4.655  14.102  0.00  0.00    +0.000 A 
ATOM      8  C   UNL     1       7.052   5.605  15.071  0.00  0.00    +0.000 A 
ATOM      9  C   UNL     1       6.621   5.466  16.422  0.00  0.00    +0.000 A 
BRANCH   9  10
ATOM     10  N   UNL     1       7.117   6.461  17.309  0.00  0.00    +0.000 N 
ATOM     11  N   UNL     1       7.218   7.759  16.883  0.00  0.00    +0.000 NA
ATOM     12  C   UNL     1       7.915   8.324  17.865  0.00  0.00    +0.000 A 
ATOM     13  C   UNL     1       8.301   7.353  18.790  0.00  0.00    +0.000 A 
ATOM     14  N   UNL     1       7.859   6.152  18.409  0.00  0.00    +0.000 NA
ENDBRANCH   9  10
ENDBRANCH   2   4
BRANCH   1  16
ATOM     15  C   UNL     1       2.907   3.277  20.267  0.00  0.00    +0.000 C 
ATOM     16  C   UNL     1       3.429   4.685  19.985  0.00  0.00    +0.000 C 
ENDBRANCH   1  16
BRANCH   1  17
ATOM     17  C   UNL     1       3.018   5.729  17.778  0.00  0.00    +0.000 C 
ATOM     18  C   UNL     1       1.534   5.347  18.009  0.00  0.00    +0.000 C 
BRANCH  17  19
ATOM     19  C   UNL     1       3.531   7.189  17.793  0.00  0.00    +0.000 C 
BRANCH  19  20
ATOM     20  N   UNL     1       2.547   8.151  18.192  0.00  0.00    +0.000 N 
ATOM     21  N   UNL     1       1.996   9.036  17.341  0.00  0.00    +0.000 NA
ATOM     22  N   UNL     1       1.153   9.730  18.091  0.00  0.00    +0.000 NA
ATOM     23  C   UNL     1       1.249   9.221  19.366  0.00  0.00    +0.000 A 
ATOM     24  N   UNL     1       2.148   8.230  19.452  0.00  0.00    +0.000 NA
BRANCH  23  25
ATOM     25  C   UNL     1       0.474   9.667  20.503  0.00  0.00    +0.000 A 
ATOM     26  C   UNL     1       0.425   8.935  21.695  0.00  0.00    +0.000 A 
ATOM     27  C   UNL     1      -0.315   9.420  22.775  0.00  0.00    +0.000 A 
ATOM     28  C   UNL     1      -1.002  10.626  22.660  0.00  0.00    +0.000 A 
ATOM     29  F   UNL     1      -1.703  11.088  23.702  0.00  0.00    +0.000 F 
ATOM     30  C   UNL     1      -0.969  11.362  21.484  0.00  0.00    +0.000 A 
ATOM     31  C   UNL     1      -0.232  10.882  20.407  0.00  0.00    +0.000 A 
ENDBRANCH  23  25
ENDBRANCH  19  20
ENDBRANCH  17  19
ENDBRANCH   1  17
TORSDOF 7
ENDMDL
MODEL 2
REMARK VINA RESULT:      -7.8      1.554      2.805
REMARK  Name = 
REMARK  9 active torsions:
REMARK  status: ('A' for Active; 'I' for Inactive)
REMARK    1  A    between atoms: C_1  and  C_2
REMARK    2  A    between atoms: C_2  and  N_3
REMARK    3  A    between atoms: N_3  and  C_17
REMARK    4  A    between atoms: C_4  and  C_6
REMARK    5  A    between atoms: C_11  and  N_12
REMARK    6  A    between atoms: C_17  and  C_18
REMARK    7  A    between atoms: C_17  and  C_19
REMARK    8  A    between atoms: C_19  and  N_20
REMARK    9  A    between atoms: C_23  and  C_24
REMARK                            x       y       z     vdW  Elec       q    Type
REMARK                         _______ _______ _______ _____ _____    ______ ____
ROOT
ATOM      1  N   UNL     1       2.669   4.226  18.386  0.00  0.00    +0.000 N 
ATOM      2  C   UNL     1       3.970   3.779  17.996  0.00  0.00    +0.000 C 
ATOM      3  O   UNL     1       4.068   2.665  17.479  0.00  0.00    +0.000 OA
ENDROOT
BRANCH   2   4
ATOM      4  C   UNL     1       5.291   4.545  18.223  0.00  0.00    +0.000 A 
ATOM      5  C   UNL     1       5.775   4.863  19.509  0.00  0.00    +0.000 A 
ATOM      6  C   UNL     1       7.013   5.446  19.796  0.00  0.00    +0.000 A 
ATOM      7  C   UNL     1       7.884   5.706  18.772  0.00  0.00    +0.000 A 
ATOM      8  C   UNL     1       7.485   5.398  17.475  0.00  0.00    +0.000 A 
ATOM      9  C   UNL     1       6.197   4.856  17.194  0.00  0.00    +0.000 A 
BRANCH   9  10
ATOM     10  N   UNL     1       5.904   4.710  15.810  0.00  0.00    +0.000 N 
ATOM     11  N   UNL     1       6.282   3.568  15.153  0.00  0.00    +0.000 NA
ATOM     12  C   UNL     1       6.060   3.887  13.882  0.00  0.00    +0.000 A 
ATOM     13  C   UNL     1       5.662   5.222  13.792  0.00  0.00    +0.000 A 
ATOM     14  N   UNL     1       5.629   5.776  15.007  0.00  0.00    +0.000 NA
ENDBRANCH   9  10
ENDBRANCH   2   4
BRANCH   1  16
ATOM     15  C   UNL     1       1.247   2.328  19.210  0.00  0.00    +0.000 C 
ATOM     16  C   UNL     1       1.512   3.348  18.103  0.00  0.00    +0.000 C 
ENDBRANCH   1  16
BRANCH   1  17
ATOM     17  C   UNL     1       2.321   5.440  19.154  0.00  0.00    +0.000 C 
ATOM     18  C   UNL     1       2.485   5.173  20.671  0.00  0.00    +0.000 C 
BRANCH  17  19
ATOM     19  C   UNL     1       2.874   6.702  18.449  0.00  0.00    +0.000 C 
BRANCH  19  20
ATOM     20  N   UNL     1       2.116   7.891  18.698  0.00  0.00    +0.000 N 
ATOM     21  N   UNL     1       1.842   8.802  17.746  0.00  0.00    +0.000 NA
ATOM     22  N   UNL     1       1.134   9.730  18.374  0.00  0.00    +0.000 NA
ATOM     23  C   UNL     1       1.025   9.322  19.685  0.00  0.00    +0.000 A 
ATOM     24  N   UNL     1       1.662   8.165  19.912  0.00  0.00    +0.000 NA
BRANCH  23  25
ATOM     25  C   UNL     1       0.300  10.026  20.719  0.00  0.00    +0.000 A 
ATOM     26  C   UNL     1       0.050   9.446  21.969  0.00  0.00    +0.000 A 
ATOM     27  C   UNL     1      -0.630  10.175  22.946  0.00  0.00    +0.000 A 
ATOM     28  C   UNL     1      -1.058  11.472  22.672  0.00  0.00    +0.000 A 
ATOM     29  F   UNL     1      -1.703  12.168  23.617  0.00  0.00    +0.000 F 
ATOM     30  C   UNL     1      -0.824  12.060  21.437  0.00  0.00    +0.000 A 
ATOM     31  C   UNL     1      -0.147  11.337  20.463  0.00  0.00    +0.000 A 
ENDBRANCH  23  25
ENDBRANCH  19  20
ENDBRANCH  17  19
ENDBRANCH   1  17
TORSDOF 7
ENDMDL
MODEL 3
REMARK VINA RESULT:      -7.6      1.943      2.165
REMARK  Name = 
REMARK  9 active torsions:
REMARK  status: ('A' for Active; 'I' for Inactive)
REMARK    1  A    between atoms: C_1  and  C_2
REMARK    2  A    between atoms: C_2  and  N_3
REMARK    3  A    between atoms: N_3  and  C_17
REMARK    4  A    between atoms: C_4  and  C_6
REMARK    5  A    between atoms: C_11  and  N_12
REMARK    6  A    between atoms: C_17  and  C_18
REMARK    7  A    between atoms: C_17  and  C_19
REMARK    8  A    between atoms: C_19  and  N_20
REMARK    9  A    between atoms: C_23  and  C_24
REMARK                            x       y       z     vdW  Elec       q    Type
REMARK                         _______ _______ _______ _____ _____    ______ ____
ROOT
ATOM      1  N   UNL     1       3.718   4.729  19.146  0.00  0.00    +0.000 N 
ATOM      2  C   UNL     1       4.910   4.181  18.578  0.00  0.00    +0.000 C 
ATOM      3  O   UNL     1       5.684   3.581  19.326  0.00  0.00    +0.000 OA
ENDROOT
BRANCH   2   4
ATOM      4  C   UNL     1       5.357   4.327  17.108  0.00  0.00    +0.000 A 
ATOM      5  C   UNL     1       4.866   3.500  16.077  0.00  0.00    +0.000 A 
ATOM      6  C   UNL     1       5.133   3.648  14.712  0.00  0.00    +0.000 A 
ATOM      7  C   UNL     1       5.895   4.704  14.290  0.00  0.00    +0.000 A 
ATOM      8  C   UNL     1       6.397   5.578  15.249  0.00  0.00    +0.000 A 
ATOM      9  C   UNL     1       6.163   5.381  16.641  0.00  0.00    +0.000 A 
BRANCH   9  10
ATOM     10  N   UNL     1       6.843   6.295  17.492  0.00  0.00    +0.000 N 
ATOM     11  N   UNL     1       6.993   7.601  17.104  0.00  0.00    +0.000 NA
ATOM     12  C   UNL     1       7.850   8.067  18.008  0.00  0.00    +0.000 A 
ATOM     13  C   UNL     1       8.271   7.029  18.840  0.00  0.00    +0.000 A 
ATOM     14  N   UNL     1       7.691   5.882  18.475  0.00  0.00    +0.000 NA
ENDBRANCH   9  10
ENDBRANCH   2   4
BRANCH   1  16
ATOM     15  C   UNL     1       2.606   3.264  20.854  0.00  0.00    +0.000 C 
ATOM     16  C   UNL     1       3.458   4.503  20.585  0.00  0.00    +0.000 C 
ENDBRANCH   1  16
BRANCH   1  17
ATOM     17  C   UNL     1       2.728   5.610  18.494  0.00  0.00    +0.000 C 
ATOM     18  C   UNL     1       1.728   4.764  17.666  0.00  0.00    +0.000 C 
BRANCH  17  19
ATOM     19  C   UNL     1       2.289   6.738  19.460  0.00  0.00    +0.000 C 
BRANCH  19  20
ATOM     20  N   UNL     1       2.097   8.009  18.827  0.00  0.00    +0.000 N 
ATOM     21  N   UNL     1       2.600   8.312  17.616  0.00  0.00    +0.000 NA
ATOM     22  N   UNL     1       2.203   9.558  17.399  0.00  0.00    +0.000 NA
ATOM     23  C   UNL     1       1.479   9.939  18.506  0.00  0.00    +0.000 A 
ATOM     24  N   UNL     1       1.420   8.972  19.433  0.00  0.00    +0.000 NA
BRANCH  23  25
ATOM     25  C   UNL     1       0.829  11.219  18.677  0.00  0.00    +0.000 A 
ATOM     26  C   UNL     1      -0.562  11.358  18.589  0.00  0.00    +0.000 A 
ATOM     27  C   UNL     1      -1.146  12.610  18.788  0.00  0.00    +0.000 A 
ATOM     28  C   UNL     1      -0.344  13.713  19.069  0.00  0.00    +0.000 A 
ATOM     29  F   UNL     1      -0.913  14.909  19.267  0.00  0.00    +0.000 F 
ATOM     30  C   UNL     1       1.036  13.595  19.155  0.00  0.00    +0.000 A 
ATOM     31  C   UNL     1       1.620  12.350  18.958  0.00  0.00    +0.000 A 
ENDBRANCH  23  25
ENDBRANCH  19  20
ENDBRANCH  17  19
ENDBRANCH   1  17
TORSDOF 7
ENDMDL
MODEL 4
REMARK VINA RESULT:      -7.6      1.439      1.744
REMARK  Name = 
REMARK  9 active torsions:
REMARK  status: ('A' for Active; 'I' for Inactive)
REMARK    1  A    between atoms: C_1  and  C_2
REMARK    2  A    between atoms: C_2  and  N_3
REMARK    3  A    between atoms: N_3  and  C_17
REMARK    4  A    between atoms: C_4  and  C_6
REMARK    5  A    between atoms: C_11  and  N_12
REMARK    6  A    between atoms: C_17  and  C_18
REMARK    7  A    between atoms: C_17  and  C_19
REMARK    8  A    between atoms: C_19  and  N_20
REMARK    9  A    between atoms: C_23  and  C_24
REMARK                            x       y       z     vdW  Elec       q    Type
REMARK                         _______ _______ _______ _____ _____    ______ ____
ROOT
ATOM      1  N   UNL     1       3.913   4.699  18.558  0.00  0.00    +0.000 N 
ATOM      2  C   UNL     1       5.198   4.206  18.173  0.00  0.00    +0.000 C 
ATOM      3  O   UNL     1       5.892   3.664  19.035  0.00  0.00    +0.000 OA
ENDROOT
BRANCH   2   4
ATOM      4  C   UNL     1       5.835   4.349  16.774  0.00  0.00    +0.000 A 
ATOM      5  C   UNL     1       5.552   3.463  15.715  0.00  0.00    +0.000 A 
ATOM      6  C   UNL     1       5.995   3.597  14.396  0.00  0.00    +0.000 A 
ATOM      7  C   UNL     1       6.733   4.695  14.046  0.00  0.00    +0.000 A 
ATOM      8  C   UNL     1       7.034   5.628  15.034  0.00  0.00    +0.000 A 
ATOM      9  C   UNL     1       6.622   5.448  16.386  0.00  0.00    +0.000 A 
BRANCH   9  10
ATOM     10  N   UNL     1       7.111   6.431  17.291  0.00  0.00    +0.000 N 
ATOM     11  N   UNL     1       7.190   7.740  16.893  0.00  0.00    +0.000 NA
ATOM     12  C   UNL     1       7.887   8.293  17.881  0.00  0.00    +0.000 A 
ATOM     13  C   UNL     1       8.296   7.308  18.780  0.00  0.00    +0.000 A 
ATOM     14  N   UNL     1       7.869   6.109  18.376  0.00  0.00    +0.000 NA
ENDBRANCH   9  10
ENDBRANCH   2   4
BRANCH   1  16
ATOM     15  C   UNL     1       2.938   3.076  20.208  0.00  0.00    +0.000 C 
ATOM     16  C   UNL     1       3.470   4.486  19.955  0.00  0.00    +0.000 C 
ENDBRANCH   1  16
BRANCH   1  17
ATOM     17  C   UNL     1       2.977   5.511  17.755  0.00  0.00    +0.000 C 
ATOM     18  C   UNL     1       1.535   4.962  17.903  0.00  0.00    +0.000 C 
BRANCH  17  19
ATOM     19  C   UNL     1       3.328   7.014  17.872  0.00  0.00    +0.000 C 
BRANCH  19  20
ATOM     20  N   UNL     1       2.465   7.751  18.746  0.00  0.00    +0.000 N 
ATOM     21  N   UNL     1       2.221   7.386  20.018  0.00  0.00    +0.000 NA
ATOM     22  N   UNL     1       1.390   8.314  20.471  0.00  0.00    +0.000 NA
ATOM     23  C   UNL     1       1.176   9.191  19.433  0.00  0.00    +0.000 A 
ATOM     24  N   UNL     1       1.836   8.836  18.321  0.00  0.00    +0.000 NA
BRANCH  23  25
ATOM     25  C   UNL     1       0.353  10.379  19.501  0.00  0.00    +0.000 A 
ATOM     26  C   UNL     1      -0.994  10.367  19.122  0.00  0.00    +0.000 A 
ATOM     27  C   UNL     1      -1.755  11.531  19.232  0.00  0.00    +0.000 A 
ATOM     28  C   UNL     1      -1.170  12.699  19.714  0.00  0.00    +0.000 A 
ATOM     29  F   UNL     1      -1.908  13.811  19.823  0.00  0.00    +0.000 F 
ATOM     30  C   UNL     1       0.166  12.732  20.089  0.00  0.00    +0.000 A 
ATOM     31  C   UNL     1       0.926  11.574  19.981  0.00  0.00    +0.000 A 
ENDBRANCH  23  25
ENDBRANCH  19  20
ENDBRANCH  17  19
ENDBRANCH   1  17
TORSDOF 7
ENDMDL
MODEL 5
REMARK VINA RESULT:      -7.6      1.902      2.229
REMARK  Name = 
REMARK  9 active torsions:
REMARK  status: ('A' for Active; 'I' for Inactive)
REMARK    1  A    between atoms: C_1  and  C_2
REMARK    2  A    between atoms: C_2  and  N_3
REMARK    3  A    between atoms: N_3  and  C_17
REMARK    4  A    between atoms: C_4  and  C_6
REMARK    5  A    between atoms: C_11  and  N_12
REMARK    6  A    between atoms: C_17  and  C_18
REMARK    7  A    between atoms: C_17  and  C_19
REMARK    8  A    between atoms: C_19  and  N_20
REMARK    9  A    between atoms: C_23  and  C_24
REMARK                            x       y       z     vdW  Elec       q    Type
REMARK                         _______ _______ _______ _____ _____    ______ ____
ROOT
ATOM      1  N   UNL     1       3.432   4.425  19.184  0.00  0.00    +0.000 N 
ATOM      2  C   UNL     1       4.625   3.831  18.666  0.00  0.00    +0.000 C 
ATOM      3  O   UNL     1       5.275   3.096  19.411  0.00  0.00    +0.000 OA
ENDROOT
BRANCH   2   4
ATOM      4  C   UNL     1       5.218   4.079  17.263  0.00  0.00    +0.000 A 
ATOM      5  C   UNL     1       4.691   3.484  16.098  0.00  0.00    +0.000 A 
ATOM      6  C   UNL     1       5.099   3.752  14.787  0.00  0.00    +0.000 A 
ATOM      7  C   UNL     1       6.058   4.703  14.566  0.00  0.00    +0.000 A 
ATOM      8  C   UNL     1       6.610   5.350  15.666  0.00  0.00    +0.000 A 
ATOM      9  C   UNL     1       6.224   5.026  16.999  0.00  0.00    +0.000 A 
BRANCH   9  10
ATOM     10  N   UNL     1       6.967   5.694  18.011  0.00  0.00    +0.000 N 
ATOM     11  N   UNL     1       7.363   6.992  17.817  0.00  0.00    +0.000 NA
ATOM     12  C   UNL     1       8.201   7.186  18.831  0.00  0.00    +0.000 A 
ATOM     13  C   UNL     1       8.371   5.995  19.539  0.00  0.00    +0.000 A 
ATOM     14  N   UNL     1       7.645   5.021  18.982  0.00  0.00    +0.000 NA
ENDBRANCH   9  10
ENDBRANCH   2   4
BRANCH   1  16
ATOM     15  C   UNL     1       2.006   2.944  20.625  0.00  0.00    +0.000 C 
ATOM     16  C   UNL     1       3.021   4.085  20.564  0.00  0.00    +0.000 C 
ENDBRANCH   1  16
BRANCH   1  17
ATOM     17  C   UNL     1       2.580   5.449  18.545  0.00  0.00    +0.000 C 
ATOM     18  C   UNL     1       1.480   4.767  17.693  0.00  0.00    +0.000 C 
BRANCH  17  19
ATOM     19  C   UNL     1       2.294   6.606  19.532  0.00  0.00    +0.000 C 
BRANCH  19  20
ATOM     20  N   UNL     1       2.113   7.881  18.903  0.00  0.00    +0.000 N 
ATOM     21  N   UNL     1       2.591   8.172  17.679  0.00  0.00    +0.000 NA
ATOM     22  N   UNL     1       2.216   9.426  17.471  0.00  0.00    +0.000 NA
ATOM     23  C   UNL     1       1.530   9.824  18.597  0.00  0.00    +0.000 A 
ATOM     24  N   UNL     1       1.474   8.859  19.526  0.00  0.00    +0.000 NA
BRANCH  23  25
ATOM     25  C   UNL     1       0.913  11.119  18.783  0.00  0.00    +0.000 A 
ATOM     26  C   UNL     1       1.649  12.306  18.695  0.00  0.00    +0.000 A 
ATOM     27  C   UNL     1       1.005  13.533  18.855  0.00  0.00    +0.000 A 
ATOM     28  C   UNL     1      -0.365  13.571  19.104  0.00  0.00    +0.000 A 
ATOM     29  F   UNL     1      -0.978  14.752  19.249  0.00  0.00    +0.000 F 
ATOM     30  C   UNL     1      -1.110  12.404  19.200  0.00  0.00    +0.000 A 
ATOM     31  C   UNL     1      -0.470  11.180  19.041  0.00  0.00    +0.000 A 
ENDBRANCH  23  25
ENDBRANCH  19  20
ENDBRANCH  17  19
ENDBRANCH   1  17
TORSDOF 7
ENDMDL
MODEL 6
REMARK VINA RESULT:      -7.5      2.318      3.468
REMARK  Name = 
REMARK  9 active torsions:
REMARK  status: ('A' for Active; 'I' for Inactive)
REMARK    1  A    between atoms: C_1  and  C_2
REMARK    2  A    between atoms: C_2  and  N_3
REMARK    3  A    between atoms: N_3  and  C_17
REMARK    4  A    between atoms: C_4  and  C_6
REMARK    5  A    between atoms: C_11  and  N_12
REMARK    6  A    between atoms: C_17  and  C_18
REMARK    7  A    between atoms: C_17  and  C_19
REMARK    8  A    between atoms: C_19  and  N_20
REMARK    9  A    between atoms: C_23  and  C_24
REMARK                            x       y       z     vdW  Elec       q    Type
REMARK                         _______ _______ _______ _____ _____    ______ ____
ROOT
ATOM      1  N   UNL     1       2.647   4.529  18.164  0.00  0.00    +0.000 N 
ATOM      2  C   UNL     1       3.940   3.947  17.988  0.00  0.00    +0.000 C 
ATOM      3  O   UNL     1       4.002   2.753  17.691  0.00  0.00    +0.000 OA
ENDROOT
BRANCH   2   4
ATOM      4  C   UNL     1       5.289   4.669  18.201  0.00  0.00    +0.000 A 
ATOM      5  C   UNL     1       5.772   5.016  19.480  0.00  0.00    +0.000 A 
ATOM      6  C   UNL     1       7.029   5.561  19.758  0.00  0.00    +0.000 A 
ATOM      7  C   UNL     1       7.920   5.746  18.736  0.00  0.00    +0.000 A 
ATOM      8  C   UNL     1       7.523   5.403  17.447  0.00  0.00    +0.000 A 
ATOM      9  C   UNL     1       6.218   4.903  17.172  0.00  0.00    +0.000 A 
BRANCH   9  10
ATOM     10  N   UNL     1       5.934   4.714  15.791  0.00  0.00    +0.000 N 
ATOM     11  N   UNL     1       6.284   3.539  15.180  0.00  0.00    +0.000 NA
ATOM     12  C   UNL     1       6.083   3.818  13.895  0.00  0.00    +0.000 A 
ATOM     13  C   UNL     1       5.726   5.159  13.753  0.00  0.00    +0.000 A 
ATOM     14  N   UNL     1       5.698   5.758  14.947  0.00  0.00    +0.000 NA
ENDBRANCH   9  10
ENDBRANCH   2   4
BRANCH   1  16
ATOM     15  C   UNL     1       0.989   2.946  19.188  0.00  0.00    +0.000 C 
ATOM     16  C   UNL     1       1.458   3.679  17.932  0.00  0.00    +0.000 C 
ENDBRANCH   1  16
BRANCH   1  17
ATOM     17  C   UNL     1       2.323   5.881  18.664  0.00  0.00    +0.000 C 
ATOM     18  C   UNL     1       2.403   5.908  20.211  0.00  0.00    +0.000 C 
BRANCH  17  19
ATOM     19  C   UNL     1       2.967   6.961  17.762  0.00  0.00    +0.000 C 
BRANCH  19  20
ATOM     20  N   UNL     1       2.306   8.231  17.805  0.00  0.00    +0.000 N 
ATOM     21  N   UNL     1       2.944   9.400  17.608  0.00  0.00    +0.000 NA
ATOM     22  N   UNL     1       1.994  10.316  17.730  0.00  0.00    +0.000 NA
ATOM     23  C   UNL     1       0.827   9.638  18.000  0.00  0.00    +0.000 A 
ATOM     24  N   UNL     1       1.012   8.313  18.073  0.00  0.00    +0.000 NA
BRANCH  23  25
ATOM     25  C   UNL     1      -0.471  10.252  18.175  0.00  0.00    +0.000 A 
ATOM     26  C   UNL     1      -0.692  11.251  19.130  0.00  0.00    +0.000 A 
ATOM     27  C   UNL     1      -1.956  11.833  19.243  0.00  0.00    +0.000 A 
ATOM     28  C   UNL     1      -2.990  11.415  18.409  0.00  0.00    +0.000 A 
ATOM     29  F   UNL     1      -4.197  11.983  18.519  0.00  0.00    +0.000 F 
ATOM     30  C   UNL     1      -2.791  10.421  17.461  0.00  0.00    +0.000 A 
ATOM     31  C   UNL     1      -1.533   9.840  17.346  0.00  0.00    +0.000 A 
ENDBRANCH  23  25
ENDBRANCH  19  20
ENDBRANCH  17  19
ENDBRANCH   1  17
TORSDOF 7
ENDMDL
MODEL 7
REMARK VINA RESULT:      -7.3      7.467     10.086
REMARK  Name = 
REMARK  9 active torsions:
REMARK  status: ('A' for Active; 'I' for Inactive)
REMARK    1  A    between atoms: C_1  and  C_2
REMARK    2  A    between atoms: C_2  and  N_3
REMARK    3  A    between atoms: N_3  and  C_17
REMARK    4  A    between atoms: C_4  and  C_6
REMARK    5  A    between atoms: C_11  and  N_12
REMARK    6  A    between atoms: C_17  and  C_18
REMARK    7  A    between atoms: C_17  and  C_19
REMARK    8  A    between atoms: C_19  and  N_20
REMARK    9  A    between atoms: C_23  and  C_24
REMARK                            x       y       z     vdW  Elec       q    Type
REMARK                         _______ _______ _______ _____ _____    ______ ____
ROOT
ATOM      1  N   UNL     1      -2.487  13.794  23.307  0.00  0.00    +0.000 N 
ATOM      2  C   UNL     1      -1.152  13.408  22.972  0.00  0.00    +0.000 C 
ATOM      3  O   UNL     1      -0.261  14.251  23.085  0.00  0.00    +0.000 OA
ENDROOT
BRANCH   2   4
ATOM      4  C   UNL     1      -0.725  12.034  22.413  0.00  0.00    +0.000 A 
ATOM      5  C   UNL     1      -0.884  10.834  23.138  0.00  0.00    +0.000 A 
ATOM      6  C   UNL     1      -0.632   9.547  22.654  0.00  0.00    +0.000 A 
ATOM      7  C   UNL     1      -0.239   9.386  21.353  0.00  0.00    +0.000 A 
ATOM      8  C   UNL     1      -0.082  10.524  20.567  0.00  0.00    +0.000 A 
ATOM      9  C   UNL     1      -0.289  11.833  21.092  0.00  0.00    +0.000 A 
BRANCH   9  10
ATOM     10  N   UNL     1       0.028  12.889  20.192  0.00  0.00    +0.000 N 
ATOM     11  N   UNL     1       1.281  13.442  20.210  0.00  0.00    +0.000 NA
ATOM     12  C   UNL     1       1.129  14.510  19.432  0.00  0.00    +0.000 A 
ATOM     13  C   UNL     1      -0.209  14.634  19.056  0.00  0.00    +0.000 A 
ATOM     14  N   UNL     1      -0.932  13.647  19.593  0.00  0.00    +0.000 NA
ENDBRANCH   9  10
ENDBRANCH   2   4
BRANCH   1  16
ATOM     15  C   UNL     1      -2.637  16.231  22.723  0.00  0.00    +0.000 C 
ATOM     16  C   UNL     1      -2.715  15.165  23.815  0.00  0.00    +0.000 C 
ENDBRANCH   1  16
BRANCH   1  17
ATOM     17  C   UNL     1      -3.729  13.019  23.110  0.00  0.00    +0.000 C 
ATOM     18  C   UNL     1      -4.174  12.380  24.449  0.00  0.00    +0.000 C 
BRANCH  17  19
ATOM     19  C   UNL     1      -4.696  13.778  22.169  0.00  0.00    +0.000 C 
BRANCH  19  20
ATOM     20  N   UNL     1      -4.992  13.085  20.950  0.00  0.00    +0.000 N 
ATOM     21  N   UNL     1      -6.247  12.839  20.529  0.00  0.00    +0.000 NA
ATOM     22  N   UNL     1      -6.087  12.190  19.385  0.00  0.00    +0.000 NA
ATOM     23  C   UNL     1      -4.730  12.076  19.184  0.00  0.00    +0.000 A 
ATOM     24  N   UNL     1      -4.020  12.621  20.181  0.00  0.00    +0.000 NA
BRANCH  23  25
ATOM     25  C   UNL     1      -4.108  11.461  18.032  0.00  0.00    +0.000 A 
ATOM     26  C   UNL     1      -4.739  11.426  16.783  0.00  0.00    +0.000 A 
ATOM     27  C   UNL     1      -4.087  10.845  15.694  0.00  0.00    +0.000 A 
ATOM     28  C   UNL     1      -2.815  10.301  15.857  0.00  0.00    +0.000 A 
ATOM     29  F   UNL     1      -2.193   9.752  14.806  0.00  0.00    +0.000 F 
ATOM     30  C   UNL     1      -2.177  10.322  17.089  0.00  0.00    +0.000 A 
ATOM     31  C   UNL     1      -2.824  10.899  18.174  0.00  0.00    +0.000 A 
ENDBRANCH  23  25
ENDBRANCH  19  20
ENDBRANCH  17  19
ENDBRANCH   1  17
TORSDOF 7
ENDMDL
MODEL 8
REMARK VINA RESULT:      -7.2      4.477      9.824
REMARK  Name = 
REMARK  9 active torsions:
REMARK  status: ('A' for Active; 'I' for Inactive)
REMARK    1  A    between atoms: C_1  and  C_2
REMARK    2  A    between atoms: C_2  and  N_3
REMARK    3  A    between atoms: N_3  and  C_17
REMARK    4  A    between atoms: C_4  and  C_6
REMARK    5  A    between atoms: C_11  and  N_12
REMARK    6  A    between atoms: C_17  and  C_18
REMARK    7  A    between atoms: C_17  and  C_19
REMARK    8  A    between atoms: C_19  and  N_20
REMARK    9  A    between atoms: C_23  and  C_24
REMARK                            x       y       z     vdW  Elec       q    Type
REMARK                         _______ _______ _______ _____ _____    ______ ____
ROOT
ATOM      1  N   UNL     1       0.809  12.209  19.258  0.00  0.00    +0.000 N 
ATOM      2  C   UNL     1      -0.324  12.917  18.751  0.00  0.00    +0.000 C 
ATOM      3  O   UNL     1      -0.216  14.132  18.574  0.00  0.00    +0.000 OA
ENDROOT
BRANCH   2   4
ATOM      4  C   UNL     1      -1.713  12.306  18.461  0.00  0.00    +0.000 A 
ATOM      5  C   UNL     1      -1.984  11.551  17.302  0.00  0.00    +0.000 A 
ATOM      6  C   UNL     1      -3.176  10.871  17.030  0.00  0.00    +0.000 A 
ATOM      7  C   UNL     1      -4.176  10.873  17.965  0.00  0.00    +0.000 A 
ATOM      8  C   UNL     1      -3.971  11.578  19.146  0.00  0.00    +0.000 A 
ATOM      9  C   UNL     1      -2.774  12.313  19.384  0.00  0.00    +0.000 A 
BRANCH   9  10
ATOM     10  N   UNL     1      -2.773  13.073  20.586  0.00  0.00    +0.000 N 
ATOM     11  N   UNL     1      -2.972  12.443  21.787  0.00  0.00    +0.000 NA
ATOM     12  C   UNL     1      -3.136  13.468  22.619  0.00  0.00    +0.000 A 
ATOM     13  C   UNL     1      -3.139  14.665  21.900  0.00  0.00    +0.000 A 
ATOM     14  N   UNL     1      -2.980  14.419  20.597  0.00  0.00    +0.000 NA
ENDBRANCH   9  10
ENDBRANCH   2   4
BRANCH   1  16
ATOM     15  C   UNL     1       2.915  13.119  18.237  0.00  0.00    +0.000 C 
ATOM     16  C   UNL     1       2.060  12.964  19.495  0.00  0.00    +0.000 C 
ENDBRANCH   1  16
BRANCH   1  17
ATOM     17  C   UNL     1       0.875  10.799  19.694  0.00  0.00    +0.000 C 
ATOM     18  C   UNL     1      -0.026  10.584  20.936  0.00  0.00    +0.000 C 
BRANCH  17  19
ATOM     19  C   UNL     1       0.869   9.854  18.468  0.00  0.00    +0.000 C 
BRANCH  19  20
ATOM     20  N   UNL     1       1.667   8.675  18.633  0.00  0.00    +0.000 N 
ATOM     21  N   UNL     1       1.793   8.031  19.808  0.00  0.00    +0.000 NA
ATOM     22  N   UNL     1       2.599   7.014  19.539  0.00  0.00    +0.000 NA
ATOM     23  C   UNL     1       2.920   7.109  18.203  0.00  0.00    +0.000 A 
ATOM     24  N   UNL     1       2.352   8.173  17.617  0.00  0.00    +0.000 NA
BRANCH  23  25
ATOM     25  C   UNL     1       3.756   6.177  17.479  0.00  0.00    +0.000 A 
ATOM     26  C   UNL     1       4.790   6.612  16.641  0.00  0.00    +0.000 A 
ATOM     27  C   UNL     1       5.588   5.674  15.983  0.00  0.00    +0.000 A 
ATOM     28  C   UNL     1       5.349   4.314  16.161  0.00  0.00    +0.000 A 
ATOM     29  F   UNL     1       6.124   3.420  15.533  0.00  0.00    +0.000 F 
ATOM     30  C   UNL     1       4.325   3.865  16.983  0.00  0.00    +0.000 A 
ATOM     31  C   UNL     1       3.529   4.796  17.639  0.00  0.00    +0.000 A 
ENDBRANCH  23  25
ENDBRANCH  19  20
ENDBRANCH  17  19
ENDBRANCH   1  17
TORSDOF 7
ENDMDL
MODEL 9
REMARK VINA RESULT:      -7.1      3.359      7.196
REMARK  Name = 
REMARK  9 active torsions:
REMARK  status: ('A' for Active; 'I' for Inactive)
REMARK    1  A    between atoms: C_1  and  C_2
REMARK    2  A    between atoms: C_2  and  N_3
REMARK    3  A    between atoms: N_3  and  C_17
REMARK    4  A    between atoms: C_4  and  C_6
REMARK    5  A    between atoms: C_11  and  N_12
REMARK    6  A    between atoms: C_17  and  C_18
REMARK    7  A    between atoms: C_17  and  C_19
REMARK    8  A    between atoms: C_19  and  N_20
REMARK    9  A    between atoms: C_23  and  C_24
REMARK                            x       y       z     vdW  Elec       q    Type
REMARK                         _______ _______ _______ _____ _____    ______ ____
ROOT
ATOM      1  N   UNL     1       5.205   4.957  17.360  0.00  0.00    +0.000 N 
ATOM      2  C   UNL     1       3.909   4.377  17.516  0.00  0.00    +0.000 C 
ATOM      3  O   UNL     1       3.297   4.045  16.499  0.00  0.00    +0.000 OA
ENDROOT
BRANCH   2   4
ATOM      4  C   UNL     1       3.163   4.184  18.854  0.00  0.00    +0.000 A 
ATOM      5  C   UNL     1       3.083   2.936  19.507  0.00  0.00    +0.000 A 
ATOM      6  C   UNL     1       2.531   2.710  20.771  0.00  0.00    +0.000 A 
ATOM      7  C   UNL     1       2.057   3.771  21.495  0.00  0.00    +0.000 A 
ATOM      8  C   UNL     1       2.124   5.038  20.925  0.00  0.00    +0.000 A 
ATOM      9  C   UNL     1       2.638   5.245  19.612  0.00  0.00    +0.000 A 
BRANCH   9  10
ATOM     10  N   UNL     1       2.527   6.580  19.135  0.00  0.00    +0.000 N 
ATOM     11  N   UNL     1       2.066   7.563  19.971  0.00  0.00    +0.000 NA
ATOM     12  C   UNL     1       1.883   8.582  19.135  0.00  0.00    +0.000 A 
ATOM     13  C   UNL     1       2.130   8.168  17.825  0.00  0.00    +0.000 A 
ATOM     14  N   UNL     1       2.471   6.877  17.807  0.00  0.00    +0.000 NA
ENDBRANCH   9  10
ENDBRANCH   2   4
BRANCH   1  16
ATOM     15  C   UNL     1       6.204   3.743  15.402  0.00  0.00    +0.000 C 
ATOM     16  C   UNL     1       5.759   5.080  15.992  0.00  0.00    +0.000 C 
ENDBRANCH   1  16
BRANCH   1  17
ATOM     17  C   UNL     1       6.056   5.567  18.402  0.00  0.00    +0.000 C 
ATOM     18  C   UNL     1       5.929   4.771  19.725  0.00  0.00    +0.000 C 
BRANCH  17  19
ATOM     19  C   UNL     1       7.413   6.007  17.803  0.00  0.00    +0.000 C 
BRANCH  19  20
ATOM     20  N   UNL     1       7.616   7.425  17.789  0.00  0.00    +0.000 N 
ATOM     21  N   UNL     1       6.861   8.270  17.062  0.00  0.00    +0.000 NA
ATOM     22  N   UNL     1       7.365   9.467  17.323  0.00  0.00    +0.000 NA
ATOM     23  C   UNL     1       8.409   9.272  18.199  0.00  0.00    +0.000 A 
ATOM     24  N   UNL     1       8.596   7.977  18.489  0.00  0.00    +0.000 NA
BRANCH  23  25
ATOM     25  C   UNL     1       9.222  10.322  18.774  0.00  0.00    +0.000 A 
ATOM     26  C   UNL     1      10.019  11.155  17.981  0.00  0.00    +0.000 A 
ATOM     27  C   UNL     1      10.765  12.172  18.578  0.00  0.00    +0.000 A 
ATOM     28  C   UNL     1      10.716  12.350  19.958  0.00  0.00    +0.000 A 
ATOM     29  F   UNL     1      11.428  13.333  20.524  0.00  0.00    +0.000 F 
ATOM     30  C   UNL     1       9.935  11.530  20.761  0.00  0.00    +0.000 A 
ATOM     31  C   UNL     1       9.191  10.516  20.169  0.00  0.00    +0.000 A 
ENDBRANCH  23  25
ENDBRANCH  19  20
ENDBRANCH  17  19
ENDBRANCH   1  17
TORSDOF 7
ENDMDL
