MODEL 1
REMARK VINA RESULT:      -8.0      0.000      0.000
REMARK  Name = 
REMARK  12 active torsions:
REMARK  status: ('A' for Active; 'I' for Inactive)
REMARK    1  A    between atoms: C_1  and  C_2
REMARK    2  A    between atoms: C_2  and  C_3
REMARK    3  A    between atoms: C_2  and  C_4
REMARK    4  A    between atoms: C_2  and  C_5
REMARK    5  A    between atoms: C_8  and  C_9
REMARK    6  A    between atoms: C_10  and  C_11
REMARK    7  A    between atoms: N_13  and  C_14
REMARK    8  A    between atoms: C_16  and  C_17
REMARK    9  A    between atoms: C_17  and  O_18
REMARK   10  A    between atoms: C_19  and  O_20
REMARK   11  A    between atoms: C_21  and  O_22
REMARK   12  A    between atoms: C_23  and  O_24
REMARK                            x       y       z     vdW  Elec       q    Type
REMARK                         _______ _______ _______ _____ _____    ______ ____
ROOT
ATOM      1  C   UNL     1       7.218   7.268  17.216  0.00  0.00    +0.000 C 
ATOM      2  O   UNL     1       7.806   6.543  16.431  0.00  0.00    +0.000 OA
ATOM      3  N   UNL     1       6.039   6.938  17.842  0.00  0.00    +0.000 N 
ATOM      4  H   UNL     1       5.591   7.587  18.469  0.00  0.00    +0.000 HD
ENDROOT
BRANCH   3   5
ATOM      5  C   UNL     1       5.374   5.669  17.681  0.00  0.00    +0.000 C 
ATOM      6  O   UNL     1       3.991   5.969  17.881  0.00  0.00    +0.000 OA
ATOM      7  C   UNL     1       3.138   4.827  17.689  0.00  0.00    +0.000 C 
ATOM      8  C   UNL     1       3.471   3.715  18.695  0.00  0.00    +0.000 C 
ATOM      9  C   UNL     1       4.961   3.352  18.590  0.00  0.00    +0.000 C 
ATOM     10  C   UNL     1       5.849   4.606  18.707  0.00  0.00    +0.000 C 
BRANCH   8  11
ATOM     11  O   UNL     1       2.642   2.573  18.451  0.00  0.00    +0.000 OA
ATOM     12  H   UNL     1       1.740   2.870  18.241  0.00  0.00    +0.000 HD
ENDBRANCH   8  11
BRANCH   9  13
ATOM     13  O   UNL     1       5.295   2.372  19.580  0.00  0.00    +0.000 OA
ATOM     14  H   UNL     1       5.353   2.812  20.446  0.00  0.00    +0.000 HD
ENDBRANCH   9  13
BRANCH  10  15
ATOM     15  O   UNL     1       7.223   4.242  18.547  0.00  0.00    +0.000 OA
ATOM     16  H   UNL     1       7.680   4.340  19.401  0.00  0.00    +0.000 HD
ENDBRANCH  10  15
BRANCH   7  17
ATOM     17  C   UNL     1       1.672   5.276  17.816  0.00  0.00    +0.000 C 
BRANCH  17  18
ATOM     18  O   UNL     1       0.780   4.311  17.261  0.00  0.00    +0.000 OA
ATOM     19  H   UNL     1       0.972   4.278  16.307  0.00  0.00    +0.000 HD
ENDBRANCH  17  18
ENDBRANCH   7  17
ENDBRANCH   3   5
BRANCH   1  21
ATOM     20  C   UNL     1       8.611   8.889  18.513  0.00  0.00    +0.000 C 
ATOM     21  C   UNL     1       7.678   8.641  17.579  0.00  0.00    +0.000 C 
BRANCH  20  25
ATOM     22  C   UNL     1       9.957  12.907  19.480  0.00  0.00    +0.000 A 
ATOM     23  C   UNL     1       9.332  12.606  18.256  0.00  0.00    +0.000 A 
ATOM     24  C   UNL     1       8.882  11.306  17.958  0.00  0.00    +0.000 A 
ATOM     25  C   UNL     1       9.053  10.256  18.865  0.00  0.00    +0.000 A 
ATOM     26  C   UNL     1       9.628  10.558  20.104  0.00  0.00    +0.000 A 
ATOM     27  C   UNL     1      10.077  11.853  20.402  0.00  0.00    +0.000 A 
BRANCH  22  29
ATOM     28  C   UNL     1      12.038  14.432  19.566  0.00  0.00    +0.000 C 
ATOM     29  C   UNL     1      10.520  14.300  19.822  0.00  0.00    +0.000 C 
ATOM     30  C   UNL     1      10.272  14.596  21.319  0.00  0.00    +0.000 C 
ATOM     31  C   UNL     1       9.823  15.391  18.981  0.00  0.00    +0.000 C 
ENDBRANCH  22  29
ENDBRANCH  20  25
ENDBRANCH   1  21
TORSDOF 9
ENDMDL
MODEL 2
REMARK VINA RESULT:      -7.8      0.869      1.524
REMARK  Name = 
REMARK  12 active torsions:
REMARK  status: ('A' for Active; 'I' for Inactive)
REMARK    1  A    between atoms: C_1  and  C_2
REMARK    2  A    between atoms: C_2  and  C_3
REMARK    3  A    between atoms: C_2  and  C_4
REMARK    4  A    between atoms: C_2  and  C_5
REMARK    5  A    between atoms: C_8  and  C_9
REMARK    6  A    between atoms: C_10  and  C_11
REMARK    7  A    between atoms: N_13  and  C_14
REMARK    8  A    between atoms: C_16  and  C_17
REMARK    9  A    between atoms: C_17  and  O_18
REMARK   10  A    between atoms: C_19  and  O_20
REMARK   11  A    between atoms: C_21  and  O_22
REMARK   12  A    between atoms: C_23  and  O_24
REMARK                            x       y       z     vdW  Elec       q    Type
REMARK                         _______ _______ _______ _____ _____    ______ ____
ROOT
ATOM      1  C   UNL     1       7.079   7.117  17.264  0.00  0.00    +0.000 C 
ATOM      2  O   UNL     1       7.476   6.331  16.421  0.00  0.00    +0.000 OA
ATOM      3  N   UNL     1       5.974   6.912  18.056  0.00  0.00    +0.000 N 
ATOM      4  H   UNL     1       5.686   7.608  18.725  0.00  0.00    +0.000 HD
ENDROOT
BRANCH   3   5
ATOM      5  C   UNL     1       5.171   5.716  18.017  0.00  0.00    +0.000 C 
ATOM      6  O   UNL     1       3.933   6.103  18.619  0.00  0.00    +0.000 OA
ATOM      7  C   UNL     1       2.954   5.050  18.610  0.00  0.00    +0.000 C 
ATOM      8  C   UNL     1       3.444   3.836  19.415  0.00  0.00    +0.000 C 
ATOM      9  C   UNL     1       4.804   3.371  18.871  0.00  0.00    +0.000 C 
ATOM     10  C   UNL     1       5.807   4.538  18.804  0.00  0.00    +0.000 C 
BRANCH   8  11
ATOM     11  O   UNL     1       2.474   2.785  19.351  0.00  0.00    +0.000 OA
ATOM     12  H   UNL     1       2.905   1.970  19.040  0.00  0.00    +0.000 HD
ENDBRANCH   8  11
BRANCH   9  13
ATOM     13  O   UNL     1       5.304   2.289  19.667  0.00  0.00    +0.000 OA
ATOM     14  H   UNL     1       4.727   1.516  19.539  0.00  0.00    +0.000 HD
ENDBRANCH   9  13
BRANCH  10  15
ATOM     15  O   UNL     1       7.041   4.086  18.240  0.00  0.00    +0.000 OA
ATOM     16  H   UNL     1       7.735   4.119  18.923  0.00  0.00    +0.000 HD
ENDBRANCH  10  15
BRANCH   7  17
ATOM     17  C   UNL     1       1.632   5.598  19.173  0.00  0.00    +0.000 C 
BRANCH  17  18
ATOM     18  O   UNL     1       1.366   5.083  20.477  0.00  0.00    +0.000 OA
ATOM     19  H   UNL     1       1.900   4.274  20.565  0.00  0.00    +0.000 HD
ENDBRANCH  17  18
ENDBRANCH   7  17
ENDBRANCH   3   5
BRANCH   1  21
ATOM     20  C   UNL     1       8.484   8.693  18.604  0.00  0.00    +0.000 C 
ATOM     21  C   UNL     1       7.719   8.440  17.530  0.00  0.00    +0.000 C 
BRANCH  20  25
ATOM     22  C   UNL     1      10.251  12.585  19.389  0.00  0.00    +0.000 A 
ATOM     23  C   UNL     1       9.922  11.695  20.428  0.00  0.00    +0.000 A 
ATOM     24  C   UNL     1       9.367  10.427  20.164  0.00  0.00    +0.000 A 
ATOM     25  C   UNL     1       9.108  10.011  18.856  0.00  0.00    +0.000 A 
ATOM     26  C   UNL     1       9.480  10.870  17.816  0.00  0.00    +0.000 A 
ATOM     27  C   UNL     1      10.032  12.133  18.077  0.00  0.00    +0.000 A 
BRANCH  22  29
ATOM     28  C   UNL     1      10.509  14.542  21.054  0.00  0.00    +0.000 C 
ATOM     29  C   UNL     1      10.801  14.003  19.635  0.00  0.00    +0.000 C 
ATOM     30  C   UNL     1      10.159  14.981  18.624  0.00  0.00    +0.000 C 
ATOM     31  C   UNL     1      12.333  14.034  19.446  0.00  0.00    +0.000 C 
ENDBRANCH  22  29
ENDBRANCH  20  25
ENDBRANCH   1  21
TORSDOF 9
ENDMDL
MODEL 3
REMARK VINA RESULT:      -7.8      5.510      8.294
REMARK  Name = 
REMARK  12 active torsions:
REMARK  status: ('A' for Active; 'I' for Inactive)
REMARK    1  A    between atoms: C_1  and  C_2
REMARK    2  A    between atoms: C_2  and  C_3
REMARK    3  A    between atoms: C_2  and  C_4
REMARK    4  A    between atoms: C_2  and  C_5
REMARK    5  A    between atoms: C_8  and  C_9
REMARK    6  A    between atoms: C_10  and  C_11
REMARK    7  A    between atoms: N_13  and  C_14
REMARK    8  A    between atoms: C_16  and  C_17
REMARK    9  A    between atoms: C_17  and  O_18
REMARK   10  A    between atoms: C_19  and  O_20
REMARK   11  A    between atoms: C_21  and  O_22
REMARK   12  A    between atoms: C_23  and  O_24
REMARK                            x       y       z     vdW  Elec       q    Type
REMARK                         _______ _______ _______ _____ _____    ______ ____
ROOT
ATOM      1  C   UNL     1       1.927   5.759  20.553  0.00  0.00    +0.000 C 
ATOM      2  O   UNL     1       1.656   4.599  20.808  0.00  0.00    +0.000 OA
ATOM      3  N   UNL     1       3.042   6.161  19.856  0.00  0.00    +0.000 N 
ATOM      4  H   UNL     1       3.219   7.139  19.690  0.00  0.00    +0.000 HD
ENDROOT
BRANCH   3   5
ATOM      5  C   UNL     1       4.011   5.250  19.301  0.00  0.00    +0.000 C 
ATOM      6  O   UNL     1       5.267   5.893  19.525  0.00  0.00    +0.000 OA
ATOM      7  C   UNL     1       6.387   5.096  19.098  0.00  0.00    +0.000 C 
ATOM      8  C   UNL     1       6.325   4.824  17.587  0.00  0.00    +0.000 C 
ATOM      9  C   UNL     1       4.978   4.171  17.235  0.00  0.00    +0.000 C 
ATOM     10  C   UNL     1       3.799   4.996  17.783  0.00  0.00    +0.000 C 
BRANCH   8  11
ATOM     11  O   UNL     1       7.421   3.990  17.197  0.00  0.00    +0.000 OA
ATOM     12  H   UNL     1       8.228   4.289  17.650  0.00  0.00    +0.000 HD
ENDBRANCH   8  11
BRANCH   9  13
ATOM     13  O   UNL     1       4.881   3.987  15.818  0.00  0.00    +0.000 OA
ATOM     14  H   UNL     1       5.191   4.797  15.377  0.00  0.00    +0.000 HD
ENDBRANCH   9  13
BRANCH  10  15
ATOM     15  O   UNL     1       2.565   4.333  17.490  0.00  0.00    +0.000 OA
ATOM     16  H   UNL     1       1.883   5.000  17.296  0.00  0.00    +0.000 HD
ENDBRANCH  10  15
BRANCH   7  17
ATOM     17  C   UNL     1       7.687   5.822  19.483  0.00  0.00    +0.000 C 
BRANCH  17  18
ATOM     18  O   UNL     1       8.205   5.344  20.722  0.00  0.00    +0.000 OA
ATOM     19  H   UNL     1       7.773   5.866  21.420  0.00  0.00    +0.000 HD
ENDBRANCH  17  18
ENDBRANCH   7  17
ENDBRANCH   3   5
BRANCH   1  21
ATOM     20  C   UNL     1       1.514   8.196  20.940  0.00  0.00    +0.000 C 
ATOM     21  C   UNL     1       1.098   6.919  20.997  0.00  0.00    +0.000 C 
BRANCH  20  25
ATOM     22  C   UNL     1      -0.992  11.488  22.270  0.00  0.00    +0.000 A 
ATOM     23  C   UNL     1      -0.778  10.348  23.066  0.00  0.00    +0.000 A 
ATOM     24  C   UNL     1       0.051   9.293  22.636  0.00  0.00    +0.000 A 
ATOM     25  C   UNL     1       0.683   9.333  21.390  0.00  0.00    +0.000 A 
ATOM     26  C   UNL     1       0.514  10.486  20.614  0.00  0.00    +0.000 A 
ATOM     27  C   UNL     1      -0.311  11.536  21.042  0.00  0.00    +0.000 A 
BRANCH  22  29
ATOM     28  C   UNL     1      -1.229  13.792  23.409  0.00  0.00    +0.000 C 
ATOM     29  C   UNL     1      -1.939  12.634  22.674  0.00  0.00    +0.000 C 
ATOM     30  C   UNL     1      -3.032  12.082  23.618  0.00  0.00    +0.000 C 
ATOM     31  C   UNL     1      -2.624  13.240  21.429  0.00  0.00    +0.000 C 
ENDBRANCH  22  29
ENDBRANCH  20  25
ENDBRANCH   1  21
TORSDOF 9
ENDMDL
MODEL 4
REMARK VINA RESULT:      -7.5      0.594      1.135
REMARK  Name = 
REMARK  12 active torsions:
REMARK  status: ('A' for Active; 'I' for Inactive)
REMARK    1  A    between atoms: C_1  and  C_2
REMARK    2  A    between atoms: C_2  and  C_3
REMARK    3  A    between atoms: C_2  and  C_4
REMARK    4  A    between atoms: C_2  and  C_5
REMARK    5  A    between atoms: C_8  and  C_9
REMARK    6  A    between atoms: C_10  and  C_11
REMARK    7  A    between atoms: N_13  and  C_14
REMARK    8  A    between atoms: C_16  and  C_17
REMARK    9  A    between atoms: C_17  and  O_18
REMARK   10  A    between atoms: C_19  and  O_20
REMARK   11  A    between atoms: C_21  and  O_22
REMARK   12  A    between atoms: C_23  and  O_24
REMARK                            x       y       z     vdW  Elec       q    Type
REMARK                         _______ _______ _______ _____ _____    ______ ____
ROOT
ATOM      1  C   UNL     1       7.354   7.273  17.193  0.00  0.00    +0.000 C 
ATOM      2  O   UNL     1       7.865   6.495  16.405  0.00  0.00    +0.000 OA
ATOM      3  N   UNL     1       6.179   7.036  17.866  0.00  0.00    +0.000 N 
ATOM      4  H   UNL     1       5.798   7.726  18.493  0.00  0.00    +0.000 HD
ENDROOT
BRANCH   3   5
ATOM      5  C   UNL     1       5.425   5.812  17.756  0.00  0.00    +0.000 C 
ATOM      6  O   UNL     1       4.080   6.200  18.044  0.00  0.00    +0.000 OA
ATOM      7  C   UNL     1       3.145   5.115  17.914  0.00  0.00    +0.000 C 
ATOM      8  C   UNL     1       3.472   3.986  18.903  0.00  0.00    +0.000 C 
ATOM      9  C   UNL     1       4.926   3.528  18.703  0.00  0.00    +0.000 C 
ATOM     10  C   UNL     1       5.897   4.722  18.756  0.00  0.00    +0.000 C 
BRANCH   8  11
ATOM     11  O   UNL     1       2.558   2.898  18.720  0.00  0.00    +0.000 OA
ATOM     12  H   UNL     1       2.012   2.801  19.519  0.00  0.00    +0.000 HD
ENDBRANCH   8  11
BRANCH   9  13
ATOM     13  O   UNL     1       5.261   2.530  19.675  0.00  0.00    +0.000 OA
ATOM     14  H   UNL     1       5.773   1.828  19.236  0.00  0.00    +0.000 HD
ENDBRANCH   9  13
BRANCH  10  15
ATOM     15  O   UNL     1       7.233   4.272  18.509  0.00  0.00    +0.000 OA
ATOM     16  H   UNL     1       7.499   3.660  19.218  0.00  0.00    +0.000 HD
ENDBRANCH  10  15
BRANCH   7  17
ATOM     17  C   UNL     1       1.723   5.657  18.133  0.00  0.00    +0.000 C 
BRANCH  17  18
ATOM     18  O   UNL     1       1.732   7.062  18.383  0.00  0.00    +0.000 OA
ATOM     19  H   UNL     1       1.171   7.465  17.698  0.00  0.00    +0.000 HD
ENDBRANCH  17  18
ENDBRANCH   7  17
ENDBRANCH   3   5
BRANCH   1  21
ATOM     20  C   UNL     1       8.620   8.888  18.624  0.00  0.00    +0.000 C 
ATOM     21  C   UNL     1       7.918   8.619  17.510  0.00  0.00    +0.000 C 
BRANCH  20  25
ATOM     22  C   UNL     1      10.167  12.839  19.563  0.00  0.00    +0.000 A 
ATOM     23  C   UNL     1       9.967  11.863  20.556  0.00  0.00    +0.000 A 
ATOM     24  C   UNL     1       9.483  10.578  20.241  0.00  0.00    +0.000 A 
ATOM     25  C   UNL     1       9.167  10.228  18.925  0.00  0.00    +0.000 A 
ATOM     26  C   UNL     1       9.412  11.177  17.926  0.00  0.00    +0.000 A 
ATOM     27  C   UNL     1       9.893  12.456  18.239  0.00  0.00    +0.000 A 
BRANCH  22  29
ATOM     28  C   UNL     1      12.139  14.504  19.609  0.00  0.00    +0.000 C 
ATOM     29  C   UNL     1      10.634  14.274  19.871  0.00  0.00    +0.000 C 
ATOM     30  C   UNL     1      10.367  14.588  21.361  0.00  0.00    +0.000 C 
ATOM     31  C   UNL     1       9.863  15.296  19.007  0.00  0.00    +0.000 C 
ENDBRANCH  22  29
ENDBRANCH  20  25
ENDBRANCH   1  21
TORSDOF 9
ENDMDL
MODEL 5
REMARK VINA RESULT:      -7.5      5.297      8.196
REMARK  Name = 
REMARK  12 active torsions:
REMARK  status: ('A' for Active; 'I' for Inactive)
REMARK    1  A    between atoms: C_1  and  C_2
REMARK    2  A    between atoms: C_2  and  C_3
REMARK    3  A    between atoms: C_2  and  C_4
REMARK    4  A    between atoms: C_2  and  C_5
REMARK    5  A    between atoms: C_8  and  C_9
REMARK    6  A    between atoms: C_10  and  C_11
REMARK    7  A    between atoms: N_13  and  C_14
REMARK    8  A    between atoms: C_16  and  C_17
REMARK    9  A    between atoms: C_17  and  O_18
REMARK   10  A    between atoms: C_19  and  O_20
REMARK   11  A    between atoms: C_21  and  O_22
REMARK   12  A    between atoms: C_23  and  O_24
REMARK                            x       y       z     vdW  Elec       q    Type
REMARK                         _______ _______ _______ _____ _____    ______ ____
ROOT
ATOM      1  C   UNL     1       2.207   5.639  20.390  0.00  0.00    +0.000 C 
ATOM      2  O   UNL     1       2.050   4.487  20.760  0.00  0.00    +0.000 OA
ATOM      3  N   UNL     1       3.251   6.065  19.604  0.00  0.00    +0.000 N 
ATOM      4  H   UNL     1       3.336   7.034  19.344  0.00  0.00    +0.000 HD
ENDROOT
BRANCH   3   5
ATOM      5  C   UNL     1       4.269   5.189  19.079  0.00  0.00    +0.000 C 
ATOM      6  O   UNL     1       5.498   5.841  19.407  0.00  0.00    +0.000 OA
ATOM      7  C   UNL     1       6.655   5.077  19.025  0.00  0.00    +0.000 C 
ATOM      8  C   UNL     1       6.694   4.860  17.504  0.00  0.00    +0.000 C 
ATOM      9  C   UNL     1       5.384   4.201  17.043  0.00  0.00    +0.000 C 
ATOM     10  C   UNL     1       4.158   4.989  17.544  0.00  0.00    +0.000 C 
BRANCH   8  11
ATOM     11  O   UNL     1       7.827   4.058  17.155  0.00  0.00    +0.000 OA
ATOM     12  H   UNL     1       8.180   3.635  17.957  0.00  0.00    +0.000 HD
ENDBRANCH   8  11
BRANCH   9  13
ATOM     13  O   UNL     1       5.381   4.068  15.616  0.00  0.00    +0.000 OA
ATOM     14  H   UNL     1       6.277   4.252  15.285  0.00  0.00    +0.000 HD
ENDBRANCH   9  13
BRANCH  10  15
ATOM     15  O   UNL     1       2.958   4.319  17.148  0.00  0.00    +0.000 OA
ATOM     16  H   UNL     1       2.496   3.996  17.942  0.00  0.00    +0.000 HD
ENDBRANCH  10  15
BRANCH   7  17
ATOM     17  C   UNL     1       7.916   5.808  19.518  0.00  0.00    +0.000 C 
BRANCH  17  18
ATOM     18  O   UNL     1       8.349   5.307  20.781  0.00  0.00    +0.000 OA
ATOM     19  H   UNL     1       7.991   4.405  20.855  0.00  0.00    +0.000 HD
ENDBRANCH  17  18
ENDBRANCH   7  17
ENDBRANCH   3   5
BRANCH   1  21
ATOM     20  C   UNL     1       1.626   8.059  20.634  0.00  0.00    +0.000 C 
ATOM     21  C   UNL     1       1.303   6.763  20.776  0.00  0.00    +0.000 C 
BRANCH  20  25
ATOM     22  C   UNL     1      -0.993  11.348  21.734  0.00  0.00    +0.000 A 
ATOM     23  C   UNL     1      -0.860  10.916  20.401  0.00  0.00    +0.000 A 
ATOM     24  C   UNL     1      -0.024   9.837  20.055  0.00  0.00    +0.000 A 
ATOM     25  C   UNL     1       0.721   9.161  21.026  0.00  0.00    +0.000 A 
ATOM     26  C   UNL     1       0.555   9.552  22.359  0.00  0.00    +0.000 A 
ATOM     27  C   UNL     1      -0.277  10.627  22.704  0.00  0.00    +0.000 A 
BRANCH  22  29
ATOM     28  C   UNL     1      -3.044  12.195  23.052  0.00  0.00    +0.000 C 
ATOM     29  C   UNL     1      -1.847  12.562  22.147  0.00  0.00    +0.000 C 
ATOM     30  C   UNL     1      -2.413  13.241  20.879  0.00  0.00    +0.000 C 
ATOM     31  C   UNL     1      -0.994  13.591  22.919  0.00  0.00    +0.000 C 
ENDBRANCH  22  29
ENDBRANCH  20  25
ENDBRANCH   1  21
TORSDOF 9
ENDMDL
MODEL 6
REMARK VINA RESULT:      -7.5      1.634      2.231
REMARK  Name = 
REMARK  12 active torsions:
REMARK  status: ('A' for Active; 'I' for Inactive)
REMARK    1  A    between atoms: C_1  and  C_2
REMARK    2  A    between atoms: C_2  and  C_3
REMARK    3  A    between atoms: C_2  and  C_4
REMARK    4  A    between atoms: C_2  and  C_5
REMARK    5  A    between atoms: C_8  and  C_9
REMARK    6  A    between atoms: C_10  and  C_11
REMARK    7  A    between atoms: N_13  and  C_14
REMARK    8  A    between atoms: C_16  and  C_17
REMARK    9  A    between atoms: C_17  and  O_18
REMARK   10  A    between atoms: C_19  and  O_20
REMARK   11  A    between atoms: C_21  and  O_22
REMARK   12  A    between atoms: C_23  and  O_24
REMARK                            x       y       z     vdW  Elec       q    Type
REMARK                         _______ _______ _______ _____ _____    ______ ____
ROOT
ATOM      1  C   UNL     1       7.571   7.712  17.656  0.00  0.00    +0.000 C 
ATOM      2  O   UNL     1       7.986   6.766  18.303  0.00  0.00    +0.000 OA
ATOM      3  N   UNL     1       6.438   7.682  16.877  0.00  0.00    +0.000 N 
ATOM      4  H   UNL     1       6.155   8.493  16.351  0.00  0.00    +0.000 HD
ENDROOT
BRANCH   3   5
ATOM      5  C   UNL     1       5.574   6.534  16.764  0.00  0.00    +0.000 C 
ATOM      6  O   UNL     1       5.151   6.279  18.105  0.00  0.00    +0.000 OA
ATOM      7  C   UNL     1       4.209   5.195  18.198  0.00  0.00    +0.000 C 
ATOM      8  C   UNL     1       4.832   3.881  17.703  0.00  0.00    +0.000 C 
ATOM      9  C   UNL     1       5.364   4.068  16.273  0.00  0.00    +0.000 C 
ATOM     10  C   UNL     1       6.298   5.290  16.182  0.00  0.00    +0.000 C 
BRANCH   8  11
ATOM     11  O   UNL     1       3.861   2.830  17.759  0.00  0.00    +0.000 OA
ATOM     12  H   UNL     1       2.971   3.210  17.659  0.00  0.00    +0.000 HD
ENDBRANCH   8  11
BRANCH   9  13
ATOM     13  O   UNL     1       6.016   2.870  15.834  0.00  0.00    +0.000 OA
ATOM     14  H   UNL     1       6.951   3.072  15.656  0.00  0.00    +0.000 HD
ENDBRANCH   9  13
BRANCH  10  15
ATOM     15  O   UNL     1       6.729   5.471  14.830  0.00  0.00    +0.000 OA
ATOM     16  H   UNL     1       7.437   4.831  14.633  0.00  0.00    +0.000 HD
ENDBRANCH  10  15
BRANCH   7  17
ATOM     17  C   UNL     1       3.735   5.075  19.656  0.00  0.00    +0.000 C 
BRANCH  17  18
ATOM     18  O   UNL     1       3.060   6.257  20.085  0.00  0.00    +0.000 OA
ATOM     19  H   UNL     1       3.592   7.006  19.765  0.00  0.00    +0.000 HD
ENDBRANCH  17  18
ENDBRANCH   7  17
ENDBRANCH   3   5
BRANCH   1  21
ATOM     20  C   UNL     1       8.745   9.677  18.664  0.00  0.00    +0.000 C 
ATOM     21  C   UNL     1       8.260   9.034  17.588  0.00  0.00    +0.000 C 
BRANCH  20  25
ATOM     22  C   UNL     1      10.733  13.538  18.501  0.00  0.00    +0.000 A 
ATOM     23  C   UNL     1      11.294  12.440  19.179  0.00  0.00    +0.000 A 
ATOM     24  C   UNL     1      10.653  11.186  19.211  0.00  0.00    +0.000 A 
ATOM     25  C   UNL     1       9.421  10.989  18.581  0.00  0.00    +0.000 A 
ATOM     26  C   UNL     1       8.882  12.062  17.862  0.00  0.00    +0.000 A 
ATOM     27  C   UNL     1       9.520  13.311  17.830  0.00  0.00    +0.000 A 
BRANCH  22  29
ATOM     28  C   UNL     1      12.330  15.177  17.306  0.00  0.00    +0.000 C 
ATOM     29  C   UNL     1      11.370  14.941  18.493  0.00  0.00    +0.000 C 
ATOM     30  C   UNL     1      12.180  15.139  19.795  0.00  0.00    +0.000 C 
ATOM     31  C   UNL     1      10.281  16.033  18.419  0.00  0.00    +0.000 C 
ENDBRANCH  22  29
ENDBRANCH  20  25
ENDBRANCH   1  21
TORSDOF 9
ENDMDL
MODEL 7
REMARK VINA RESULT:      -7.4      1.225      1.501
REMARK  Name = 
REMARK  12 active torsions:
REMARK  status: ('A' for Active; 'I' for Inactive)
REMARK    1  A    between atoms: C_1  and  C_2
REMARK    2  A    between atoms: C_2  and  C_3
REMARK    3  A    between atoms: C_2  and  C_4
REMARK    4  A    between atoms: C_2  and  C_5
REMARK    5  A    between atoms: C_8  and  C_9
REMARK    6  A    between atoms: C_10  and  C_11
REMARK    7  A    between atoms: N_13  and  C_14
REMARK    8  A    between atoms: C_16  and  C_17
REMARK    9  A    between atoms: C_17  and  O_18
REMARK   10  A    between atoms: C_19  and  O_20
REMARK   11  A    between atoms: C_21  and  O_22
REMARK   12  A    between atoms: C_23  and  O_24
REMARK                            x       y       z     vdW  Elec       q    Type
REMARK                         _______ _______ _______ _____ _____    ______ ____
ROOT
ATOM      1  C   UNL     1       6.345   7.020  17.340  0.00  0.00    +0.000 C 
ATOM      2  O   UNL     1       6.513   6.337  16.344  0.00  0.00    +0.000 OA
ATOM      3  N   UNL     1       5.498   6.692  18.373  0.00  0.00    +0.000 N 
ATOM      4  H   UNL     1       5.390   7.307  19.163  0.00  0.00    +0.000 HD
ENDROOT
BRANCH   3   5
ATOM      5  C   UNL     1       4.735   5.470  18.425  0.00  0.00    +0.000 C 
ATOM      6  O   UNL     1       3.644   5.774  19.296  0.00  0.00    +0.000 OA
ATOM      7  C   UNL     1       2.711   4.686  19.425  0.00  0.00    +0.000 C 
ATOM      8  C   UNL     1       3.390   3.447  20.028  0.00  0.00    +0.000 C 
ATOM      9  C   UNL     1       4.616   3.066  19.182  0.00  0.00    +0.000 C 
ATOM     10  C   UNL     1       5.552   4.273  18.982  0.00  0.00    +0.000 C 
BRANCH   8  11
ATOM     11  O   UNL     1       2.455   2.365  20.100  0.00  0.00    +0.000 OA
ATOM     12  H   UNL     1       1.702   2.629  20.656  0.00  0.00    +0.000 HD
ENDBRANCH   8  11
BRANCH   9  13
ATOM     13  O   UNL     1       5.299   1.960  19.783  0.00  0.00    +0.000 OA
ATOM     14  H   UNL     1       5.295   2.080  20.749  0.00  0.00    +0.000 HD
ENDBRANCH   9  13
BRANCH  10  15
ATOM     15  O   UNL     1       6.650   3.901  18.144  0.00  0.00    +0.000 OA
ATOM     16  H   UNL     1       7.323   4.604  18.170  0.00  0.00    +0.000 HD
ENDBRANCH  10  15
BRANCH   7  17
ATOM     17  C   UNL     1       1.525   5.150  20.287  0.00  0.00    +0.000 C 
BRANCH  17  18
ATOM     18  O   UNL     1       0.458   4.204  20.259  0.00  0.00    +0.000 OA
ATOM     19  H   UNL     1      -0.366   4.720  20.308  0.00  0.00    +0.000 HD
ENDBRANCH  17  18
ENDBRANCH   7  17
ENDBRANCH   3   5
BRANCH   1  21
ATOM     20  C   UNL     1       8.130   8.494  18.287  0.00  0.00    +0.000 C 
ATOM     21  C   UNL     1       7.010   8.338  17.561  0.00  0.00    +0.000 C 
BRANCH  20  25
ATOM     22  C   UNL     1      10.058  12.349  18.841  0.00  0.00    +0.000 A 
ATOM     23  C   UNL     1       9.193  12.098  17.761  0.00  0.00    +0.000 A 
ATOM     24  C   UNL     1       8.557  10.852  17.598  0.00  0.00    +0.000 A 
ATOM     25  C   UNL     1       8.774   9.808  18.501  0.00  0.00    +0.000 A 
ATOM     26  C   UNL     1       9.594  10.066  19.606  0.00  0.00    +0.000 A 
ATOM     27  C   UNL     1      10.228  11.306  19.768  0.00  0.00    +0.000 A 
BRANCH  22  29
ATOM     28  C   UNL     1      10.318  14.808  18.102  0.00  0.00    +0.000 C 
ATOM     29  C   UNL     1      10.822  13.674  19.022  0.00  0.00    +0.000 C 
ATOM     30  C   UNL     1      12.318  13.447  18.705  0.00  0.00    +0.000 C 
ATOM     31  C   UNL     1      10.698  14.181  20.475  0.00  0.00    +0.000 C 
ENDBRANCH  22  29
ENDBRANCH  20  25
ENDBRANCH   1  21
TORSDOF 9
ENDMDL
MODEL 8
REMARK VINA RESULT:      -7.3      1.596      1.950
REMARK  Name = 
REMARK  12 active torsions:
REMARK  status: ('A' for Active; 'I' for Inactive)
REMARK    1  A    between atoms: C_1  and  C_2
REMARK    2  A    between atoms: C_2  and  C_3
REMARK    3  A    between atoms: C_2  and  C_4
REMARK    4  A    between atoms: C_2  and  C_5
REMARK    5  A    between atoms: C_8  and  C_9
REMARK    6  A    between atoms: C_10  and  C_11
REMARK    7  A    between atoms: N_13  and  C_14
REMARK    8  A    between atoms: C_16  and  C_17
REMARK    9  A    between atoms: C_17  and  O_18
REMARK   10  A    between atoms: C_19  and  O_20
REMARK   11  A    between atoms: C_21  and  O_22
REMARK   12  A    between atoms: C_23  and  O_24
REMARK                            x       y       z     vdW  Elec       q    Type
REMARK                         _______ _______ _______ _____ _____    ______ ____
ROOT
ATOM      1  C   UNL     1       5.439   6.722  17.209  0.00  0.00    +0.000 C 
ATOM      2  O   UNL     1       5.478   6.388  16.037  0.00  0.00    +0.000 OA
ATOM      3  N   UNL     1       4.654   6.119  18.162  0.00  0.00    +0.000 N 
ATOM      4  H   UNL     1       4.653   6.452  19.113  0.00  0.00    +0.000 HD
ENDROOT
BRANCH   3   5
ATOM      5  C   UNL     1       3.808   4.981  17.900  0.00  0.00    +0.000 C 
ATOM      6  O   UNL     1       2.852   5.001  18.963  0.00  0.00    +0.000 OA
ATOM      7  C   UNL     1       1.858   3.968  18.840  0.00  0.00    +0.000 C 
ATOM      8  C   UNL     1       2.504   2.575  18.891  0.00  0.00    +0.000 C 
ATOM      9  C   UNL     1       3.589   2.469  17.807  0.00  0.00    +0.000 C 
ATOM     10  C   UNL     1       4.588   3.638  17.904  0.00  0.00    +0.000 C 
BRANCH   8  11
ATOM     11  O   UNL     1       1.502   1.567  18.718  0.00  0.00    +0.000 OA
ATOM     12  H   UNL     1       1.058   1.407  19.568  0.00  0.00    +0.000 HD
ENDBRANCH   8  11
BRANCH   9  13
ATOM     13  O   UNL     1       4.249   1.201  17.900  0.00  0.00    +0.000 OA
ATOM     14  H   UNL     1       5.210   1.352  17.946  0.00  0.00    +0.000 HD
ENDBRANCH   9  13
BRANCH  10  15
ATOM     15  O   UNL     1       5.549   3.543  16.848  0.00  0.00    +0.000 OA
ATOM     16  H   UNL     1       6.283   4.157  17.029  0.00  0.00    +0.000 HD
ENDBRANCH  10  15
BRANCH   7  17
ATOM     17  C   UNL     1       0.820   4.145  19.961  0.00  0.00    +0.000 C 
BRANCH  17  18
ATOM     18  O   UNL     1       0.857   3.057  20.883  0.00  0.00    +0.000 OA
ATOM     19  H   UNL     1       0.489   3.394  21.718  0.00  0.00    +0.000 HD
ENDBRANCH  17  18
ENDBRANCH   7  17
ENDBRANCH   3   5
BRANCH   1  21
ATOM     20  C   UNL     1       7.505   8.106  17.477  0.00  0.00    +0.000 C 
ATOM     21  C   UNL     1       6.216   7.868  17.769  0.00  0.00    +0.000 C 
BRANCH  20  25
ATOM     22  C   UNL     1       9.771  11.453  19.072  0.00  0.00    +0.000 A 
ATOM     23  C   UNL     1       8.997  11.569  17.903  0.00  0.00    +0.000 A 
ATOM     24  C   UNL     1       8.251  10.485  17.402  0.00  0.00    +0.000 A 
ATOM     25  C   UNL     1       8.262   9.243  18.044  0.00  0.00    +0.000 A 
ATOM     26  C   UNL     1       8.989   9.135  19.235  0.00  0.00    +0.000 A 
ATOM     27  C   UNL     1       9.733  10.214  19.734  0.00  0.00    +0.000 A 
BRANCH  22  29
ATOM     28  C   UNL     1      12.138  12.207  19.775  0.00  0.00    +0.000 C 
ATOM     29  C   UNL     1      10.651  12.594  19.619  0.00  0.00    +0.000 C 
ATOM     30  C   UNL     1      10.130  13.015  21.012  0.00  0.00    +0.000 C 
ATOM     31  C   UNL     1      10.598  13.820  18.682  0.00  0.00    +0.000 C 
ENDBRANCH  22  29
ENDBRANCH  20  25
ENDBRANCH   1  21
TORSDOF 9
ENDMDL
MODEL 9
REMARK VINA RESULT:      -7.3      1.628      2.241
REMARK  Name = 
REMARK  12 active torsions:
REMARK  status: ('A' for Active; 'I' for Inactive)
REMARK    1  A    between atoms: C_1  and  C_2
REMARK    2  A    between atoms: C_2  and  C_3
REMARK    3  A    between atoms: C_2  and  C_4
REMARK    4  A    between atoms: C_2  and  C_5
REMARK    5  A    between atoms: C_8  and  C_9
REMARK    6  A    between atoms: C_10  and  C_11
REMARK    7  A    between atoms: N_13  and  C_14
REMARK    8  A    between atoms: C_16  and  C_17
REMARK    9  A    between atoms: C_17  and  O_18
REMARK   10  A    between atoms: C_19  and  O_20
REMARK   11  A    between atoms: C_21  and  O_22
REMARK   12  A    between atoms: C_23  and  O_24
REMARK                            x       y       z     vdW  Elec       q    Type
REMARK                         _______ _______ _______ _____ _____    ______ ____
ROOT
ATOM      1  C   UNL     1       7.760   7.448  18.033  0.00  0.00    +0.000 C 
ATOM      2  O   UNL     1       7.993   6.424  18.652  0.00  0.00    +0.000 OA
ATOM      3  N   UNL     1       6.769   7.576  17.089  0.00  0.00    +0.000 N 
ATOM      4  H   UNL     1       6.636   8.446  16.599  0.00  0.00    +0.000 HD
ENDROOT
BRANCH   3   5
ATOM      5  C   UNL     1       5.849   6.521  16.746  0.00  0.00    +0.000 C 
ATOM      6  O   UNL     1       5.143   6.259  17.961  0.00  0.00    +0.000 OA
ATOM      7  C   UNL     1       4.112   5.268  17.806  0.00  0.00    +0.000 C 
ATOM      8  C   UNL     1       4.706   3.919  17.374  0.00  0.00    +0.000 C 
ATOM      9  C   UNL     1       5.532   4.105  16.091  0.00  0.00    +0.000 C 
ATOM     10  C   UNL     1       6.566   5.234  16.253  0.00  0.00    +0.000 C 
BRANCH   8  11
ATOM     11  O   UNL     1       3.657   2.964  17.180  0.00  0.00    +0.000 OA
ATOM     12  H   UNL     1       3.553   2.434  17.989  0.00  0.00    +0.000 HD
ENDBRANCH   8  11
BRANCH   9  13
ATOM     13  O   UNL     1       6.153   2.866  15.727  0.00  0.00    +0.000 OA
ATOM     14  H   UNL     1       6.196   2.814  14.756  0.00  0.00    +0.000 HD
ENDBRANCH   9  13
BRANCH  10  15
ATOM     15  O   UNL     1       7.277   5.421  15.025  0.00  0.00    +0.000 OA
ATOM     16  H   UNL     1       6.641   5.635  14.319  0.00  0.00    +0.000 HD
ENDBRANCH  10  15
BRANCH   7  17
ATOM     17  C   UNL     1       3.343   5.142  19.132  0.00  0.00    +0.000 C 
BRANCH  17  18
ATOM     18  O   UNL     1       3.622   3.903  19.782  0.00  0.00    +0.000 OA
ATOM     19  H   UNL     1       3.058   3.877  20.574  0.00  0.00    +0.000 HD
ENDBRANCH  17  18
ENDBRANCH   7  17
ENDBRANCH   3   5
BRANCH   1  21
ATOM     20  C   UNL     1       8.103   9.916  17.812  0.00  0.00    +0.000 C 
ATOM     21  C   UNL     1       8.550   8.706  18.188  0.00  0.00    +0.000 C 
BRANCH  20  25
ATOM     22  C   UNL     1      10.453  13.532  18.347  0.00  0.00    +0.000 A 
ATOM     23  C   UNL     1      10.960  12.260  18.672  0.00  0.00    +0.000 A 
ATOM     24  C   UNL     1      10.199  11.091  18.478  0.00  0.00    +0.000 A 
ATOM     25  C   UNL     1       8.900  11.152  17.967  0.00  0.00    +0.000 A 
ATOM     26  C   UNL     1       8.408  12.408  17.594  0.00  0.00    +0.000 A 
ATOM     27  C   UNL     1       9.165  13.573  17.787  0.00  0.00    +0.000 A 
BRANCH  22  29
ATOM     28  C   UNL     1      12.333  14.705  19.671  0.00  0.00    +0.000 C 
ATOM     29  C   UNL     1      11.227  14.840  18.601  0.00  0.00    +0.000 C 
ATOM     30  C   UNL     1      10.241  15.929  19.084  0.00  0.00    +0.000 C 
ATOM     31  C   UNL     1      11.907  15.331  17.306  0.00  0.00    +0.000 C 
ENDBRANCH  22  29
ENDBRANCH  20  25
ENDBRANCH   1  21
TORSDOF 9
ENDMDL
