MODEL 1
REMARK VINA RESULT:      -7.1      0.000      0.000
REMARK  Name = 
REMARK  5 active torsions:
REMARK  status: ('A' for Active; 'I' for Inactive)
REMARK    1  A    between atoms: C_1  and  C_2
REMARK    2  A    between atoms: C_2  and  C_3
REMARK    3  A    between atoms: C_2  and  C_4
REMARK    4  A    between atoms: C_4  and  N_5
REMARK    5  A    between atoms: N_8  and  C_9
REMARK                            x       y       z     vdW  Elec       q    Type
REMARK                         _______ _______ _______ _____ _____    ______ ____
ROOT
ATOM      1  N   UNL     1       5.092   5.573  17.844  0.00  0.00    +0.000 N 
ATOM      2  C   UNL     1       4.301   6.598  17.330  0.00  0.00    +0.000 A 
ATOM      3  O   UNL     1       4.460   7.031  16.181  0.00  0.00    +0.000 OA
ATOM      4  N   UNL     1       3.346   7.119  18.180  0.00  0.00    +0.000 N 
ATOM      5  C   UNL     1       2.783   8.412  17.864  0.00  0.00    +0.000 C 
ATOM      6  C   UNL     1       2.701   6.356  19.144  0.00  0.00    +0.000 A 
ATOM      7  O   UNL     1       1.689   6.751  19.714  0.00  0.00    +0.000 OA
ATOM      8  C   UNL     1       3.282   5.030  19.408  0.00  0.00    +0.000 A 
ATOM      9  C   UNL     1       2.623   4.118  20.259  0.00  0.00    +0.000 A 
ATOM     10  N   UNL     1       1.424   4.196  20.945  0.00  0.00    +0.000 NA
ATOM     11  C   UNL     1       1.279   3.051  21.563  0.00  0.00    +0.000 A 
ATOM     12  N   UNL     1       2.331   2.218  21.320  0.00  0.00    +0.000 N 
ATOM     13  C   UNL     1       3.207   2.876  20.491  0.00  0.00    +0.000 A 
ATOM     14  C   UNL     1       4.424   2.493  19.935  0.00  0.00    +0.000 A 
ATOM     15  C   UNL     1       5.060   3.418  19.090  0.00  0.00    +0.000 A 
ATOM     16  C   UNL     1       4.508   4.676  18.801  0.00  0.00    +0.000 A 
ATOM     17  H   UNL     1       2.439   1.283  21.682  0.00  0.00    +0.000 HD
ENDROOT
BRANCH   1  18
ATOM     18  C   UNL     1       6.375   5.299  17.159  0.00  0.00    +0.000 C 
BRANCH  18  20
ATOM     19  C   UNL     1       7.562   7.509  17.561  0.00  0.00    +0.000 C 
ATOM     20  C   UNL     1       7.610   6.001  17.808  0.00  0.00    +0.000 C 
ATOM     21  C   UNL     1       7.702   5.767  19.327  0.00  0.00    +0.000 C 
ENDBRANCH  18  20
ENDBRANCH   1  18
TORSDOF 2
ENDMDL
MODEL 2
REMARK VINA RESULT:      -7.1      2.513      3.462
REMARK  Name = 
REMARK  5 active torsions:
REMARK  status: ('A' for Active; 'I' for Inactive)
REMARK    1  A    between atoms: C_1  and  C_2
REMARK    2  A    between atoms: C_2  and  C_3
REMARK    3  A    between atoms: C_2  and  C_4
REMARK    4  A    between atoms: C_4  and  N_5
REMARK    5  A    between atoms: N_8  and  C_9
REMARK                            x       y       z     vdW  Elec       q    Type
REMARK                         _______ _______ _______ _____ _____    ______ ____
ROOT
ATOM      1  N   UNL     1       5.376   4.921  16.239  0.00  0.00    +0.000 N 
ATOM      2  C   UNL     1       6.198   5.868  16.846  0.00  0.00    +0.000 A 
ATOM      3  O   UNL     1       6.528   6.913  16.268  0.00  0.00    +0.000 OA
ATOM      4  N   UNL     1       6.643   5.567  18.118  0.00  0.00    +0.000 N 
ATOM      5  C   UNL     1       7.787   6.288  18.629  0.00  0.00    +0.000 C 
ATOM      6  C   UNL     1       5.892   4.830  19.022  0.00  0.00    +0.000 A 
ATOM      7  O   UNL     1       6.175   4.783  20.215  0.00  0.00    +0.000 OA
ATOM      8  C   UNL     1       4.714   4.143  18.469  0.00  0.00    +0.000 A 
ATOM      9  C   UNL     1       3.802   3.488  19.324  0.00  0.00    +0.000 A 
ATOM     10  N   UNL     1       3.756   3.360  20.700  0.00  0.00    +0.000 NA
ATOM     11  C   UNL     1       2.674   2.673  20.969  0.00  0.00    +0.000 A 
ATOM     12  N   UNL     1       2.003   2.337  19.830  0.00  0.00    +0.000 N 
ATOM     13  C   UNL     1       2.703   2.843  18.763  0.00  0.00    +0.000 A 
ATOM     14  C   UNL     1       2.467   2.797  17.392  0.00  0.00    +0.000 A 
ATOM     15  C   UNL     1       3.389   3.457  16.562  0.00  0.00    +0.000 A 
ATOM     16  C   UNL     1       4.503   4.144  17.072  0.00  0.00    +0.000 A 
ATOM     17  H   UNL     1       1.141   1.814  19.787  0.00  0.00    +0.000 HD
ENDROOT
BRANCH   1  18
ATOM     18  C   UNL     1       5.245   4.983  14.767  0.00  0.00    +0.000 C 
BRANCH  18  20
ATOM     19  C   UNL     1       5.650   3.467  12.769  0.00  0.00    +0.000 C 
ATOM     20  C   UNL     1       6.291   4.119  13.993  0.00  0.00    +0.000 C 
ATOM     21  C   UNL     1       7.507   4.936  13.520  0.00  0.00    +0.000 C 
ENDBRANCH  18  20
ENDBRANCH   1  18
TORSDOF 2
ENDMDL
MODEL 3
REMARK VINA RESULT:      -6.9      1.756      4.916
REMARK  Name = 
REMARK  5 active torsions:
REMARK  status: ('A' for Active; 'I' for Inactive)
REMARK    1  A    between atoms: C_1  and  C_2
REMARK    2  A    between atoms: C_2  and  C_3
REMARK    3  A    between atoms: C_2  and  C_4
REMARK    4  A    between atoms: C_4  and  N_5
REMARK    5  A    between atoms: N_8  and  C_9
REMARK                            x       y       z     vdW  Elec       q    Type
REMARK                         _______ _______ _______ _____ _____    ______ ____
ROOT
ATOM      1  N   UNL     1       2.643   5.849  19.803  0.00  0.00    +0.000 N 
ATOM      2  C   UNL     1       2.263   7.174  19.599  0.00  0.00    +0.000 A 
ATOM      3  O   UNL     1       1.759   7.854  20.503  0.00  0.00    +0.000 OA
ATOM      4  N   UNL     1       2.460   7.678  18.330  0.00  0.00    +0.000 N 
ATOM      5  C   UNL     1       1.740   8.873  17.950  0.00  0.00    +0.000 C 
ATOM      6  C   UNL     1       3.507   7.274  17.513  0.00  0.00    +0.000 A 
ATOM      7  O   UNL     1       3.823   7.898  16.506  0.00  0.00    +0.000 OA
ATOM      8  C   UNL     1       4.239   6.076  17.955  0.00  0.00    +0.000 A 
ATOM      9  C   UNL     1       5.409   5.665  17.281  0.00  0.00    +0.000 A 
ATOM     10  N   UNL     1       6.096   6.208  16.211  0.00  0.00    +0.000 NA
ATOM     11  C   UNL     1       7.135   5.435  16.011  0.00  0.00    +0.000 A 
ATOM     12  N   UNL     1       7.164   4.402  16.901  0.00  0.00    +0.000 N 
ATOM     13  C   UNL     1       6.071   4.523  17.724  0.00  0.00    +0.000 A 
ATOM     14  C   UNL     1       5.624   3.752  18.793  0.00  0.00    +0.000 A 
ATOM     15  C   UNL     1       4.458   4.183  19.448  0.00  0.00    +0.000 A 
ATOM     16  C   UNL     1       3.761   5.339  19.062  0.00  0.00    +0.000 A 
ATOM     17  H   UNL     1       7.870   3.683  16.947  0.00  0.00    +0.000 HD
ENDROOT
BRANCH   1  18
ATOM     18  C   UNL     1       2.062   5.150  20.971  0.00  0.00    +0.000 C 
BRANCH  18  20
ATOM     19  C   UNL     1       1.058   3.765  19.094  0.00  0.00    +0.000 C 
ATOM     20  C   UNL     1       1.066   4.004  20.603  0.00  0.00    +0.000 C 
ATOM     21  C   UNL     1       1.403   2.673  21.298  0.00  0.00    +0.000 C 
ENDBRANCH  18  20
ENDBRANCH   1  18
TORSDOF 2
ENDMDL
MODEL 4
REMARK VINA RESULT:      -6.9      2.089      4.088
REMARK  Name = 
REMARK  5 active torsions:
REMARK  status: ('A' for Active; 'I' for Inactive)
REMARK    1  A    between atoms: C_1  and  C_2
REMARK    2  A    between atoms: C_2  and  C_3
REMARK    3  A    between atoms: C_2  and  C_4
REMARK    4  A    between atoms: C_4  and  N_5
REMARK    5  A    between atoms: N_8  and  C_9
REMARK                            x       y       z     vdW  Elec       q    Type
REMARK                         _______ _______ _______ _____ _____    ______ ____
ROOT
ATOM      1  N   UNL     1       4.095   5.129  17.903  0.00  0.00    +0.000 N 
ATOM      2  C   UNL     1       4.395   4.170  18.868  0.00  0.00    +0.000 A 
ATOM      3  O   UNL     1       5.457   3.533  18.847  0.00  0.00    +0.000 OA
ATOM      4  N   UNL     1       3.434   3.954  19.835  0.00  0.00    +0.000 N 
ATOM      5  C   UNL     1       3.500   2.730  20.602  0.00  0.00    +0.000 C 
ATOM      6  C   UNL     1       2.594   4.957  20.298  0.00  0.00    +0.000 A 
ATOM      7  O   UNL     1       1.928   4.825  21.320  0.00  0.00    +0.000 OA
ATOM      8  C   UNL     1       2.585   6.200  19.512  0.00  0.00    +0.000 A 
ATOM      9  C   UNL     1       1.882   7.333  19.974  0.00  0.00    +0.000 A 
ATOM     10  N   UNL     1       1.150   7.558  21.126  0.00  0.00    +0.000 NA
ATOM     11  C   UNL     1       0.735   8.799  21.061  0.00  0.00    +0.000 A 
ATOM     12  N   UNL     1       1.157   9.405  19.914  0.00  0.00    +0.000 N 
ATOM     13  C   UNL     1       1.890   8.489  19.199  0.00  0.00    +0.000 A 
ATOM     14  C   UNL     1       2.548   8.579  17.976  0.00  0.00    +0.000 A 
ATOM     15  C   UNL     1       3.242   7.439  17.538  0.00  0.00    +0.000 A 
ATOM     16  C   UNL     1       3.288   6.253  18.287  0.00  0.00    +0.000 A 
ATOM     17  H   UNL     1       0.966  10.358  19.647  0.00  0.00    +0.000 HD
ENDROOT
BRANCH   1  18
ATOM     18  C   UNL     1       4.863   5.081  16.639  0.00  0.00    +0.000 C 
BRANCH  18  20
ATOM     19  C   UNL     1       7.146   4.838  15.551  0.00  0.00    +0.000 C 
ATOM     20  C   UNL     1       6.404   5.264  16.818  0.00  0.00    +0.000 C 
ATOM     21  C   UNL     1       6.800   6.717  17.140  0.00  0.00    +0.000 C 
ENDBRANCH  18  20
ENDBRANCH   1  18
TORSDOF 2
ENDMDL
MODEL 5
REMARK VINA RESULT:      -6.9      2.195      5.291
REMARK  Name = 
REMARK  5 active torsions:
REMARK  status: ('A' for Active; 'I' for Inactive)
REMARK    1  A    between atoms: C_1  and  C_2
REMARK    2  A    between atoms: C_2  and  C_3
REMARK    3  A    between atoms: C_2  and  C_4
REMARK    4  A    between atoms: C_4  and  N_5
REMARK    5  A    between atoms: N_8  and  C_9
REMARK                            x       y       z     vdW  Elec       q    Type
REMARK                         _______ _______ _______ _____ _____    ______ ____
ROOT
ATOM      1  N   UNL     1       3.453   4.389  19.154  0.00  0.00    +0.000 N 
ATOM      2  C   UNL     1       3.954   3.993  17.915  0.00  0.00    +0.000 A 
ATOM      3  O   UNL     1       3.889   2.818  17.531  0.00  0.00    +0.000 OA
ATOM      4  N   UNL     1       4.546   4.979  17.152  0.00  0.00    +0.000 N 
ATOM      5  C   UNL     1       5.418   4.576  16.073  0.00  0.00    +0.000 C 
ATOM      6  C   UNL     1       4.131   6.304  17.181  0.00  0.00    +0.000 A 
ATOM      7  O   UNL     1       4.483   7.112  16.328  0.00  0.00    +0.000 OA
ATOM      8  C   UNL     1       3.213   6.665  18.272  0.00  0.00    +0.000 A 
ATOM      9  C   UNL     1       2.616   7.943  18.310  0.00  0.00    +0.000 A 
ATOM     10  N   UNL     1       2.694   9.024  17.451  0.00  0.00    +0.000 NA
ATOM     11  C   UNL     1       1.914   9.949  17.952  0.00  0.00    +0.000 A 
ATOM     12  N   UNL     1       1.325   9.529  19.108  0.00  0.00    +0.000 N 
ATOM     13  C   UNL     1       1.758   8.251  19.362  0.00  0.00    +0.000 A 
ATOM     14  C   UNL     1       1.470   7.361  20.393  0.00  0.00    +0.000 A 
ATOM     15  C   UNL     1       2.076   6.095  20.333  0.00  0.00    +0.000 A 
ATOM     16  C   UNL     1       2.931   5.720  19.285  0.00  0.00    +0.000 A 
ATOM     17  H   UNL     1       0.681  10.065  19.670  0.00  0.00    +0.000 HD
ENDROOT
BRANCH   1  18
ATOM     18  C   UNL     1       3.223   3.329  20.161  0.00  0.00    +0.000 C 
BRANCH  18  20
ATOM     19  C   UNL     1       1.119   2.111  19.425  0.00  0.00    +0.000 C 
ATOM     20  C   UNL     1       1.716   3.054  20.469  0.00  0.00    +0.000 C 
ATOM     21  C   UNL     1       1.494   2.433  21.860  0.00  0.00    +0.000 C 
ENDBRANCH  18  20
ENDBRANCH   1  18
TORSDOF 2
ENDMDL
MODEL 6
REMARK VINA RESULT:      -6.7      1.132      1.494
REMARK  Name = 
REMARK  5 active torsions:
REMARK  status: ('A' for Active; 'I' for Inactive)
REMARK    1  A    between atoms: C_1  and  C_2
REMARK    2  A    between atoms: C_2  and  C_3
REMARK    3  A    between atoms: C_2  and  C_4
REMARK    4  A    between atoms: C_4  and  N_5
REMARK    5  A    between atoms: N_8  and  C_9
REMARK                            x       y       z     vdW  Elec       q    Type
REMARK                         _______ _______ _______ _____ _____    ______ ____
ROOT
ATOM      1  N   UNL     1       4.033   6.697  17.916  0.00  0.00    +0.000 N 
ATOM      2  C   UNL     1       3.024   7.657  17.952  0.00  0.00    +0.000 A 
ATOM      3  O   UNL     1       2.772   8.376  16.975  0.00  0.00    +0.000 OA
ATOM      4  N   UNL     1       2.338   7.778  19.143  0.00  0.00    +0.000 N 
ATOM      5  C   UNL     1       1.581   8.987  19.375  0.00  0.00    +0.000 C 
ATOM      6  C   UNL     1       2.106   6.703  19.990  0.00  0.00    +0.000 A 
ATOM      7  O   UNL     1       1.290   6.762  20.904  0.00  0.00    +0.000 OA
ATOM      8  C   UNL     1       2.867   5.479  19.696  0.00  0.00    +0.000 A 
ATOM      9  C   UNL     1       2.601   4.286  20.401  0.00  0.00    +0.000 A 
ATOM     10  N   UNL     1       1.676   3.980  21.383  0.00  0.00    +0.000 NA
ATOM     11  C   UNL     1       1.845   2.713  21.666  0.00  0.00    +0.000 A 
ATOM     12  N   UNL     1       2.844   2.165  20.916  0.00  0.00    +0.000 N 
ATOM     13  C   UNL     1       3.347   3.149  20.100  0.00  0.00    +0.000 A 
ATOM     14  C   UNL     1       4.359   3.136  19.146  0.00  0.00    +0.000 A 
ATOM     15  C   UNL     1       4.605   4.335  18.457  0.00  0.00    +0.000 A 
ATOM     16  C   UNL     1       3.870   5.507  18.701  0.00  0.00    +0.000 A 
ATOM     17  H   UNL     1       3.151   1.205  20.954  0.00  0.00    +0.000 HD
ENDROOT
BRANCH   1  18
ATOM     18  C   UNL     1       5.057   6.831  16.855  0.00  0.00    +0.000 C 
BRANCH  18  20
ATOM     19  C   UNL     1       7.222   5.585  16.392  0.00  0.00    +0.000 C 
ATOM     20  C   UNL     1       6.518   6.558  17.337  0.00  0.00    +0.000 C 
ATOM     21  C   UNL     1       7.367   7.839  17.427  0.00  0.00    +0.000 C 
ENDBRANCH  18  20
ENDBRANCH   1  18
TORSDOF 2
ENDMDL
MODEL 7
REMARK VINA RESULT:      -6.7      1.713      2.033
REMARK  Name = 
REMARK  5 active torsions:
REMARK  status: ('A' for Active; 'I' for Inactive)
REMARK    1  A    between atoms: C_1  and  C_2
REMARK    2  A    between atoms: C_2  and  C_3
REMARK    3  A    between atoms: C_2  and  C_4
REMARK    4  A    between atoms: C_4  and  N_5
REMARK    5  A    between atoms: N_8  and  C_9
REMARK                            x       y       z     vdW  Elec       q    Type
REMARK                         _______ _______ _______ _____ _____    ______ ____
ROOT
ATOM      1  N   UNL     1       3.919   6.580  17.775  0.00  0.00    +0.000 N 
ATOM      2  C   UNL     1       3.069   7.577  18.247  0.00  0.00    +0.000 A 
ATOM      3  O   UNL     1       2.960   8.668  17.672  0.00  0.00    +0.000 OA
ATOM      4  N   UNL     1       2.374   7.291  19.405  0.00  0.00    +0.000 N 
ATOM      5  C   UNL     1       1.805   8.391  20.150  0.00  0.00    +0.000 C 
ATOM      6  C   UNL     1       1.954   6.009  19.732  0.00  0.00    +0.000 A 
ATOM      7  O   UNL     1       1.130   5.802  20.617  0.00  0.00    +0.000 OA
ATOM      8  C   UNL     1       2.526   4.920  18.924  0.00  0.00    +0.000 A 
ATOM      9  C   UNL     1       2.058   3.598  19.074  0.00  0.00    +0.000 A 
ATOM     10  N   UNL     1       1.068   3.053  19.872  0.00  0.00    +0.000 NA
ATOM     11  C   UNL     1       1.031   1.774  19.592  0.00  0.00    +0.000 A 
ATOM     12  N   UNL     1       1.957   1.446  18.645  0.00  0.00    +0.000 N 
ATOM     13  C   UNL     1       2.629   2.593  18.297  0.00  0.00    +0.000 A 
ATOM     14  C   UNL     1       3.656   2.827  17.388  0.00  0.00    +0.000 A 
ATOM     15  C   UNL     1       4.104   4.152  17.256  0.00  0.00    +0.000 A 
ATOM     16  C   UNL     1       3.550   5.210  17.995  0.00  0.00    +0.000 A 
ATOM     17  H   UNL     1       2.110   0.525  18.266  0.00  0.00    +0.000 HD
ENDROOT
BRANCH   1  18
ATOM     18  C   UNL     1       4.983   6.988  16.830  0.00  0.00    +0.000 C 
BRANCH  18  20
ATOM     19  C   UNL     1       7.121   5.704  16.348  0.00  0.00    +0.000 C 
ATOM     20  C   UNL     1       6.431   6.663  17.317  0.00  0.00    +0.000 C 
ATOM     21  C   UNL     1       7.310   7.920  17.457  0.00  0.00    +0.000 C 
ENDBRANCH  18  20
ENDBRANCH   1  18
TORSDOF 2
ENDMDL
MODEL 8
REMARK VINA RESULT:      -6.6      3.213      6.464
REMARK  Name = 
REMARK  5 active torsions:
REMARK  status: ('A' for Active; 'I' for Inactive)
REMARK    1  A    between atoms: C_1  and  C_2
REMARK    2  A    between atoms: C_2  and  C_3
REMARK    3  A    between atoms: C_2  and  C_4
REMARK    4  A    between atoms: C_4  and  N_5
REMARK    5  A    between atoms: N_8  and  C_9
REMARK                            x       y       z     vdW  Elec       q    Type
REMARK                         _______ _______ _______ _____ _____    ______ ____
ROOT
ATOM      1  N   UNL     1       4.780   3.929  17.186  0.00  0.00    +0.000 N 
ATOM      2  C   UNL     1       5.587   4.274  18.268  0.00  0.00    +0.000 A 
ATOM      3  O   UNL     1       5.525   3.668  19.347  0.00  0.00    +0.000 OA
ATOM      4  N   UNL     1       6.441   5.341  18.079  0.00  0.00    +0.000 N 
ATOM      5  C   UNL     1       6.993   5.989  19.247  0.00  0.00    +0.000 C 
ATOM      6  C   UNL     1       7.013   5.638  16.850  0.00  0.00    +0.000 A 
ATOM      7  O   UNL     1       7.954   6.417  16.743  0.00  0.00    +0.000 OA
ATOM      8  C   UNL     1       6.448   4.928  15.691  0.00  0.00    +0.000 A 
ATOM      9  C   UNL     1       7.049   5.044  14.420  0.00  0.00    +0.000 A 
ATOM     10  N   UNL     1       8.174   5.723  13.989  0.00  0.00    +0.000 NA
ATOM     11  C   UNL     1       8.294   5.465  12.710  0.00  0.00    +0.000 A 
ATOM     12  N   UNL     1       7.294   4.646  12.274  0.00  0.00    +0.000 N 
ATOM     13  C   UNL     1       6.482   4.363  13.346  0.00  0.00    +0.000 A 
ATOM     14  C   UNL     1       5.335   3.583  13.461  0.00  0.00    +0.000 A 
ATOM     15  C   UNL     1       4.756   3.483  14.737  0.00  0.00    +0.000 A 
ATOM     16  C   UNL     1       5.296   4.127  15.861  0.00  0.00    +0.000 A 
ATOM     17  H   UNL     1       7.179   4.306  11.331  0.00  0.00    +0.000 HD
ENDROOT
BRANCH   1  18
ATOM     18  C   UNL     1       3.577   3.116  17.470  0.00  0.00    +0.000 C 
BRANCH  18  20
ATOM     19  C   UNL     1       1.231   3.258  18.435  0.00  0.00    +0.000 C 
ATOM     20  C   UNL     1       2.246   3.934  17.514  0.00  0.00    +0.000 C 
ATOM     21  C   UNL     1       2.450   5.380  18.003  0.00  0.00    +0.000 C 
ENDBRANCH  18  20
ENDBRANCH   1  18
TORSDOF 2
ENDMDL
MODEL 9
REMARK VINA RESULT:      -6.3      2.819      5.964
REMARK  Name = 
REMARK  5 active torsions:
REMARK  status: ('A' for Active; 'I' for Inactive)
REMARK    1  A    between atoms: C_1  and  C_2
REMARK    2  A    between atoms: C_2  and  C_3
REMARK    3  A    between atoms: C_2  and  C_4
REMARK    4  A    between atoms: C_4  and  N_5
REMARK    5  A    between atoms: N_8  and  C_9
REMARK                            x       y       z     vdW  Elec       q    Type
REMARK                         _______ _______ _______ _____ _____    ______ ____
ROOT
ATOM      1  N   UNL     1       5.614   4.853  18.354  0.00  0.00    +0.000 N 
ATOM      2  C   UNL     1       6.671   5.531  18.957  0.00  0.00    +0.000 A 
ATOM      3  O   UNL     1       7.003   5.311  20.129  0.00  0.00    +0.000 OA
ATOM      4  N   UNL     1       7.311   6.477  18.182  0.00  0.00    +0.000 N 
ATOM      5  C   UNL     1       8.122   7.470  18.849  0.00  0.00    +0.000 C 
ATOM      6  C   UNL     1       7.448   6.355  16.806  0.00  0.00    +0.000 A 
ATOM      7  O   UNL     1       8.226   7.056  16.167  0.00  0.00    +0.000 OA
ATOM      8  C   UNL     1       6.635   5.307  16.171  0.00  0.00    +0.000 A 
ATOM      9  C   UNL     1       6.806   5.000  14.804  0.00  0.00    +0.000 A 
ATOM     10  N   UNL     1       7.670   5.500  13.847  0.00  0.00    +0.000 NA
ATOM     11  C   UNL     1       7.421   4.838  12.744  0.00  0.00    +0.000 A 
ATOM     12  N   UNL     1       6.426   3.923  12.929  0.00  0.00    +0.000 N 
ATOM     13  C   UNL     1       6.013   4.007  14.236  0.00  0.00    +0.000 A 
ATOM     14  C   UNL     1       5.043   3.309  14.949  0.00  0.00    +0.000 A 
ATOM     15  C   UNL     1       4.892   3.631  16.308  0.00  0.00    +0.000 A 
ATOM     16  C   UNL     1       5.679   4.607  16.941  0.00  0.00    +0.000 A 
ATOM     17  H   UNL     1       6.066   3.295  12.227  0.00  0.00    +0.000 HD
ENDROOT
BRANCH   1  18
ATOM     18  C   UNL     1       4.645   4.179  19.247  0.00  0.00    +0.000 C 
BRANCH  18  20
ATOM     19  C   UNL     1       2.661   5.598  18.537  0.00  0.00    +0.000 C 
ATOM     20  C   UNL     1       3.474   5.093  19.729  0.00  0.00    +0.000 C 
ATOM     21  C   UNL     1       2.513   4.376  20.694  0.00  0.00    +0.000 C 
ENDBRANCH  18  20
ENDBRANCH   1  18
TORSDOF 2
ENDMDL
