MODEL 1
REMARK VINA RESULT:      -8.1      0.000      0.000
REMARK  Name = 
REMARK  12 active torsions:
REMARK  status: ('A' for Active; 'I' for Inactive)
REMARK    1  A    between atoms: C_1  and  O_2
REMARK    2  A    between atoms: O_2  and  C_3
REMARK    3  A    between atoms: C_6  and  C_7
REMARK    4  A    between atoms: C_9  and  C_10
REMARK    5  A    between atoms: C_13  and  N_14
REMARK    6  A    between atoms: N_14  and  C_15
REMARK    7  A    between atoms: C_15  and  C_16
REMARK    8  A    between atoms: C_16  and  C_17
REMARK    9  A    between atoms: C_17  and  N_18
REMARK   10  A    between atoms: C_21  and  C_22
REMARK   11  A    between atoms: C_25  and  O_26
REMARK   12  A    between atoms: O_26  and  C_27
REMARK                            x       y       z     vdW  Elec       q    Type
REMARK                         _______ _______ _______ _____ _____    ______ ____
ROOT
ATOM      1  C   UNL     1       3.896   5.319  18.926  0.00  0.00    +0.000 A 
ATOM      2  C   UNL     1       3.634   4.204  19.775  0.00  0.00    +0.000 A 
ATOM      3  C   UNL     1       2.524   4.119  20.619  0.00  0.00    +0.000 A 
ATOM      4  C   UNL     1       2.176   2.849  21.332  0.00  0.00    +0.000 C 
ATOM      5  C   UNL     1       1.704   5.225  20.736  0.00  0.00    +0.000 A 
ATOM      6  C   UNL     1       1.968   6.366  19.977  0.00  0.00    +0.000 A 
ATOM      7  C   UNL     1       3.000   6.424  19.013  0.00  0.00    +0.000 A 
ENDROOT
BRANCH   1  11
ATOM      8  C   UNL     1       6.832   5.120  15.745  0.00  0.00    +0.000 A 
ATOM      9  C   UNL     1       5.956   4.058  15.977  0.00  0.00    +0.000 A 
ATOM     10  C   UNL     1       5.031   4.121  17.016  0.00  0.00    +0.000 A 
ATOM     11  C   UNL     1       5.009   5.187  17.929  0.00  0.00    +0.000 A 
ATOM     12  C   UNL     1       6.059   6.113  17.812  0.00  0.00    +0.000 A 
ATOM     13  C   UNL     1       6.937   6.128  16.709  0.00  0.00    +0.000 A 
BRANCH   8  15
ATOM     14  C   UNL     1       6.945   4.480  13.487  0.00  0.00    +0.000 C 
ATOM     15  O   UNL     1       7.572   5.149  14.592  0.00  0.00    +0.000 OA
ENDBRANCH   8  15
BRANCH  13  16
ATOM     16  O   UNL     1       7.771   7.212  16.738  0.00  0.00    +0.000 OA
ATOM     17  C   UNL     1       7.989   7.883  17.967  0.00  0.00    +0.000 C 
ENDBRANCH  13  16
ENDBRANCH   1  11
BRANCH   7  18
ATOM     18  N   UNL     1       3.129   7.587  18.194  0.00  0.00    +0.000 N 
ATOM     19  H   UNL     1       3.790   7.409  17.438  0.00  0.00    +0.000 HD
BRANCH  18  20
ATOM     20  C   UNL     1       1.882   8.208  17.762  0.00  0.00    +0.000 C 
BRANCH  20  21
ATOM     21  C   UNL     1       1.768   9.698  18.049  0.00  0.00    +0.000 C 
BRANCH  21  22
ATOM     22  C   UNL     1       0.568   9.857  18.990  0.00  0.00    +0.000 C 
BRANCH  22  23
ATOM     23  N   UNL     1      -0.602  10.450  18.390  0.00  0.00    +0.000 N 
ATOM     24  C   UNL     1      -1.032  11.731  18.577  0.00  0.00    +0.000 A 
ATOM     25  N   UNL     1      -2.015  12.027  17.761  0.00  0.00    +0.000 NA
ATOM     26  C   UNL     1      -2.220  10.895  17.005  0.00  0.00    +0.000 A 
ATOM     27  C   UNL     1      -3.234  10.869  15.929  0.00  0.00    +0.000 C 
ATOM     28  C   UNL     1      -1.358   9.893  17.395  0.00  0.00    +0.000 A 
ENDBRANCH  22  23
ENDBRANCH  21  22
ENDBRANCH  20  21
ENDBRANCH  18  20
ENDBRANCH   7  18
TORSDOF 8
ENDMDL
MODEL 2
REMARK VINA RESULT:      -8.0      1.507      2.251
REMARK  Name = 
REMARK  12 active torsions:
REMARK  status: ('A' for Active; 'I' for Inactive)
REMARK    1  A    between atoms: C_1  and  O_2
REMARK    2  A    between atoms: O_2  and  C_3
REMARK    3  A    between atoms: C_6  and  C_7
REMARK    4  A    between atoms: C_9  and  C_10
REMARK    5  A    between atoms: C_13  and  N_14
REMARK    6  A    between atoms: N_14  and  C_15
REMARK    7  A    between atoms: C_15  and  C_16
REMARK    8  A    between atoms: C_16  and  C_17
REMARK    9  A    between atoms: C_17  and  N_18
REMARK   10  A    between atoms: C_21  and  C_22
REMARK   11  A    between atoms: C_25  and  O_26
REMARK   12  A    between atoms: O_26  and  C_27
REMARK                            x       y       z     vdW  Elec       q    Type
REMARK                         _______ _______ _______ _____ _____    ______ ____
ROOT
ATOM      1  C   UNL     1       3.829   5.208  18.855  0.00  0.00    +0.000 A 
ATOM      2  C   UNL     1       3.650   4.127  19.766  0.00  0.00    +0.000 A 
ATOM      3  C   UNL     1       2.571   4.031  20.649  0.00  0.00    +0.000 A 
ATOM      4  C   UNL     1       2.310   2.784  21.435  0.00  0.00    +0.000 C 
ATOM      5  C   UNL     1       1.701   5.100  20.737  0.00  0.00    +0.000 A 
ATOM      6  C   UNL     1       1.883   6.212  19.914  0.00  0.00    +0.000 A 
ATOM      7  C   UNL     1       2.882   6.271  18.915  0.00  0.00    +0.000 A 
ENDROOT
BRANCH   1  11
ATOM      8  C   UNL     1       6.711   5.078  15.620  0.00  0.00    +0.000 A 
ATOM      9  C   UNL     1       5.734   4.090  15.746  0.00  0.00    +0.000 A 
ATOM     10  C   UNL     1       4.826   4.126  16.802  0.00  0.00    +0.000 A 
ATOM     11  C   UNL     1       4.917   5.080  17.829  0.00  0.00    +0.000 A 
ATOM     12  C   UNL     1       6.054   5.904  17.798  0.00  0.00    +0.000 A 
ATOM     13  C   UNL     1       6.923   5.956  16.689  0.00  0.00    +0.000 A 
BRANCH   8  15
ATOM     14  C   UNL     1       6.899   4.397  13.379  0.00  0.00    +0.000 C 
ATOM     15  O   UNL     1       7.443   5.164  14.465  0.00  0.00    +0.000 OA
ENDBRANCH   8  15
BRANCH  13  16
ATOM     16  O   UNL     1       7.862   6.941  16.824  0.00  0.00    +0.000 OA
ATOM     17  C   UNL     1       7.538   8.108  17.559  0.00  0.00    +0.000 C 
ENDBRANCH  13  16
ENDBRANCH   1  11
BRANCH   7  18
ATOM     18  N   UNL     1       2.927   7.395  18.036  0.00  0.00    +0.000 N 
ATOM     19  H   UNL     1       2.625   7.119  17.101  0.00  0.00    +0.000 HD
BRANCH  18  20
ATOM     20  C   UNL     1       2.301   8.618  18.526  0.00  0.00    +0.000 C 
BRANCH  20  21
ATOM     21  C   UNL     1       0.988   8.988  17.853  0.00  0.00    +0.000 C 
BRANCH  21  22
ATOM     22  C   UNL     1       0.650  10.404  18.333  0.00  0.00    +0.000 C 
BRANCH  22  23
ATOM     23  N   UNL     1       0.579  10.561  19.764  0.00  0.00    +0.000 N 
ATOM     24  C   UNL     1       1.106  11.596  20.480  0.00  0.00    +0.000 A 
ATOM     25  N   UNL     1       0.724  11.551  21.734  0.00  0.00    +0.000 NA
ATOM     26  C   UNL     1      -0.097  10.450  21.830  0.00  0.00    +0.000 A 
ATOM     27  C   UNL     1      -0.764  10.104  23.103  0.00  0.00    +0.000 C 
ATOM     28  C   UNL     1      -0.186   9.810  20.613  0.00  0.00    +0.000 A 
ENDBRANCH  22  23
ENDBRANCH  21  22
ENDBRANCH  20  21
ENDBRANCH  18  20
ENDBRANCH   7  18
TORSDOF 8
ENDMDL
MODEL 3
REMARK VINA RESULT:      -7.9      0.787      1.246
REMARK  Name = 
REMARK  12 active torsions:
REMARK  status: ('A' for Active; 'I' for Inactive)
REMARK    1  A    between atoms: C_1  and  O_2
REMARK    2  A    between atoms: O_2  and  C_3
REMARK    3  A    between atoms: C_6  and  C_7
REMARK    4  A    between atoms: C_9  and  C_10
REMARK    5  A    between atoms: C_13  and  N_14
REMARK    6  A    between atoms: N_14  and  C_15
REMARK    7  A    between atoms: C_15  and  C_16
REMARK    8  A    between atoms: C_16  and  C_17
REMARK    9  A    between atoms: C_17  and  N_18
REMARK   10  A    between atoms: C_21  and  C_22
REMARK   11  A    between atoms: C_25  and  O_26
REMARK   12  A    between atoms: O_26  and  C_27
REMARK                            x       y       z     vdW  Elec       q    Type
REMARK                         _______ _______ _______ _____ _____    ______ ____
ROOT
ATOM      1  C   UNL     1       3.857   5.405  18.912  0.00  0.00    +0.000 A 
ATOM      2  C   UNL     1       3.595   4.314  19.791  0.00  0.00    +0.000 A 
ATOM      3  C   UNL     1       2.500   4.267  20.658  0.00  0.00    +0.000 A 
ATOM      4  C   UNL     1       2.146   3.019  21.407  0.00  0.00    +0.000 C 
ATOM      5  C   UNL     1       1.701   5.389  20.766  0.00  0.00    +0.000 A 
ATOM      6  C   UNL     1       1.968   6.507  19.976  0.00  0.00    +0.000 A 
ATOM      7  C   UNL     1       2.981   6.526  18.990  0.00  0.00    +0.000 A 
ENDROOT
BRANCH   1  11
ATOM      8  C   UNL     1       6.732   5.097  15.683  0.00  0.00    +0.000 A 
ATOM      9  C   UNL     1       5.819   4.069  15.928  0.00  0.00    +0.000 A 
ATOM     10  C   UNL     1       4.914   4.166  16.982  0.00  0.00    +0.000 A 
ATOM     11  C   UNL     1       4.948   5.231  17.897  0.00  0.00    +0.000 A 
ATOM     12  C   UNL     1       6.031   6.116  17.763  0.00  0.00    +0.000 A 
ATOM     13  C   UNL     1       6.891   6.099  16.646  0.00  0.00    +0.000 A 
BRANCH   8  15
ATOM     14  C   UNL     1       6.822   4.380  13.447  0.00  0.00    +0.000 C 
ATOM     15  O   UNL     1       7.453   5.099  14.518  0.00  0.00    +0.000 OA
ENDBRANCH   8  15
BRANCH  13  16
ATOM     16  O   UNL     1       7.767   7.149  16.663  0.00  0.00    +0.000 OA
ATOM     17  C   UNL     1       7.856   7.955  17.824  0.00  0.00    +0.000 C 
ENDBRANCH  13  16
ENDBRANCH   1  11
BRANCH   7  18
ATOM     18  N   UNL     1       3.113   7.668  18.143  0.00  0.00    +0.000 N 
ATOM     19  H   UNL     1       3.741   7.455  17.367  0.00  0.00    +0.000 HD
BRANCH  18  20
ATOM     20  C   UNL     1       1.869   8.315  17.742  0.00  0.00    +0.000 C 
BRANCH  20  21
ATOM     21  C   UNL     1       1.787   9.803  18.046  0.00  0.00    +0.000 C 
BRANCH  21  22
ATOM     22  C   UNL     1       0.916   9.932  19.302  0.00  0.00    +0.000 C 
BRANCH  22  23
ATOM     23  N   UNL     1      -0.314  10.659  19.118  0.00  0.00    +0.000 N 
ATOM     24  C   UNL     1      -1.233  10.437  18.134  0.00  0.00    +0.000 A 
ATOM     25  N   UNL     1      -2.326  11.133  18.336  0.00  0.00    +0.000 NA
ATOM     26  C   UNL     1      -2.111  11.825  19.506  0.00  0.00    +0.000 A 
ATOM     27  C   UNL     1      -3.160  12.692  20.084  0.00  0.00    +0.000 C 
ATOM     28  C   UNL     1      -0.854  11.554  20.001  0.00  0.00    +0.000 A 
ENDBRANCH  22  23
ENDBRANCH  21  22
ENDBRANCH  20  21
ENDBRANCH  18  20
ENDBRANCH   7  18
TORSDOF 8
ENDMDL
MODEL 4
REMARK VINA RESULT:      -7.8      3.981      7.591
REMARK  Name = 
REMARK  12 active torsions:
REMARK  status: ('A' for Active; 'I' for Inactive)
REMARK    1  A    between atoms: C_1  and  O_2
REMARK    2  A    between atoms: O_2  and  C_3
REMARK    3  A    between atoms: C_6  and  C_7
REMARK    4  A    between atoms: C_9  and  C_10
REMARK    5  A    between atoms: C_13  and  N_14
REMARK    6  A    between atoms: N_14  and  C_15
REMARK    7  A    between atoms: C_15  and  C_16
REMARK    8  A    between atoms: C_16  and  C_17
REMARK    9  A    between atoms: C_17  and  N_18
REMARK   10  A    between atoms: C_21  and  C_22
REMARK   11  A    between atoms: C_25  and  O_26
REMARK   12  A    between atoms: O_26  and  C_27
REMARK                            x       y       z     vdW  Elec       q    Type
REMARK                         _______ _______ _______ _____ _____    ______ ____
ROOT
ATOM      1  C   UNL     1       2.711   5.539  18.934  0.00  0.00    +0.000 A 
ATOM      2  C   UNL     1       1.665   4.583  18.782  0.00  0.00    +0.000 A 
ATOM      3  C   UNL     1       1.873   3.201  18.794  0.00  0.00    +0.000 A 
ATOM      4  C   UNL     1       0.730   2.235  18.842  0.00  0.00    +0.000 C 
ATOM      5  C   UNL     1       3.174   2.736  18.825  0.00  0.00    +0.000 A 
ATOM      6  C   UNL     1       4.232   3.642  18.899  0.00  0.00    +0.000 A 
ATOM      7  C   UNL     1       4.040   5.036  19.032  0.00  0.00    +0.000 A 
ENDROOT
BRANCH   1  11
ATOM      8  C   UNL     1       1.167   9.574  19.282  0.00  0.00    +0.000 A 
ATOM      9  C   UNL     1       1.764   9.136  18.098  0.00  0.00    +0.000 A 
ATOM     10  C   UNL     1       2.278   7.846  18.002  0.00  0.00    +0.000 A 
ATOM     11  C   UNL     1       2.317   6.977  19.105  0.00  0.00    +0.000 A 
ATOM     12  C   UNL     1       1.933   7.534  20.336  0.00  0.00    +0.000 A 
ATOM     13  C   UNL     1       1.311   8.796  20.435  0.00  0.00    +0.000 A 
BRANCH   8  15
ATOM     14  C   UNL     1       1.223  11.880  18.834  0.00  0.00    +0.000 C 
ATOM     15  O   UNL     1       0.464  10.750  19.292  0.00  0.00    +0.000 OA
ENDBRANCH   8  15
BRANCH  13  16
ATOM     16  O   UNL     1       0.887   9.055  21.710  0.00  0.00    +0.000 OA
ATOM     17  C   UNL     1      -0.472   8.835  22.043  0.00  0.00    +0.000 C 
ENDBRANCH  13  16
ENDBRANCH   1  11
BRANCH   7  18
ATOM     18  N   UNL     1       5.174   5.884  19.222  0.00  0.00    +0.000 N 
ATOM     19  H   UNL     1       5.724   5.558  20.017  0.00  0.00    +0.000 HD
BRANCH  18  20
ATOM     20  C   UNL     1       5.963   6.174  18.030  0.00  0.00    +0.000 C 
BRANCH  20  21
ATOM     21  C   UNL     1       7.431   5.785  18.117  0.00  0.00    +0.000 C 
BRANCH  21  22
ATOM     22  C   UNL     1       7.577   4.495  17.300  0.00  0.00    +0.000 C 
BRANCH  22  23
ATOM     23  N   UNL     1       7.101   4.578  15.942  0.00  0.00    +0.000 N 
ATOM     24  C   UNL     1       7.591   5.405  14.974  0.00  0.00    +0.000 A 
ATOM     25  N   UNL     1       7.077   5.123  13.800  0.00  0.00    +0.000 NA
ATOM     26  C   UNL     1       6.230   4.059  14.016  0.00  0.00    +0.000 A 
ATOM     27  C   UNL     1       5.498   3.427  12.897  0.00  0.00    +0.000 C 
ATOM     28  C   UNL     1       6.219   3.715  15.350  0.00  0.00    +0.000 A 
ENDBRANCH  22  23
ENDBRANCH  21  22
ENDBRANCH  20  21
ENDBRANCH  18  20
ENDBRANCH   7  18
TORSDOF 8
ENDMDL
MODEL 5
REMARK VINA RESULT:      -7.8      3.582      7.305
REMARK  Name = 
REMARK  12 active torsions:
REMARK  status: ('A' for Active; 'I' for Inactive)
REMARK    1  A    between atoms: C_1  and  O_2
REMARK    2  A    between atoms: O_2  and  C_3
REMARK    3  A    between atoms: C_6  and  C_7
REMARK    4  A    between atoms: C_9  and  C_10
REMARK    5  A    between atoms: C_13  and  N_14
REMARK    6  A    between atoms: N_14  and  C_15
REMARK    7  A    between atoms: C_15  and  C_16
REMARK    8  A    between atoms: C_16  and  C_17
REMARK    9  A    between atoms: C_17  and  N_18
REMARK   10  A    between atoms: C_21  and  C_22
REMARK   11  A    between atoms: C_25  and  O_26
REMARK   12  A    between atoms: O_26  and  C_27
REMARK                            x       y       z     vdW  Elec       q    Type
REMARK                         _______ _______ _______ _____ _____    ______ ____
ROOT
ATOM      1  C   UNL     1       2.456   5.304  19.304  0.00  0.00    +0.000 A 
ATOM      2  C   UNL     1       1.784   4.589  20.338  0.00  0.00    +0.000 A 
ATOM      3  C   UNL     1       2.055   3.257  20.659  0.00  0.00    +0.000 A 
ATOM      4  C   UNL     1       1.481   2.611  21.882  0.00  0.00    +0.000 C 
ATOM      5  C   UNL     1       2.927   2.553  19.850  0.00  0.00    +0.000 A 
ATOM      6  C   UNL     1       3.551   3.196  18.780  0.00  0.00    +0.000 A 
ATOM      7  C   UNL     1       3.402   4.578  18.523  0.00  0.00    +0.000 A 
ENDROOT
BRANCH   1  11
ATOM      8  C   UNL     1       1.327   9.466  18.875  0.00  0.00    +0.000 A 
ATOM      9  C   UNL     1       1.916   8.773  17.817  0.00  0.00    +0.000 A 
ATOM     10  C   UNL     1       2.297   7.443  17.970  0.00  0.00    +0.000 A 
ATOM     11  C   UNL     1       2.208   6.781  19.206  0.00  0.00    +0.000 A 
ATOM     12  C   UNL     1       1.840   7.579  20.301  0.00  0.00    +0.000 A 
ATOM     13  C   UNL     1       1.349   8.892  20.151  0.00  0.00    +0.000 A 
BRANCH   8  15
ATOM     14  C   UNL     1      -0.642  10.612  18.295  0.00  0.00    +0.000 C 
ATOM     15  O   UNL     1       0.749  10.688  18.648  0.00  0.00    +0.000 OA
ENDBRANCH   8  15
BRANCH  13  16
ATOM     16  O   UNL     1       0.909   9.410  21.338  0.00  0.00    +0.000 OA
ATOM     17  C   UNL     1      -0.323   8.959  21.874  0.00  0.00    +0.000 C 
ENDBRANCH  13  16
ENDBRANCH   1  11
BRANCH   7  18
ATOM     18  N   UNL     1       4.167   5.184  17.480  0.00  0.00    +0.000 N 
ATOM     19  H   UNL     1       4.984   5.651  17.874  0.00  0.00    +0.000 HD
BRANCH  18  20
ATOM     20  C   UNL     1       4.462   4.339  16.329  0.00  0.00    +0.000 C 
BRANCH  20  21
ATOM     21  C   UNL     1       5.724   4.705  15.564  0.00  0.00    +0.000 C 
BRANCH  21  22
ATOM     22  C   UNL     1       6.890   4.471  16.532  0.00  0.00    +0.000 C 
BRANCH  22  23
ATOM     23  N   UNL     1       7.250   5.610  17.339  0.00  0.00    +0.000 N 
ATOM     24  C   UNL     1       7.759   5.563  18.604  0.00  0.00    +0.000 A 
ATOM     25  N   UNL     1       8.153   6.748  19.004  0.00  0.00    +0.000 NA
ATOM     26  C   UNL     1       7.901   7.595  17.948  0.00  0.00    +0.000 A 
ATOM     27  C   UNL     1       8.265   9.027  18.015  0.00  0.00    +0.000 C 
ATOM     28  C   UNL     1       7.322   6.905  16.905  0.00  0.00    +0.000 A 
ENDBRANCH  22  23
ENDBRANCH  21  22
ENDBRANCH  20  21
ENDBRANCH  18  20
ENDBRANCH   7  18
TORSDOF 8
ENDMDL
MODEL 6
REMARK VINA RESULT:      -7.8      3.752      7.281
REMARK  Name = 
REMARK  12 active torsions:
REMARK  status: ('A' for Active; 'I' for Inactive)
REMARK    1  A    between atoms: C_1  and  O_2
REMARK    2  A    between atoms: O_2  and  C_3
REMARK    3  A    between atoms: C_6  and  C_7
REMARK    4  A    between atoms: C_9  and  C_10
REMARK    5  A    between atoms: C_13  and  N_14
REMARK    6  A    between atoms: N_14  and  C_15
REMARK    7  A    between atoms: C_15  and  C_16
REMARK    8  A    between atoms: C_16  and  C_17
REMARK    9  A    between atoms: C_17  and  N_18
REMARK   10  A    between atoms: C_21  and  C_22
REMARK   11  A    between atoms: C_25  and  O_26
REMARK   12  A    between atoms: O_26  and  C_27
REMARK                            x       y       z     vdW  Elec       q    Type
REMARK                         _______ _______ _______ _____ _____    ______ ____
ROOT
ATOM      1  C   UNL     1       2.871   5.236  18.898  0.00  0.00    +0.000 A 
ATOM      2  C   UNL     1       1.811   4.301  18.712  0.00  0.00    +0.000 A 
ATOM      3  C   UNL     1       1.981   2.916  18.789  0.00  0.00    +0.000 A 
ATOM      4  C   UNL     1       0.810   1.982  18.797  0.00  0.00    +0.000 C 
ATOM      5  C   UNL     1       3.263   2.420  18.925  0.00  0.00    +0.000 A 
ATOM      6  C   UNL     1       4.339   3.302  19.036  0.00  0.00    +0.000 A 
ATOM      7  C   UNL     1       4.177   4.704  19.103  0.00  0.00    +0.000 A 
ENDROOT
BRANCH   1  11
ATOM      8  C   UNL     1       1.449   9.330  18.927  0.00  0.00    +0.000 A 
ATOM      9  C   UNL     1       2.272   8.867  17.899  0.00  0.00    +0.000 A 
ATOM     10  C   UNL     1       2.744   7.557  17.910  0.00  0.00    +0.000 A 
ATOM     11  C   UNL     1       2.506   6.689  18.989  0.00  0.00    +0.000 A 
ATOM     12  C   UNL     1       1.884   7.264  20.109  0.00  0.00    +0.000 A 
ATOM     13  C   UNL     1       1.306   8.549  20.078  0.00  0.00    +0.000 A 
BRANCH   8  15
ATOM     14  C   UNL     1      -0.547  10.416  18.327  0.00  0.00    +0.000 C 
ATOM     15  O   UNL     1       0.807  10.533  18.791  0.00  0.00    +0.000 OA
ENDBRANCH   8  15
BRANCH  13  16
ATOM     16  O   UNL     1       0.623   8.828  21.231  0.00  0.00    +0.000 OA
ATOM     17  C   UNL     1       1.331   9.345  22.344  0.00  0.00    +0.000 C 
ENDBRANCH  13  16
ENDBRANCH   1  11
BRANCH   7  18
ATOM     18  N   UNL     1       5.318   5.531  19.336  0.00  0.00    +0.000 N 
ATOM     19  H   UNL     1       5.330   5.841  20.308  0.00  0.00    +0.000 HD
BRANCH  18  20
ATOM     20  C   UNL     1       6.595   5.009  18.861  0.00  0.00    +0.000 C 
BRANCH  20  21
ATOM     21  C   UNL     1       7.410   5.972  18.012  0.00  0.00    +0.000 C 
BRANCH  21  22
ATOM     22  C   UNL     1       6.490   6.411  16.866  0.00  0.00    +0.000 C 
BRANCH  22  23
ATOM     23  N   UNL     1       6.286   5.423  15.836  0.00  0.00    +0.000 N 
ATOM     24  C   UNL     1       5.147   4.699  15.639  0.00  0.00    +0.000 A 
ATOM     25  N   UNL     1       5.203   4.018  14.520  0.00  0.00    +0.000 NA
ATOM     26  C   UNL     1       6.423   4.325  13.962  0.00  0.00    +0.000 A 
ATOM     27  C   UNL     1       6.824   3.772  12.651  0.00  0.00    +0.000 C 
ATOM     28  C   UNL     1       7.121   5.189  14.778  0.00  0.00    +0.000 A 
ENDBRANCH  22  23
ENDBRANCH  21  22
ENDBRANCH  20  21
ENDBRANCH  18  20
ENDBRANCH   7  18
TORSDOF 8
ENDMDL
MODEL 7
REMARK VINA RESULT:      -7.7      1.642      2.391
REMARK  Name = 
REMARK  12 active torsions:
REMARK  status: ('A' for Active; 'I' for Inactive)
REMARK    1  A    between atoms: C_1  and  O_2
REMARK    2  A    between atoms: O_2  and  C_3
REMARK    3  A    between atoms: C_6  and  C_7
REMARK    4  A    between atoms: C_9  and  C_10
REMARK    5  A    between atoms: C_13  and  N_14
REMARK    6  A    between atoms: N_14  and  C_15
REMARK    7  A    between atoms: C_15  and  C_16
REMARK    8  A    between atoms: C_16  and  C_17
REMARK    9  A    between atoms: C_17  and  N_18
REMARK   10  A    between atoms: C_21  and  C_22
REMARK   11  A    between atoms: C_25  and  O_26
REMARK   12  A    between atoms: O_26  and  C_27
REMARK                            x       y       z     vdW  Elec       q    Type
REMARK                         _______ _______ _______ _____ _____    ______ ____
ROOT
ATOM      1  C   UNL     1       3.594   5.125  18.838  0.00  0.00    +0.000 A 
ATOM      2  C   UNL     1       3.234   3.929  19.525  0.00  0.00    +0.000 A 
ATOM      3  C   UNL     1       2.177   3.849  20.436  0.00  0.00    +0.000 A 
ATOM      4  C   UNL     1       1.702   2.534  20.973  0.00  0.00    +0.000 C 
ATOM      5  C   UNL     1       1.528   5.016  20.790  0.00  0.00    +0.000 A 
ATOM      6  C   UNL     1       1.900   6.223  20.195  0.00  0.00    +0.000 A 
ATOM      7  C   UNL     1       2.868   6.306  19.168  0.00  0.00    +0.000 A 
ENDROOT
BRANCH   1  11
ATOM      8  C   UNL     1       6.270   5.075  15.430  0.00  0.00    +0.000 A 
ATOM      9  C   UNL     1       5.270   4.111  15.567  0.00  0.00    +0.000 A 
ATOM     10  C   UNL     1       4.429   4.120  16.677  0.00  0.00    +0.000 A 
ATOM     11  C   UNL     1       4.614   5.016  17.743  0.00  0.00    +0.000 A 
ATOM     12  C   UNL     1       5.773   5.807  17.682  0.00  0.00    +0.000 A 
ATOM     13  C   UNL     1       6.574   5.890  16.525  0.00  0.00    +0.000 A 
BRANCH   8  15
ATOM     14  C   UNL     1       6.673   4.125  13.318  0.00  0.00    +0.000 C 
ATOM     15  O   UNL     1       6.933   5.198  14.237  0.00  0.00    +0.000 OA
ENDBRANCH   8  15
BRANCH  13  16
ATOM     16  O   UNL     1       7.552   6.838  16.650  0.00  0.00    +0.000 OA
ATOM     17  C   UNL     1       7.875   7.331  17.939  0.00  0.00    +0.000 C 
ENDBRANCH  13  16
ENDBRANCH   1  11
BRANCH   7  18
ATOM     18  N   UNL     1       3.106   7.561  18.529  0.00  0.00    +0.000 N 
ATOM     19  H   UNL     1       3.985   7.527  18.013  0.00  0.00    +0.000 HD
BRANCH  18  20
ATOM     20  C   UNL     1       1.990   8.116  17.771  0.00  0.00    +0.000 C 
BRANCH  20  21
ATOM     21  C   UNL     1       1.910   9.635  17.757  0.00  0.00    +0.000 C 
BRANCH  21  22
ATOM     22  C   UNL     1       0.763  10.007  18.704  0.00  0.00    +0.000 C 
BRANCH  22  23
ATOM     23  N   UNL     1       0.989  11.188  19.499  0.00  0.00    +0.000 N 
ATOM     24  C   UNL     1       0.829  11.283  20.850  0.00  0.00    +0.000 A 
ATOM     25  N   UNL     1       1.284  12.426  21.306  0.00  0.00    +0.000 NA
ATOM     26  C   UNL     1       1.771  13.093  20.205  0.00  0.00    +0.000 A 
ATOM     27  C   UNL     1       2.416  14.417  20.338  0.00  0.00    +0.000 C 
ATOM     28  C   UNL     1       1.582  12.342  19.065  0.00  0.00    +0.000 A 
ENDBRANCH  22  23
ENDBRANCH  21  22
ENDBRANCH  20  21
ENDBRANCH  18  20
ENDBRANCH   7  18
TORSDOF 8
ENDMDL
MODEL 8
REMARK VINA RESULT:      -7.7      4.141      7.729
REMARK  Name = 
REMARK  12 active torsions:
REMARK  status: ('A' for Active; 'I' for Inactive)
REMARK    1  A    between atoms: C_1  and  O_2
REMARK    2  A    between atoms: O_2  and  C_3
REMARK    3  A    between atoms: C_6  and  C_7
REMARK    4  A    between atoms: C_9  and  C_10
REMARK    5  A    between atoms: C_13  and  N_14
REMARK    6  A    between atoms: N_14  and  C_15
REMARK    7  A    between atoms: C_15  and  C_16
REMARK    8  A    between atoms: C_16  and  C_17
REMARK    9  A    between atoms: C_17  and  N_18
REMARK   10  A    between atoms: C_21  and  C_22
REMARK   11  A    between atoms: C_25  and  O_26
REMARK   12  A    between atoms: O_26  and  C_27
REMARK                            x       y       z     vdW  Elec       q    Type
REMARK                         _______ _______ _______ _____ _____    ______ ____
ROOT
ATOM      1  C   UNL     1       5.425   4.810  15.907  0.00  0.00    +0.000 A 
ATOM      2  C   UNL     1       4.990   4.228  14.681  0.00  0.00    +0.000 A 
ATOM      3  C   UNL     1       5.824   4.043  13.575  0.00  0.00    +0.000 A 
ATOM      4  C   UNL     1       5.386   3.241  12.388  0.00  0.00    +0.000 C 
ATOM      5  C   UNL     1       7.101   4.568  13.624  0.00  0.00    +0.000 A 
ATOM      6  C   UNL     1       7.542   5.211  14.780  0.00  0.00    +0.000 A 
ATOM      7  C   UNL     1       6.767   5.285  15.960  0.00  0.00    +0.000 A 
ENDROOT
BRANCH   1  11
ATOM      8  C   UNL     1       3.055   4.738  19.535  0.00  0.00    +0.000 A 
ATOM      9  C   UNL     1       3.616   3.567  19.025  0.00  0.00    +0.000 A 
ATOM     10  C   UNL     1       4.356   3.595  17.846  0.00  0.00    +0.000 A 
ATOM     11  C   UNL     1       4.480   4.760  17.073  0.00  0.00    +0.000 A 
ATOM     12  C   UNL     1       3.704   5.854  17.488  0.00  0.00    +0.000 A 
ATOM     13  C   UNL     1       3.036   5.882  18.730  0.00  0.00    +0.000 A 
BRANCH   8  15
ATOM     14  C   UNL     1       2.290   3.430  21.332  0.00  0.00    +0.000 C 
ATOM     15  O   UNL     1       2.532   4.744  20.802  0.00  0.00    +0.000 OA
ENDBRANCH   8  15
BRANCH  13  16
ATOM     16  O   UNL     1       2.480   7.106  18.981  0.00  0.00    +0.000 OA
ATOM     17  C   UNL     1       2.678   8.158  18.053  0.00  0.00    +0.000 C 
ENDBRANCH  13  16
ENDBRANCH   1  11
BRANCH   7  18
ATOM     18  N   UNL     1       7.337   5.857  17.138  0.00  0.00    +0.000 N 
ATOM     19  H   UNL     1       8.331   5.633  17.188  0.00  0.00    +0.000 HD
BRANCH  18  20
ATOM     20  C   UNL     1       7.030   7.262  17.381  0.00  0.00    +0.000 C 
BRANCH  20  21
ATOM     21  C   UNL     1       8.159   8.073  17.999  0.00  0.00    +0.000 C 
BRANCH  21  22
ATOM     22  C   UNL     1       7.821   9.544  17.728  0.00  0.00    +0.000 C 
BRANCH  22  23
ATOM     23  N   UNL     1       8.757  10.494  18.277  0.00  0.00    +0.000 N 
ATOM     24  C   UNL     1       8.973  11.759  17.814  0.00  0.00    +0.000 A 
ATOM     25  N   UNL     1       9.747  12.438  18.626  0.00  0.00    +0.000 NA
ATOM     26  C   UNL     1      10.032  11.581  19.665  0.00  0.00    +0.000 A 
ATOM     27  C   UNL     1      10.854  12.021  20.814  0.00  0.00    +0.000 C 
ATOM     28  C   UNL     1       9.436  10.357  19.456  0.00  0.00    +0.000 A 
ENDBRANCH  22  23
ENDBRANCH  21  22
ENDBRANCH  20  21
ENDBRANCH  18  20
ENDBRANCH   7  18
TORSDOF 8
ENDMDL
MODEL 9
REMARK VINA RESULT:      -7.6      1.494      2.098
REMARK  Name = 
REMARK  12 active torsions:
REMARK  status: ('A' for Active; 'I' for Inactive)
REMARK    1  A    between atoms: C_1  and  O_2
REMARK    2  A    between atoms: O_2  and  C_3
REMARK    3  A    between atoms: C_6  and  C_7
REMARK    4  A    between atoms: C_9  and  C_10
REMARK    5  A    between atoms: C_13  and  N_14
REMARK    6  A    between atoms: N_14  and  C_15
REMARK    7  A    between atoms: C_15  and  C_16
REMARK    8  A    between atoms: C_16  and  C_17
REMARK    9  A    between atoms: C_17  and  N_18
REMARK   10  A    between atoms: C_21  and  C_22
REMARK   11  A    between atoms: C_25  and  O_26
REMARK   12  A    between atoms: O_26  and  C_27
REMARK                            x       y       z     vdW  Elec       q    Type
REMARK                         _______ _______ _______ _____ _____    ______ ____
ROOT
ATOM      1  C   UNL     1       3.714   4.971  18.891  0.00  0.00    +0.000 A 
ATOM      2  C   UNL     1       3.628   3.853  19.771  0.00  0.00    +0.000 A 
ATOM      3  C   UNL     1       2.629   3.703  20.736  0.00  0.00    +0.000 A 
ATOM      4  C   UNL     1       2.454   2.423  21.492  0.00  0.00    +0.000 C 
ATOM      5  C   UNL     1       1.753   4.753  20.939  0.00  0.00    +0.000 A 
ATOM      6  C   UNL     1       1.849   5.898  20.148  0.00  0.00    +0.000 A 
ATOM      7  C   UNL     1       2.759   6.013  19.072  0.00  0.00    +0.000 A 
ENDROOT
BRANCH   1  11
ATOM      8  C   UNL     1       6.342   5.061  15.446  0.00  0.00    +0.000 A 
ATOM      9  C   UNL     1       5.300   4.136  15.526  0.00  0.00    +0.000 A 
ATOM     10  C   UNL     1       4.475   4.098  16.647  0.00  0.00    +0.000 A 
ATOM     11  C   UNL     1       4.714   4.901  17.774  0.00  0.00    +0.000 A 
ATOM     12  C   UNL     1       5.907   5.641  17.755  0.00  0.00    +0.000 A 
ATOM     13  C   UNL     1       6.697   5.776  16.595  0.00  0.00    +0.000 A 
BRANCH   8  15
ATOM     14  C   UNL     1       6.669   4.262  13.260  0.00  0.00    +0.000 C 
ATOM     15  O   UNL     1       6.995   5.246  14.255  0.00  0.00    +0.000 OA
ENDBRANCH   8  15
BRANCH  13  16
ATOM     16  O   UNL     1       7.719   6.667  16.776  0.00  0.00    +0.000 OA
ATOM     17  C   UNL     1       7.482   7.846  17.525  0.00  0.00    +0.000 C 
ENDBRANCH  13  16
ENDBRANCH   1  11
BRANCH   7  18
ATOM     18  N   UNL     1       2.713   7.170  18.236  0.00  0.00    +0.000 N 
ATOM     19  H   UNL     1       2.308   6.931  17.331  0.00  0.00    +0.000 HD
BRANCH  18  20
ATOM     20  C   UNL     1       2.153   8.374  18.840  0.00  0.00    +0.000 C 
BRANCH  20  21
ATOM     21  C   UNL     1       1.537   9.362  17.861  0.00  0.00    +0.000 C 
BRANCH  21  22
ATOM     22  C   UNL     1       0.563  10.218  18.678  0.00  0.00    +0.000 C 
BRANCH  22  23
ATOM     23  N   UNL     1       0.739  11.642  18.538  0.00  0.00    +0.000 N 
ATOM     24  C   UNL     1      -0.248  12.580  18.624  0.00  0.00    +0.000 A 
ATOM     25  N   UNL     1       0.247  13.794  18.633  0.00  0.00    +0.000 NA
ATOM     26  C   UNL     1       1.613  13.635  18.565  0.00  0.00    +0.000 A 
ATOM     27  C   UNL     1       2.521  14.802  18.603  0.00  0.00    +0.000 C 
ATOM     28  C   UNL     1       1.938  12.298  18.488  0.00  0.00    +0.000 A 
ENDBRANCH  22  23
ENDBRANCH  21  22
ENDBRANCH  20  21
ENDBRANCH  18  20
ENDBRANCH   7  18
TORSDOF 8
ENDMDL
