MODEL 1
REMARK VINA RESULT:      -7.2      0.000      0.000
REMARK  Name = 
REMARK  6 active torsions:
REMARK  status: ('A' for Active; 'I' for Inactive)
REMARK    1  A    between atoms: C_1  and  O_2
REMARK    2  A    between atoms: O_2  and  C_3
REMARK    3  A    between atoms: C_6  and  C_7
REMARK    4  A    between atoms: C_7  and  C_8
REMARK    5  A    between atoms: N_14  and  C_15
REMARK    6  A    between atoms: C_15  and  C_16
REMARK                            x       y       z     vdW  Elec       q    Type
REMARK                         _______ _______ _______ _____ _____    ______ ____
ROOT
ATOM      1  C   UNL     1       2.950   4.934  19.211  0.00  0.00    +0.000 C 
ATOM      2  C   UNL     1       2.480   5.856  18.085  0.00  0.00    +0.000 C 
ATOM      3  C   UNL     1       2.386   7.326  18.477  0.00  0.00    +0.000 C 
ATOM      4  N   UNL     1       1.643   7.569  19.713  0.00  0.00    +0.000 N 
ATOM      5  C   UNL     1       1.181   8.845  20.070  0.00  0.00    +0.000 C 
ATOM      6  O   UNL     1       0.799   9.125  21.204  0.00  0.00    +0.000 OA
ATOM      7  N   UNL     1       1.257   9.793  19.086  0.00  0.00    +0.000 N 
ATOM      8  C   UNL     1       1.947   6.686  20.837  0.00  0.00    +0.000 C 
ATOM      9  C   UNL     1       2.115   5.212  20.472  0.00  0.00    +0.000 C 
ATOM     10  H   UNL     1       1.192   9.500  18.127  0.00  0.00    +0.000 HD
ENDROOT
BRANCH   1  11
ATOM     11  C   UNL     1       4.480   4.973  19.451  0.00  0.00    +0.000 C 
BRANCH  11  15
ATOM     12  C   UNL     1       6.917   5.133  15.838  0.00  0.00    +0.000 A 
ATOM     13  C   UNL     1       7.027   6.125  16.815  0.00  0.00    +0.000 A 
ATOM     14  C   UNL     1       6.243   6.081  17.979  0.00  0.00    +0.000 A 
ATOM     15  C   UNL     1       5.316   5.050  18.179  0.00  0.00    +0.000 A 
ATOM     16  C   UNL     1       5.220   4.057  17.190  0.00  0.00    +0.000 A 
ATOM     17  C   UNL     1       6.002   4.103  16.030  0.00  0.00    +0.000 A 
BRANCH  12  19
ATOM     18  C   UNL     1       7.193   4.831  13.501  0.00  0.00    +0.000 C 
ATOM     19  O   UNL     1       7.722   5.288  14.742  0.00  0.00    +0.000 OA
ENDBRANCH  12  19
ENDBRANCH  11  15
ENDBRANCH   1  11
BRANCH   7  20
ATOM     20  C   UNL     1       0.867  11.172  19.299  0.00  0.00    +0.000 C 
BRANCH  20  21
ATOM     21  C   UNL     1      -0.610  11.353  19.023  0.00  0.00    +0.000 A 
ATOM     22  C   UNL     1      -1.220  10.639  17.996  0.00  0.00    +0.000 A 
ATOM     23  C   UNL     1      -2.586  10.785  17.785  0.00  0.00    +0.000 A 
ATOM     24  C   UNL     1      -3.314  11.638  18.608  0.00  0.00    +0.000 A 
ATOM     25  C   UNL     1      -2.638  12.299  19.619  0.00  0.00    +0.000 A 
ATOM     26  N   UNL     1      -1.312  12.172  19.853  0.00  0.00    +0.000 NA
ENDBRANCH  20  21
ENDBRANCH   7  20
TORSDOF 5
ENDMDL
MODEL 2
REMARK VINA RESULT:      -7.2      0.961      1.377
REMARK  Name = 
REMARK  6 active torsions:
REMARK  status: ('A' for Active; 'I' for Inactive)
REMARK    1  A    between atoms: C_1  and  O_2
REMARK    2  A    between atoms: O_2  and  C_3
REMARK    3  A    between atoms: C_6  and  C_7
REMARK    4  A    between atoms: C_7  and  C_8
REMARK    5  A    between atoms: N_14  and  C_15
REMARK    6  A    between atoms: C_15  and  C_16
REMARK                            x       y       z     vdW  Elec       q    Type
REMARK                         _______ _______ _______ _____ _____    ______ ____
ROOT
ATOM      1  C   UNL     1       3.161   4.050  18.962  0.00  0.00    +0.000 C 
ATOM      2  C   UNL     1       2.683   5.121  17.980  0.00  0.00    +0.000 C 
ATOM      3  C   UNL     1       2.625   6.527  18.565  0.00  0.00    +0.000 C 
ATOM      4  N   UNL     1       1.915   6.615  19.840  0.00  0.00    +0.000 N 
ATOM      5  C   UNL     1       1.485   7.839  20.375  0.00  0.00    +0.000 C 
ATOM      6  O   UNL     1       1.133   7.972  21.545  0.00  0.00    +0.000 OA
ATOM      7  N   UNL     1       1.556   8.908  19.523  0.00  0.00    +0.000 N 
ATOM      8  C   UNL     1       2.227   5.586  20.829  0.00  0.00    +0.000 C 
ATOM      9  C   UNL     1       2.360   4.172  20.269  0.00  0.00    +0.000 C 
ATOM     10  H   UNL     1       1.464   8.746  18.535  0.00  0.00    +0.000 HD
ENDROOT
BRANCH   1  11
ATOM     11  C   UNL     1       4.696   4.033  19.167  0.00  0.00    +0.000 C 
BRANCH  11  15
ATOM     12  C   UNL     1       6.959   5.146  15.609  0.00  0.00    +0.000 A 
ATOM     13  C   UNL     1       6.075   4.065  15.581  0.00  0.00    +0.000 A 
ATOM     14  C   UNL     1       5.345   3.700  16.724  0.00  0.00    +0.000 A 
ATOM     15  C   UNL     1       5.503   4.399  17.927  0.00  0.00    +0.000 A 
ATOM     16  C   UNL     1       6.391   5.487  17.939  0.00  0.00    +0.000 A 
ATOM     17  C   UNL     1       7.118   5.849  16.799  0.00  0.00    +0.000 A 
BRANCH  12  19
ATOM     18  C   UNL     1       7.141   4.724  13.281  0.00  0.00    +0.000 C 
ATOM     19  O   UNL     1       7.623   5.400  14.439  0.00  0.00    +0.000 OA
ENDBRANCH  12  19
ENDBRANCH  11  15
ENDBRANCH   1  11
BRANCH   7  20
ATOM     20  C   UNL     1       1.196  10.253  19.926  0.00  0.00    +0.000 C 
BRANCH  20  21
ATOM     21  C   UNL     1       0.074  10.783  19.060  0.00  0.00    +0.000 A 
ATOM     22  C   UNL     1      -0.743   9.899  18.360  0.00  0.00    +0.000 A 
ATOM     23  C   UNL     1      -1.796  10.401  17.604  0.00  0.00    +0.000 A 
ATOM     24  C   UNL     1      -2.014  11.774  17.569  0.00  0.00    +0.000 A 
ATOM     25  C   UNL     1      -1.169  12.586  18.308  0.00  0.00    +0.000 A 
ATOM     26  N   UNL     1      -0.142  12.126  19.057  0.00  0.00    +0.000 NA
ENDBRANCH  20  21
ENDBRANCH   7  20
TORSDOF 5
ENDMDL
MODEL 3
REMARK VINA RESULT:      -7.1      1.452      2.059
REMARK  Name = 
REMARK  6 active torsions:
REMARK  status: ('A' for Active; 'I' for Inactive)
REMARK    1  A    between atoms: C_1  and  O_2
REMARK    2  A    between atoms: O_2  and  C_3
REMARK    3  A    between atoms: C_6  and  C_7
REMARK    4  A    between atoms: C_7  and  C_8
REMARK    5  A    between atoms: N_14  and  C_15
REMARK    6  A    between atoms: C_15  and  C_16
REMARK                            x       y       z     vdW  Elec       q    Type
REMARK                         _______ _______ _______ _____ _____    ______ ____
ROOT
ATOM      1  C   UNL     1       2.370   3.033  18.895  0.00  0.00    +0.000 C 
ATOM      2  C   UNL     1       1.871   3.908  17.744  0.00  0.00    +0.000 C 
ATOM      3  C   UNL     1       2.294   5.370  17.840  0.00  0.00    +0.000 C 
ATOM      4  N   UNL     1       2.023   5.986  19.138  0.00  0.00    +0.000 N 
ATOM      5  C   UNL     1       2.044   7.377  19.325  0.00  0.00    +0.000 C 
ATOM      6  O   UNL     1       2.086   7.902  20.436  0.00  0.00    +0.000 OA
ATOM      7  N   UNL     1       2.095   8.122  18.179  0.00  0.00    +0.000 N 
ATOM      8  C   UNL     1       2.378   5.199  20.317  0.00  0.00    +0.000 C 
ATOM      9  C   UNL     1       2.031   3.715  20.230  0.00  0.00    +0.000 C 
ATOM     10  H   UNL     1       1.686   7.748  17.340  0.00  0.00    +0.000 HD
ENDROOT
BRANCH   1  11
ATOM     11  C   UNL     1       3.856   2.617  18.762  0.00  0.00    +0.000 C 
BRANCH  11  15
ATOM     12  C   UNL     1       6.499   5.623  17.033  0.00  0.00    +0.000 A 
ATOM     13  C   UNL     1       6.274   5.581  18.411  0.00  0.00    +0.000 A 
ATOM     14  C   UNL     1       5.422   4.618  18.974  0.00  0.00    +0.000 A 
ATOM     15  C   UNL     1       4.760   3.687  18.163  0.00  0.00    +0.000 A 
ATOM     16  C   UNL     1       5.000   3.737  16.780  0.00  0.00    +0.000 A 
ATOM     17  C   UNL     1       5.850   4.699  16.220  0.00  0.00    +0.000 A 
BRANCH  12  19
ATOM     18  C   UNL     1       7.668   7.622  17.548  0.00  0.00    +0.000 C 
ATOM     19  O   UNL     1       7.339   6.612  16.598  0.00  0.00    +0.000 OA
ENDBRANCH  12  19
ENDBRANCH  11  15
ENDBRANCH   1  11
BRANCH   7  20
ATOM     20  C   UNL     1       2.170   9.569  18.191  0.00  0.00    +0.000 C 
BRANCH  20  21
ATOM     21  C   UNL     1       0.808  10.168  18.466  0.00  0.00    +0.000 A 
ATOM     22  C   UNL     1      -0.293   9.773  17.712  0.00  0.00    +0.000 A 
ATOM     23  C   UNL     1      -1.545  10.301  18.008  0.00  0.00    +0.000 A 
ATOM     24  C   UNL     1      -1.670  11.208  19.054  0.00  0.00    +0.000 A 
ATOM     25  C   UNL     1      -0.531  11.536  19.770  0.00  0.00    +0.000 A 
ATOM     26  N   UNL     1       0.697  11.034  19.509  0.00  0.00    +0.000 NA
ENDBRANCH  20  21
ENDBRANCH   7  20
TORSDOF 5
ENDMDL
MODEL 4
REMARK VINA RESULT:      -7.0      0.729      1.159
REMARK  Name = 
REMARK  6 active torsions:
REMARK  status: ('A' for Active; 'I' for Inactive)
REMARK    1  A    between atoms: C_1  and  O_2
REMARK    2  A    between atoms: O_2  and  C_3
REMARK    3  A    between atoms: C_6  and  C_7
REMARK    4  A    between atoms: C_7  and  C_8
REMARK    5  A    between atoms: N_14  and  C_15
REMARK    6  A    between atoms: C_15  and  C_16
REMARK                            x       y       z     vdW  Elec       q    Type
REMARK                         _______ _______ _______ _____ _____    ______ ____
ROOT
ATOM      1  C   UNL     1       2.784   5.421  19.077  0.00  0.00    +0.000 C 
ATOM      2  C   UNL     1       2.344   6.526  18.115  0.00  0.00    +0.000 C 
ATOM      3  C   UNL     1       2.240   7.906  18.753  0.00  0.00    +0.000 C 
ATOM      4  N   UNL     1       1.465   7.936  19.992  0.00  0.00    +0.000 N 
ATOM      5  C   UNL     1       0.995   9.134  20.552  0.00  0.00    +0.000 C 
ATOM      6  O   UNL     1       0.583   9.215  21.708  0.00  0.00    +0.000 OA
ATOM      7  N   UNL     1       1.096  10.236  19.749  0.00  0.00    +0.000 N 
ATOM      8  C   UNL     1       1.739   6.871  20.954  0.00  0.00    +0.000 C 
ATOM      9  C   UNL     1       1.917   5.482  20.345  0.00  0.00    +0.000 C 
ATOM     10  H   UNL     1       1.056  10.114  18.752  0.00  0.00    +0.000 HD
ENDROOT
BRANCH   1  11
ATOM     11  C   UNL     1       4.307   5.410  19.359  0.00  0.00    +0.000 C 
BRANCH  11  15
ATOM     12  C   UNL     1       6.836   5.251  15.810  0.00  0.00    +0.000 A 
ATOM     13  C   UNL     1       7.102   6.165  16.833  0.00  0.00    +0.000 A 
ATOM     14  C   UNL     1       6.290   6.223  17.976  0.00  0.00    +0.000 A 
ATOM     15  C   UNL     1       5.180   5.379  18.110  0.00  0.00    +0.000 A 
ATOM     16  C   UNL     1       4.927   4.462  17.076  0.00  0.00    +0.000 A 
ATOM     17  C   UNL     1       5.738   4.406  15.936  0.00  0.00    +0.000 A 
BRANCH  12  19
ATOM     18  C   UNL     1       7.202   4.728  13.524  0.00  0.00    +0.000 C 
ATOM     19  O   UNL     1       7.687   5.294  14.739  0.00  0.00    +0.000 OA
ENDBRANCH  12  19
ENDBRANCH  11  15
ENDBRANCH   1  11
BRANCH   7  20
ATOM     20  C   UNL     1       0.701  11.560  20.186  0.00  0.00    +0.000 C 
BRANCH  20  21
ATOM     21  C   UNL     1      -0.772  11.786  19.925  0.00  0.00    +0.000 A 
ATOM     22  C   UNL     1      -1.561  12.417  20.883  0.00  0.00    +0.000 A 
ATOM     23  C   UNL     1      -2.903  12.655  20.609  0.00  0.00    +0.000 A 
ATOM     24  C   UNL     1      -3.427  12.263  19.382  0.00  0.00    +0.000 A 
ATOM     25  C   UNL     1      -2.573  11.658  18.474  0.00  0.00    +0.000 A 
ATOM     26  N   UNL     1      -1.263  11.420  18.710  0.00  0.00    +0.000 NA
ENDBRANCH  20  21
ENDBRANCH   7  20
TORSDOF 5
ENDMDL
MODEL 5
REMARK VINA RESULT:      -7.0      1.863      2.843
REMARK  Name = 
REMARK  6 active torsions:
REMARK  status: ('A' for Active; 'I' for Inactive)
REMARK    1  A    between atoms: C_1  and  O_2
REMARK    2  A    between atoms: O_2  and  C_3
REMARK    3  A    between atoms: C_6  and  C_7
REMARK    4  A    between atoms: C_7  and  C_8
REMARK    5  A    between atoms: N_14  and  C_15
REMARK    6  A    between atoms: C_15  and  C_16
REMARK                            x       y       z     vdW  Elec       q    Type
REMARK                         _______ _______ _______ _____ _____    ______ ____
ROOT
ATOM      1  C   UNL     1       2.800   5.700  19.075  0.00  0.00    +0.000 C 
ATOM      2  C   UNL     1       2.337   6.653  17.972  0.00  0.00    +0.000 C 
ATOM      3  C   UNL     1       2.212   8.107  18.412  0.00  0.00    +0.000 C 
ATOM      4  N   UNL     1       1.442   8.296  19.640  0.00  0.00    +0.000 N 
ATOM      5  C   UNL     1       0.953   9.552  20.032  0.00  0.00    +0.000 C 
ATOM      6  O   UNL     1       0.544   9.787  21.167  0.00  0.00    +0.000 OA
ATOM      7  N   UNL     1       1.032  10.534  19.082  0.00  0.00    +0.000 N 
ATOM      8  C   UNL     1       1.738   7.379  20.739  0.00  0.00    +0.000 C 
ATOM      9  C   UNL     1       1.937   5.922  20.328  0.00  0.00    +0.000 C 
ATOM     10  H   UNL     1       0.991  10.273  18.112  0.00  0.00    +0.000 HD
ENDROOT
BRANCH   1  11
ATOM     11  C   UNL     1       4.324   5.754  19.346  0.00  0.00    +0.000 C 
BRANCH  11  15
ATOM     12  C   UNL     1       6.844   5.169  15.835  0.00  0.00    +0.000 A 
ATOM     13  C   UNL     1       7.062   6.248  16.696  0.00  0.00    +0.000 A 
ATOM     14  C   UNL     1       6.252   6.444  17.826  0.00  0.00    +0.000 A 
ATOM     15  C   UNL     1       5.192   5.572  18.107  0.00  0.00    +0.000 A 
ATOM     16  C   UNL     1       4.989   4.489  17.236  0.00  0.00    +0.000 A 
ATOM     17  C   UNL     1       5.796   4.296  16.109  0.00  0.00    +0.000 A 
BRANCH  12  19
ATOM     18  C   UNL     1       7.088   4.753  13.512  0.00  0.00    +0.000 C 
ATOM     19  O   UNL     1       7.688   5.088  14.761  0.00  0.00    +0.000 OA
ENDBRANCH  12  19
ENDBRANCH  11  15
ENDBRANCH   1  11
BRANCH   7  20
ATOM     20  C   UNL     1       0.616  11.899  19.334  0.00  0.00    +0.000 C 
BRANCH  20  21
ATOM     21  C   UNL     1       1.821  12.798  19.503  0.00  0.00    +0.000 A 
ATOM     22  C   UNL     1       2.449  13.340  18.385  0.00  0.00    +0.000 A 
ATOM     23  C   UNL     1       3.528  14.198  18.561  0.00  0.00    +0.000 A 
ATOM     24  C   UNL     1       3.954  14.501  19.850  0.00  0.00    +0.000 A 
ATOM     25  C   UNL     1       3.265  13.936  20.911  0.00  0.00    +0.000 A 
ATOM     26  N   UNL     1       2.209  13.104  20.771  0.00  0.00    +0.000 NA
ENDBRANCH  20  21
ENDBRANCH   7  20
TORSDOF 5
ENDMDL
MODEL 6
REMARK VINA RESULT:      -7.0      5.196      7.606
REMARK  Name = 
REMARK  6 active torsions:
REMARK  status: ('A' for Active; 'I' for Inactive)
REMARK    1  A    between atoms: C_1  and  O_2
REMARK    2  A    between atoms: O_2  and  C_3
REMARK    3  A    between atoms: C_6  and  C_7
REMARK    4  A    between atoms: C_7  and  C_8
REMARK    5  A    between atoms: N_14  and  C_15
REMARK    6  A    between atoms: C_15  and  C_16
REMARK                            x       y       z     vdW  Elec       q    Type
REMARK                         _______ _______ _______ _____ _____    ______ ____
ROOT
ATOM      1  C   UNL     1       8.023   7.463  17.573  0.00  0.00    +0.000 C 
ATOM      2  C   UNL     1       7.371   6.697  16.421  0.00  0.00    +0.000 C 
ATOM      3  C   UNL     1       6.114   5.929  16.810  0.00  0.00    +0.000 C 
ATOM      4  N   UNL     1       6.273   5.082  17.992  0.00  0.00    +0.000 N 
ATOM      5  C   UNL     1       5.353   4.075  18.321  0.00  0.00    +0.000 C 
ATOM      6  O   UNL     1       5.314   3.540  19.427  0.00  0.00    +0.000 OA
ATOM      7  N   UNL     1       4.438   3.776  17.349  0.00  0.00    +0.000 N 
ATOM      8  C   UNL     1       6.965   5.682  19.131  0.00  0.00    +0.000 C 
ATOM      9  C   UNL     1       8.192   6.518  18.774  0.00  0.00    +0.000 C 
ATOM     10  H   UNL     1       4.696   3.908  16.386  0.00  0.00    +0.000 HD
ENDROOT
BRANCH   1  11
ATOM     11  C   UNL     1       7.310   8.794  17.919  0.00  0.00    +0.000 C 
BRANCH  11  15
ATOM     12  C   UNL     1       9.966  12.148  18.765  0.00  0.00    +0.000 A 
ATOM     13  C   UNL     1       8.974  12.255  17.787  0.00  0.00    +0.000 A 
ATOM     14  C   UNL     1       8.117  11.178  17.508  0.00  0.00    +0.000 A 
ATOM     15  C   UNL     1       8.251   9.961  18.190  0.00  0.00    +0.000 A 
ATOM     16  C   UNL     1       9.250   9.870  19.174  0.00  0.00    +0.000 A 
ATOM     17  C   UNL     1      10.104  10.945  19.450  0.00  0.00    +0.000 A 
BRANCH  12  19
ATOM     18  C   UNL     1      11.073  13.992  17.764  0.00  0.00    +0.000 C 
ATOM     19  O   UNL     1      10.748  13.257  18.940  0.00  0.00    +0.000 OA
ENDBRANCH  12  19
ENDBRANCH  11  15
ENDBRANCH   1  11
BRANCH   7  20
ATOM     20  C   UNL     1       3.389   2.795  17.538  0.00  0.00    +0.000 C 
BRANCH  20  21
ATOM     21  C   UNL     1       2.569   3.126  18.766  0.00  0.00    +0.000 A 
ATOM     22  C   UNL     1       1.919   4.354  18.860  0.00  0.00    +0.000 A 
ATOM     23  C   UNL     1       1.135   4.624  19.976  0.00  0.00    +0.000 A 
ATOM     24  C   UNL     1       1.014   3.661  20.971  0.00  0.00    +0.000 A 
ATOM     25  C   UNL     1       1.677   2.458  20.796  0.00  0.00    +0.000 A 
ATOM     26  N   UNL     1       2.440   2.164  19.719  0.00  0.00    +0.000 NA
ENDBRANCH  20  21
ENDBRANCH   7  20
TORSDOF 5
ENDMDL
MODEL 7
REMARK VINA RESULT:      -6.9      4.842      7.547
REMARK  Name = 
REMARK  6 active torsions:
REMARK  status: ('A' for Active; 'I' for Inactive)
REMARK    1  A    between atoms: C_1  and  O_2
REMARK    2  A    between atoms: O_2  and  C_3
REMARK    3  A    between atoms: C_6  and  C_7
REMARK    4  A    between atoms: C_7  and  C_8
REMARK    5  A    between atoms: N_14  and  C_15
REMARK    6  A    between atoms: C_15  and  C_16
REMARK                            x       y       z     vdW  Elec       q    Type
REMARK                         _______ _______ _______ _____ _____    ______ ____
ROOT
ATOM      1  C   UNL     1       8.033   7.443  17.559  0.00  0.00    +0.000 C 
ATOM      2  C   UNL     1       7.411   6.636  16.418  0.00  0.00    +0.000 C 
ATOM      3  C   UNL     1       6.157   5.862  16.809  0.00  0.00    +0.000 C 
ATOM      4  N   UNL     1       6.308   5.052  18.018  0.00  0.00    +0.000 N 
ATOM      5  C   UNL     1       5.395   4.043  18.361  0.00  0.00    +0.000 C 
ATOM      6  O   UNL     1       5.344   3.539  19.481  0.00  0.00    +0.000 OA
ATOM      7  N   UNL     1       4.502   3.703  17.382  0.00  0.00    +0.000 N 
ATOM      8  C   UNL     1       6.972   5.695  19.151  0.00  0.00    +0.000 C 
ATOM      9  C   UNL     1       8.194   6.536  18.789  0.00  0.00    +0.000 C 
ATOM     10  H   UNL     1       4.774   3.811  16.420  0.00  0.00    +0.000 HD
ENDROOT
BRANCH   1  11
ATOM     11  C   UNL     1       7.297   8.774  17.854  0.00  0.00    +0.000 C 
BRANCH  11  15
ATOM     12  C   UNL     1       9.965  12.112  18.723  0.00  0.00    +0.000 A 
ATOM     13  C   UNL     1      10.096  10.900  19.405  0.00  0.00    +0.000 A 
ATOM     14  C   UNL     1       9.239   9.823  19.131  0.00  0.00    +0.000 A 
ATOM     15  C   UNL     1       8.216   9.944  18.182  0.00  0.00    +0.000 A 
ATOM     16  C   UNL     1       8.100  11.167  17.500  0.00  0.00    +0.000 A 
ATOM     17  C   UNL     1       8.955  12.241  17.775  0.00  0.00    +0.000 A 
BRANCH  12  19
ATOM     18  C   UNL     1      12.064  12.658  19.686  0.00  0.00    +0.000 C 
ATOM     19  O   UNL     1      10.849  13.094  19.082  0.00  0.00    +0.000 OA
ENDBRANCH  12  19
ENDBRANCH  11  15
ENDBRANCH   1  11
BRANCH   7  20
ATOM     20  C   UNL     1       3.462   2.714  17.583  0.00  0.00    +0.000 C 
BRANCH  20  21
ATOM     21  C   UNL     1       2.514   3.155  18.677  0.00  0.00    +0.000 A 
ATOM     22  C   UNL     1       2.134   2.261  19.673  0.00  0.00    +0.000 A 
ATOM     23  C   UNL     1       1.297   2.697  20.694  0.00  0.00    +0.000 A 
ATOM     24  C   UNL     1       0.862   4.018  20.700  0.00  0.00    +0.000 A 
ATOM     25  C   UNL     1       1.299   4.851  19.684  0.00  0.00    +0.000 A 
ATOM     26  N   UNL     1       2.118   4.457  18.682  0.00  0.00    +0.000 NA
ENDBRANCH  20  21
ENDBRANCH   7  20
TORSDOF 5
ENDMDL
MODEL 8
REMARK VINA RESULT:      -6.9      3.390      9.076
REMARK  Name = 
REMARK  6 active torsions:
REMARK  status: ('A' for Active; 'I' for Inactive)
REMARK    1  A    between atoms: C_1  and  O_2
REMARK    2  A    between atoms: O_2  and  C_3
REMARK    3  A    between atoms: C_6  and  C_7
REMARK    4  A    between atoms: C_7  and  C_8
REMARK    5  A    between atoms: N_14  and  C_15
REMARK    6  A    between atoms: C_15  and  C_16
REMARK                            x       y       z     vdW  Elec       q    Type
REMARK                         _______ _______ _______ _____ _____    ______ ____
ROOT
ATOM      1  C   UNL     1      -0.088  11.279  20.063  0.00  0.00    +0.000 C 
ATOM      2  C   UNL     1      -0.174   9.983  20.871  0.00  0.00    +0.000 C 
ATOM      3  C   UNL     1       1.024   9.057  20.698  0.00  0.00    +0.000 C 
ATOM      4  N   UNL     1       1.382   8.796  19.305  0.00  0.00    +0.000 N 
ATOM      5  C   UNL     1       2.234   7.744  18.935  0.00  0.00    +0.000 C 
ATOM      6  O   UNL     1       2.758   7.666  17.826  0.00  0.00    +0.000 OA
ATOM      7  N   UNL     1       2.512   6.840  19.924  0.00  0.00    +0.000 N 
ATOM      8  C   UNL     1       1.409   9.954  18.414  0.00  0.00    +0.000 C 
ATOM      9  C   UNL     1       0.260  10.942  18.604  0.00  0.00    +0.000 C 
ATOM     10  H   UNL     1       1.829   6.686  20.644  0.00  0.00    +0.000 HD
ENDROOT
BRANCH   1  11
ATOM     11  C   UNL     1       0.835  12.349  20.696  0.00  0.00    +0.000 C 
BRANCH  11  15
ATOM     12  C   UNL     1       0.831  16.239  18.725  0.00  0.00    +0.000 A 
ATOM     13  C   UNL     1      -0.355  15.689  19.218  0.00  0.00    +0.000 A 
ATOM     14  C   UNL     1      -0.361  14.436  19.851  0.00  0.00    +0.000 A 
ATOM     15  C   UNL     1       0.821  13.697  19.986  0.00  0.00    +0.000 A 
ATOM     16  C   UNL     1       2.007  14.264  19.490  0.00  0.00    +0.000 A 
ATOM     17  C   UNL     1       2.011  15.513  18.859  0.00  0.00    +0.000 A 
BRANCH  12  19
ATOM     18  C   UNL     1      -0.550  17.747  17.522  0.00  0.00    +0.000 C 
ATOM     19  O   UNL     1       0.712  17.459  18.118  0.00  0.00    +0.000 OA
ENDBRANCH  12  19
ENDBRANCH  11  15
ENDBRANCH   1  11
BRANCH   7  20
ATOM     20  C   UNL     1       3.411   5.720  19.728  0.00  0.00    +0.000 C 
BRANCH  20  21
ATOM     21  C   UNL     1       2.629   4.463  19.412  0.00  0.00    +0.000 A 
ATOM     22  C   UNL     1       1.512   4.128  20.172  0.00  0.00    +0.000 A 
ATOM     23  C   UNL     1       0.780   2.994  19.841  0.00  0.00    +0.000 A 
ATOM     24  C   UNL     1       1.177   2.221  18.755  0.00  0.00    +0.000 A 
ATOM     25  C   UNL     1       2.289   2.631  18.037  0.00  0.00    +0.000 A 
ATOM     26  N   UNL     1       3.015   3.733  18.332  0.00  0.00    +0.000 NA
ENDBRANCH  20  21
ENDBRANCH   7  20
TORSDOF 5
ENDMDL
MODEL 9
REMARK VINA RESULT:      -6.8      1.029      1.701
REMARK  Name = 
REMARK  6 active torsions:
REMARK  status: ('A' for Active; 'I' for Inactive)
REMARK    1  A    between atoms: C_1  and  O_2
REMARK    2  A    between atoms: O_2  and  C_3
REMARK    3  A    between atoms: C_6  and  C_7
REMARK    4  A    between atoms: C_7  and  C_8
REMARK    5  A    between atoms: N_14  and  C_15
REMARK    6  A    between atoms: C_15  and  C_16
REMARK                            x       y       z     vdW  Elec       q    Type
REMARK                         _______ _______ _______ _____ _____    ______ ____
ROOT
ATOM      1  C   UNL     1       2.877   4.281  18.771  0.00  0.00    +0.000 C 
ATOM      2  C   UNL     1       2.523   5.541  17.979  0.00  0.00    +0.000 C 
ATOM      3  C   UNL     1       2.487   6.816  18.814  0.00  0.00    +0.000 C 
ATOM      4  N   UNL     1       1.689   6.709  20.035  0.00  0.00    +0.000 N 
ATOM      5  C   UNL     1       1.277   7.836  20.761  0.00  0.00    +0.000 C 
ATOM      6  O   UNL     1       0.846   7.771  21.910  0.00  0.00    +0.000 OA
ATOM      7  N   UNL     1       1.460   9.038  20.132  0.00  0.00    +0.000 N 
ATOM      8  C   UNL     1       1.879   5.498  20.830  0.00  0.00    +0.000 C 
ATOM      9  C   UNL     1       1.988   4.206  20.023  0.00  0.00    +0.000 C 
ATOM     10  H   UNL     1       1.434   9.067  19.128  0.00  0.00    +0.000 HD
ENDROOT
BRANCH   1  11
ATOM     11  C   UNL     1       4.390   4.136  19.067  0.00  0.00    +0.000 C 
BRANCH  11  15
ATOM     12  C   UNL     1       6.948   5.144  15.681  0.00  0.00    +0.000 A 
ATOM     13  C   UNL     1       6.010   4.114  15.582  0.00  0.00    +0.000 A 
ATOM     14  C   UNL     1       5.185   3.782  16.669  0.00  0.00    +0.000 A 
ATOM     15  C   UNL     1       5.298   4.464  17.888  0.00  0.00    +0.000 A 
ATOM     16  C   UNL     1       6.243   5.501  17.971  0.00  0.00    +0.000 A 
ATOM     17  C   UNL     1       7.065   5.829  16.886  0.00  0.00    +0.000 A 
BRANCH  12  19
ATOM     18  C   UNL     1       7.211   4.809  13.347  0.00  0.00    +0.000 C 
ATOM     19  O   UNL     1       7.703   5.368  14.562  0.00  0.00    +0.000 OA
ENDBRANCH  12  19
ENDBRANCH  11  15
ENDBRANCH   1  11
BRANCH   7  20
ATOM     20  C   UNL     1       1.134  10.304  20.757  0.00  0.00    +0.000 C 
BRANCH  20  21
ATOM     21  C   UNL     1       0.297  11.154  19.827  0.00  0.00    +0.000 A 
ATOM     22  C   UNL     1       0.785  12.374  19.368  0.00  0.00    +0.000 A 
ATOM     23  C   UNL     1       0.021  13.121  18.479  0.00  0.00    +0.000 A 
ATOM     24  C   UNL     1      -1.212  12.631  18.063  0.00  0.00    +0.000 A 
ATOM     25  C   UNL     1      -1.620  11.400  18.550  0.00  0.00    +0.000 A 
ATOM     26  N   UNL     1      -0.896  10.648  19.410  0.00  0.00    +0.000 NA
ENDBRANCH  20  21
ENDBRANCH   7  20
TORSDOF 5
ENDMDL
