MODEL 1
REMARK VINA RESULT:      -5.1      0.000      0.000
REMARK  Name = 
REMARK  11 active torsions:
REMARK  status: ('A' for Active; 'I' for Inactive)
REMARK    1  A    between atoms: C_1  and  C_2
REMARK    2  A    between atoms: C_2  and  C_3
REMARK    3  A    between atoms: C_2  and  N_12
REMARK    4  A    between atoms: C_3  and  C_4
REMARK    5  A    between atoms: C_4  and  O_5
REMARK    6  A    between atoms: O_5  and  C_6
REMARK    7  A    between atoms: N_8  and  C_9
REMARK    8  A    between atoms: C_9  and  C_10
REMARK    9  A    between atoms: C_10  and  O_11
REMARK   10  A    between atoms: N_12  and  C_13
REMARK   11  A    between atoms: N_12  and  C_14
REMARK                            x       y       z     vdW  Elec       q    Type
REMARK                         _______ _______ _______ _____ _____    ______ ____
ROOT
ATOM      1  O   UNL     1       4.084   4.180  18.171  0.00  0.00    +0.000 OA
ENDROOT
BRANCH   1   2
ATOM      2  C   UNL     1       5.212   4.695  17.632  0.00  0.00    +0.000 C 
ATOM      3  O   UNL     1       5.268   5.531  16.738  0.00  0.00    +0.000 OA
ATOM      4  N   UNL     1       6.301   4.201  18.284  0.00  0.00    +0.000 N 
ATOM      5  H   UNL     1       6.136   3.529  19.015  0.00  0.00    +0.000 HD
BRANCH   4   6
ATOM      6  C   UNL     1       7.615   4.787  18.090  0.00  0.00    +0.000 C 
BRANCH   6   7
ATOM      7  C   UNL     1       7.882   5.935  19.069  0.00  0.00    +0.000 C 
BRANCH   7   8
ATOM      8  O   UNL     1       8.071   5.420  20.388  0.00  0.00    +0.000 OA
ATOM      9  H   UNL     1       7.262   5.645  20.881  0.00  0.00    +0.000 HD
ENDBRANCH   7   8
ENDBRANCH   6   7
ENDBRANCH   4   6
ENDBRANCH   1   2
BRANCH   1  10
ATOM     10  C   UNL     1       3.758   2.840  17.750  0.00  0.00    +0.000 C 
BRANCH  10  11
ATOM     11  C   UNL     1       3.424   2.007  18.982  0.00  0.00    +0.000 C 
BRANCH  11  13
ATOM     12  C   UNL     1       1.077   2.700  18.412  0.00  0.00    +0.000 C 
ATOM     13  C   UNL     1       2.015   2.283  19.565  0.00  0.00    +0.000 C 
BRANCH  13  14
ATOM     14  N   UNL     1       2.016   3.278  20.670  0.00  0.00    +0.000 NA
ATOM     15  C   UNL     1       1.031   4.347  20.446  0.00  0.00    +0.000 C 
ATOM     16  C   UNL     1       1.729   2.664  21.974  0.00  0.00    +0.000 C 
ENDBRANCH  13  14
ENDBRANCH  11  13
ENDBRANCH  10  11
ENDBRANCH   1  10
TORSDOF 8
ENDMDL
MODEL 2
REMARK VINA RESULT:      -5.1      1.654      2.280
REMARK  Name = 
REMARK  11 active torsions:
REMARK  status: ('A' for Active; 'I' for Inactive)
REMARK    1  A    between atoms: C_1  and  C_2
REMARK    2  A    between atoms: C_2  and  C_3
REMARK    3  A    between atoms: C_2  and  N_12
REMARK    4  A    between atoms: C_3  and  C_4
REMARK    5  A    between atoms: C_4  and  O_5
REMARK    6  A    between atoms: O_5  and  C_6
REMARK    7  A    between atoms: N_8  and  C_9
REMARK    8  A    between atoms: C_9  and  C_10
REMARK    9  A    between atoms: C_10  and  O_11
REMARK   10  A    between atoms: N_12  and  C_13
REMARK   11  A    between atoms: N_12  and  C_14
REMARK                            x       y       z     vdW  Elec       q    Type
REMARK                         _______ _______ _______ _____ _____    ______ ____
ROOT
ATOM      1  O   UNL     1       4.825   4.914  19.577  0.00  0.00    +0.000 OA
ENDROOT
BRANCH   1   2
ATOM      2  C   UNL     1       6.046   5.395  19.250  0.00  0.00    +0.000 C 
ATOM      3  O   UNL     1       7.068   5.280  19.915  0.00  0.00    +0.000 OA
ATOM      4  N   UNL     1       5.997   5.972  18.018  0.00  0.00    +0.000 N 
ATOM      5  H   UNL     1       5.104   5.998  17.554  0.00  0.00    +0.000 HD
BRANCH   4   6
ATOM      6  C   UNL     1       7.216   6.328  17.313  0.00  0.00    +0.000 C 
BRANCH   6   7
ATOM      7  C   UNL     1       7.699   7.736  17.677  0.00  0.00    +0.000 C 
BRANCH   7   8
ATOM      8  O   UNL     1       8.540   7.682  18.831  0.00  0.00    +0.000 OA
ATOM      9  H   UNL     1       8.991   8.544  18.873  0.00  0.00    +0.000 HD
ENDBRANCH   7   8
ENDBRANCH   6   7
ENDBRANCH   4   6
ENDBRANCH   1   2
BRANCH   1  10
ATOM     10  C   UNL     1       3.737   5.394  18.762  0.00  0.00    +0.000 C 
BRANCH  10  11
ATOM     11  C   UNL     1       2.866   4.209  18.362  0.00  0.00    +0.000 C 
BRANCH  11  13
ATOM     12  C   UNL     1       3.385   1.754  18.253  0.00  0.00    +0.000 C 
ATOM     13  C   UNL     1       3.109   2.934  19.208  0.00  0.00    +0.000 C 
BRANCH  13  14
ATOM     14  N   UNL     1       2.005   2.636  20.158  0.00  0.00    +0.000 NA
ATOM     15  C   UNL     1       2.444   2.736  21.558  0.00  0.00    +0.000 C 
ATOM     16  C   UNL     1       0.856   3.534  19.978  0.00  0.00    +0.000 C 
ENDBRANCH  13  14
ENDBRANCH  11  13
ENDBRANCH  10  11
ENDBRANCH   1  10
TORSDOF 8
ENDMDL
MODEL 3
REMARK VINA RESULT:      -5.1      0.842      1.222
REMARK  Name = 
REMARK  11 active torsions:
REMARK  status: ('A' for Active; 'I' for Inactive)
REMARK    1  A    between atoms: C_1  and  C_2
REMARK    2  A    between atoms: C_2  and  C_3
REMARK    3  A    between atoms: C_2  and  N_12
REMARK    4  A    between atoms: C_3  and  C_4
REMARK    5  A    between atoms: C_4  and  O_5
REMARK    6  A    between atoms: O_5  and  C_6
REMARK    7  A    between atoms: N_8  and  C_9
REMARK    8  A    between atoms: C_9  and  C_10
REMARK    9  A    between atoms: C_10  and  O_11
REMARK   10  A    between atoms: N_12  and  C_13
REMARK   11  A    between atoms: N_12  and  C_14
REMARK                            x       y       z     vdW  Elec       q    Type
REMARK                         _______ _______ _______ _____ _____    ______ ____
ROOT
ATOM      1  O   UNL     1       4.623   3.591  17.379  0.00  0.00    +0.000 OA
ENDROOT
BRANCH   1   2
ATOM      2  C   UNL     1       5.723   4.335  17.122  0.00  0.00    +0.000 C 
ATOM      3  O   UNL     1       5.839   5.166  16.229  0.00  0.00    +0.000 OA
ATOM      4  N   UNL     1       6.679   4.080  18.057  0.00  0.00    +0.000 N 
ATOM      5  H   UNL     1       6.470   3.386  18.755  0.00  0.00    +0.000 HD
BRANCH   4   6
ATOM      6  C   UNL     1       7.850   4.931  18.176  0.00  0.00    +0.000 C 
BRANCH   6   7
ATOM      7  C   UNL     1       7.700   5.957  19.305  0.00  0.00    +0.000 C 
BRANCH   7   8
ATOM      8  O   UNL     1       8.118   5.386  20.545  0.00  0.00    +0.000 OA
ATOM      9  H   UNL     1       8.637   4.595  20.314  0.00  0.00    +0.000 HD
ENDBRANCH   7   8
ENDBRANCH   6   7
ENDBRANCH   4   6
ENDBRANCH   1   2
BRANCH   1  10
ATOM     10  C   UNL     1       3.998   3.839  18.655  0.00  0.00    +0.000 C 
BRANCH  10  11
ATOM     11  C   UNL     1       3.111   2.651  19.005  0.00  0.00    +0.000 C 
BRANCH  11  13
ATOM     12  C   UNL     1       1.348   4.067  17.909  0.00  0.00    +0.000 C 
ATOM     13  C   UNL     1       1.594   2.963  18.959  0.00  0.00    +0.000 C 
BRANCH  13  14
ATOM     14  N   UNL     1       1.024   3.320  20.285  0.00  0.00    +0.000 NA
ATOM     15  C   UNL     1       1.707   2.620  21.383  0.00  0.00    +0.000 C 
ATOM     16  C   UNL     1       1.097   4.763  20.554  0.00  0.00    +0.000 C 
ENDBRANCH  13  14
ENDBRANCH  11  13
ENDBRANCH  10  11
ENDBRANCH   1  10
TORSDOF 8
ENDMDL
MODEL 4
REMARK VINA RESULT:      -5.0      1.432      2.351
REMARK  Name = 
REMARK  11 active torsions:
REMARK  status: ('A' for Active; 'I' for Inactive)
REMARK    1  A    between atoms: C_1  and  C_2
REMARK    2  A    between atoms: C_2  and  C_3
REMARK    3  A    between atoms: C_2  and  N_12
REMARK    4  A    between atoms: C_3  and  C_4
REMARK    5  A    between atoms: C_4  and  O_5
REMARK    6  A    between atoms: O_5  and  C_6
REMARK    7  A    between atoms: N_8  and  C_9
REMARK    8  A    between atoms: C_9  and  C_10
REMARK    9  A    between atoms: C_10  and  O_11
REMARK   10  A    between atoms: N_12  and  C_13
REMARK   11  A    between atoms: N_12  and  C_14
REMARK                            x       y       z     vdW  Elec       q    Type
REMARK                         _______ _______ _______ _____ _____    ______ ____
ROOT
ATOM      1  O   UNL     1       4.601   4.172  19.509  0.00  0.00    +0.000 OA
ENDROOT
BRANCH   1   2
ATOM      2  C   UNL     1       5.656   4.885  19.053  0.00  0.00    +0.000 C 
ATOM      3  O   UNL     1       6.629   5.233  19.711  0.00  0.00    +0.000 OA
ATOM      4  N   UNL     1       5.519   5.104  17.716  0.00  0.00    +0.000 N 
ATOM      5  H   UNL     1       4.683   4.759  17.274  0.00  0.00    +0.000 HD
BRANCH   4   6
ATOM      6  C   UNL     1       6.629   5.607  16.926  0.00  0.00    +0.000 C 
BRANCH   6   7
ATOM      7  C   UNL     1       7.054   4.616  15.837  0.00  0.00    +0.000 C 
BRANCH   7   8
ATOM      8  O   UNL     1       6.155   3.506  15.808  0.00  0.00    +0.000 OA
ATOM      9  H   UNL     1       5.266   3.886  15.691  0.00  0.00    +0.000 HD
ENDBRANCH   7   8
ENDBRANCH   6   7
ENDBRANCH   4   6
ENDBRANCH   1   2
BRANCH   1  10
ATOM     10  C   UNL     1       4.043   3.232  18.570  0.00  0.00    +0.000 C 
BRANCH  10  11
ATOM     11  C   UNL     1       2.993   2.389  19.285  0.00  0.00    +0.000 C 
BRANCH  11  13
ATOM     12  C   UNL     1       1.522   3.954  17.982  0.00  0.00    +0.000 C 
ATOM     13  C   UNL     1       1.546   2.919  19.126  0.00  0.00    +0.000 C 
BRANCH  13  14
ATOM     14  N   UNL     1       0.975   3.466  20.385  0.00  0.00    +0.000 NA
ATOM     15  C   UNL     1       1.429   2.716  21.565  0.00  0.00    +0.000 C 
ATOM     16  C   UNL     1       1.322   4.880  20.586  0.00  0.00    +0.000 C 
ENDBRANCH  13  14
ENDBRANCH  11  13
ENDBRANCH  10  11
ENDBRANCH   1  10
TORSDOF 8
ENDMDL
MODEL 5
REMARK VINA RESULT:      -5.0      2.052      5.687
REMARK  Name = 
REMARK  11 active torsions:
REMARK  status: ('A' for Active; 'I' for Inactive)
REMARK    1  A    between atoms: C_1  and  C_2
REMARK    2  A    between atoms: C_2  and  C_3
REMARK    3  A    between atoms: C_2  and  N_12
REMARK    4  A    between atoms: C_3  and  C_4
REMARK    5  A    between atoms: C_4  and  O_5
REMARK    6  A    between atoms: O_5  and  C_6
REMARK    7  A    between atoms: N_8  and  C_9
REMARK    8  A    between atoms: C_9  and  C_10
REMARK    9  A    between atoms: C_10  and  O_11
REMARK   10  A    between atoms: N_12  and  C_13
REMARK   11  A    between atoms: N_12  and  C_14
REMARK                            x       y       z     vdW  Elec       q    Type
REMARK                         _______ _______ _______ _____ _____    ______ ____
ROOT
ATOM      1  O   UNL     1       4.310   4.371  18.542  0.00  0.00    +0.000 OA
ENDROOT
BRANCH   1   2
ATOM      2  C   UNL     1       3.819   3.268  19.151  0.00  0.00    +0.000 C 
ATOM      3  O   UNL     1       4.467   2.450  19.792  0.00  0.00    +0.000 OA
ATOM      4  N   UNL     1       2.465   3.232  19.013  0.00  0.00    +0.000 N 
ATOM      5  H   UNL     1       2.035   3.967  18.476  0.00  0.00    +0.000 HD
BRANCH   4   6
ATOM      6  C   UNL     1       1.662   2.307  19.793  0.00  0.00    +0.000 C 
BRANCH   6   7
ATOM      7  C   UNL     1       1.263   2.898  21.150  0.00  0.00    +0.000 C 
BRANCH   7   8
ATOM      8  O   UNL     1       2.293   2.660  22.109  0.00  0.00    +0.000 OA
ATOM      9  H   UNL     1       2.130   3.286  22.838  0.00  0.00    +0.000 HD
ENDBRANCH   7   8
ENDBRANCH   6   7
ENDBRANCH   4   6
ENDBRANCH   1   2
BRANCH   1  10
ATOM     10  C   UNL     1       4.121   4.420  17.113  0.00  0.00    +0.000 C 
BRANCH  10  11
ATOM     11  C   UNL     1       4.801   5.672  16.572  0.00  0.00    +0.000 C 
BRANCH  11  13
ATOM     12  C   UNL     1       6.077   3.940  15.275  0.00  0.00    +0.000 C 
ATOM     13  C   UNL     1       6.114   5.391  15.798  0.00  0.00    +0.000 C 
BRANCH  13  14
ATOM     14  N   UNL     1       7.340   5.665  16.593  0.00  0.00    +0.000 NA
ATOM     15  C   UNL     1       7.231   6.918  17.355  0.00  0.00    +0.000 C 
ATOM     16  C   UNL     1       7.643   4.584  17.541  0.00  0.00    +0.000 C 
ENDBRANCH  13  14
ENDBRANCH  11  13
ENDBRANCH  10  11
ENDBRANCH   1  10
TORSDOF 8
ENDMDL
MODEL 6
REMARK VINA RESULT:      -5.0      1.939      2.991
REMARK  Name = 
REMARK  11 active torsions:
REMARK  status: ('A' for Active; 'I' for Inactive)
REMARK    1  A    between atoms: C_1  and  C_2
REMARK    2  A    between atoms: C_2  and  C_3
REMARK    3  A    between atoms: C_2  and  N_12
REMARK    4  A    between atoms: C_3  and  C_4
REMARK    5  A    between atoms: C_4  and  O_5
REMARK    6  A    between atoms: O_5  and  C_6
REMARK    7  A    between atoms: N_8  and  C_9
REMARK    8  A    between atoms: C_9  and  C_10
REMARK    9  A    between atoms: C_10  and  O_11
REMARK   10  A    between atoms: N_12  and  C_13
REMARK   11  A    between atoms: N_12  and  C_14
REMARK                            x       y       z     vdW  Elec       q    Type
REMARK                         _______ _______ _______ _____ _____    ______ ____
ROOT
ATOM      1  O   UNL     1       5.356   5.459  19.343  0.00  0.00    +0.000 OA
ENDROOT
BRANCH   1   2
ATOM      2  C   UNL     1       6.026   4.880  18.321  0.00  0.00    +0.000 C 
ATOM      3  O   UNL     1       7.162   4.425  18.370  0.00  0.00    +0.000 OA
ATOM      4  N   UNL     1       5.219   4.804  17.227  0.00  0.00    +0.000 N 
ATOM      5  H   UNL     1       4.296   5.198  17.305  0.00  0.00    +0.000 HD
BRANCH   4   6
ATOM      6  C   UNL     1       5.591   3.991  16.082  0.00  0.00    +0.000 C 
BRANCH   6   7
ATOM      7  C   UNL     1       6.297   4.814  15.000  0.00  0.00    +0.000 C 
BRANCH   7   8
ATOM      8  O   UNL     1       7.694   4.902  15.284  0.00  0.00    +0.000 OA
ATOM      9  H   UNL     1       7.777   5.527  16.026  0.00  0.00    +0.000 HD
ENDBRANCH   7   8
ENDBRANCH   6   7
ENDBRANCH   4   6
ENDBRANCH   1   2
BRANCH   1  10
ATOM     10  C   UNL     1       3.937   5.611  19.139  0.00  0.00    +0.000 C 
BRANCH  10  11
ATOM     11  C   UNL     1       3.202   4.709  20.124  0.00  0.00    +0.000 C 
BRANCH  11  13
ATOM     12  C   UNL     1       0.944   3.609  20.138  0.00  0.00    +0.000 C 
ATOM     13  C   UNL     1       2.325   3.624  19.450  0.00  0.00    +0.000 C 
BRANCH  13  14
ATOM     14  N   UNL     1       2.956   2.278  19.437  0.00  0.00    +0.000 NA
ATOM     15  C   UNL     1       3.269   1.832  18.071  0.00  0.00    +0.000 C 
ATOM     16  C   UNL     1       4.198   2.236  20.223  0.00  0.00    +0.000 C 
ENDBRANCH  13  14
ENDBRANCH  11  13
ENDBRANCH  10  11
ENDBRANCH   1  10
TORSDOF 8
ENDMDL
MODEL 7
REMARK VINA RESULT:      -5.0      1.772      2.921
REMARK  Name = 
REMARK  11 active torsions:
REMARK  status: ('A' for Active; 'I' for Inactive)
REMARK    1  A    between atoms: C_1  and  C_2
REMARK    2  A    between atoms: C_2  and  C_3
REMARK    3  A    between atoms: C_2  and  N_12
REMARK    4  A    between atoms: C_3  and  C_4
REMARK    5  A    between atoms: C_4  and  O_5
REMARK    6  A    between atoms: O_5  and  C_6
REMARK    7  A    between atoms: N_8  and  C_9
REMARK    8  A    between atoms: C_9  and  C_10
REMARK    9  A    between atoms: C_10  and  O_11
REMARK   10  A    between atoms: N_12  and  C_13
REMARK   11  A    between atoms: N_12  and  C_14
REMARK                            x       y       z     vdW  Elec       q    Type
REMARK                         _______ _______ _______ _____ _____    ______ ____
ROOT
ATOM      1  O   UNL     1       4.442   5.735  19.470  0.00  0.00    +0.000 OA
ENDROOT
BRANCH   1   2
ATOM      2  C   UNL     1       5.411   4.848  19.150  0.00  0.00    +0.000 C 
ATOM      3  O   UNL     1       5.413   3.653  19.419  0.00  0.00    +0.000 OA
ATOM      4  N   UNL     1       6.370   5.465  18.405  0.00  0.00    +0.000 N 
ATOM      5  H   UNL     1       6.259   6.451  18.232  0.00  0.00    +0.000 HD
BRANCH   4   6
ATOM      6  C   UNL     1       7.382   4.693  17.706  0.00  0.00    +0.000 C 
BRANCH   6   7
ATOM      7  C   UNL     1       7.035   4.503  16.225  0.00  0.00    +0.000 C 
BRANCH   7   8
ATOM      8  O   UNL     1       6.069   3.462  16.078  0.00  0.00    +0.000 OA
ATOM      9  H   UNL     1       5.486   3.527  16.856  0.00  0.00    +0.000 HD
ENDBRANCH   7   8
ENDBRANCH   6   7
ENDBRANCH   4   6
ENDBRANCH   1   2
BRANCH   1  10
ATOM     10  C   UNL     1       3.251   5.163  20.047  0.00  0.00    +0.000 C 
BRANCH  10  11
ATOM     11  C   UNL     1       2.164   5.115  18.980  0.00  0.00    +0.000 C 
BRANCH  11  13
ATOM     12  C   UNL     1       1.155   3.385  20.497  0.00  0.00    +0.000 C 
ATOM     13  C   UNL     1       1.291   3.836  19.027  0.00  0.00    +0.000 C 
BRANCH  13  14
ATOM     14  N   UNL     1       1.795   2.743  18.154  0.00  0.00    +0.000 NA
ATOM     15  C   UNL     1       2.667   3.252  17.085  0.00  0.00    +0.000 C 
ATOM     16  C   UNL     1       2.547   1.730  18.908  0.00  0.00    +0.000 C 
ENDBRANCH  13  14
ENDBRANCH  11  13
ENDBRANCH  10  11
ENDBRANCH   1  10
TORSDOF 8
ENDMDL
MODEL 8
REMARK VINA RESULT:      -4.9      2.106      5.805
REMARK  Name = 
REMARK  11 active torsions:
REMARK  status: ('A' for Active; 'I' for Inactive)
REMARK    1  A    between atoms: C_1  and  C_2
REMARK    2  A    between atoms: C_2  and  C_3
REMARK    3  A    between atoms: C_2  and  N_12
REMARK    4  A    between atoms: C_3  and  C_4
REMARK    5  A    between atoms: C_4  and  O_5
REMARK    6  A    between atoms: O_5  and  C_6
REMARK    7  A    between atoms: N_8  and  C_9
REMARK    8  A    between atoms: C_9  and  C_10
REMARK    9  A    between atoms: C_10  and  O_11
REMARK   10  A    between atoms: N_12  and  C_13
REMARK   11  A    between atoms: N_12  and  C_14
REMARK                            x       y       z     vdW  Elec       q    Type
REMARK                         _______ _______ _______ _____ _____    ______ ____
ROOT
ATOM      1  O   UNL     1       5.889   4.200  19.487  0.00  0.00    +0.000 OA
ENDROOT
BRANCH   1   2
ATOM      2  C   UNL     1       4.546   4.077  19.395  0.00  0.00    +0.000 C 
ATOM      3  O   UNL     1       3.750   4.987  19.196  0.00  0.00    +0.000 OA
ATOM      4  N   UNL     1       4.198   2.764  19.482  0.00  0.00    +0.000 N 
ATOM      5  H   UNL     1       4.938   2.098  19.632  0.00  0.00    +0.000 HD
BRANCH   4   6
ATOM      6  C   UNL     1       2.854   2.325  19.147  0.00  0.00    +0.000 C 
BRANCH   6   7
ATOM      7  C   UNL     1       2.669   2.152  17.635  0.00  0.00    +0.000 C 
BRANCH   7   8
ATOM      8  O   UNL     1       2.064   3.320  17.079  0.00  0.00    +0.000 OA
ATOM      9  H   UNL     1       1.103   3.166  17.114  0.00  0.00    +0.000 HD
ENDBRANCH   7   8
ENDBRANCH   6   7
ENDBRANCH   4   6
ENDBRANCH   1   2
BRANCH   1  10
ATOM     10  C   UNL     1       6.414   5.493  19.124  0.00  0.00    +0.000 C 
BRANCH  10  11
ATOM     11  C   UNL     1       7.523   5.299  18.096  0.00  0.00    +0.000 C 
BRANCH  11  13
ATOM     12  C   UNL     1       5.791   6.493  16.722  0.00  0.00    +0.000 C 
ATOM     13  C   UNL     1       7.132   5.732  16.660  0.00  0.00    +0.000 C 
BRANCH  13  14
ATOM     14  N   UNL     1       7.087   4.602  15.694  0.00  0.00    +0.000 NA
ATOM     15  C   UNL     1       5.873   3.789  15.855  0.00  0.00    +0.000 C 
ATOM     16  C   UNL     1       7.144   5.060  14.298  0.00  0.00    +0.000 C 
ENDBRANCH  13  14
ENDBRANCH  11  13
ENDBRANCH  10  11
ENDBRANCH   1  10
TORSDOF 8
ENDMDL
MODEL 9
REMARK VINA RESULT:      -4.9      2.405      5.678
REMARK  Name = 
REMARK  11 active torsions:
REMARK  status: ('A' for Active; 'I' for Inactive)
REMARK    1  A    between atoms: C_1  and  C_2
REMARK    2  A    between atoms: C_2  and  C_3
REMARK    3  A    between atoms: C_2  and  N_12
REMARK    4  A    between atoms: C_3  and  C_4
REMARK    5  A    between atoms: C_4  and  O_5
REMARK    6  A    between atoms: O_5  and  C_6
REMARK    7  A    between atoms: N_8  and  C_9
REMARK    8  A    between atoms: C_9  and  C_10
REMARK    9  A    between atoms: C_10  and  O_11
REMARK   10  A    between atoms: N_12  and  C_13
REMARK   11  A    between atoms: N_12  and  C_14
REMARK                            x       y       z     vdW  Elec       q    Type
REMARK                         _______ _______ _______ _____ _____    ______ ____
ROOT
ATOM      1  O   UNL     1       2.991   3.264  17.154  0.00  0.00    +0.000 OA
ENDROOT
BRANCH   1   2
ATOM      2  C   UNL     1       2.330   2.882  18.269  0.00  0.00    +0.000 C 
ATOM      3  O   UNL     1       2.387   1.779  18.799  0.00  0.00    +0.000 OA
ATOM      4  N   UNL     1       1.634   3.937  18.776  0.00  0.00    +0.000 N 
ATOM      5  H   UNL     1       1.671   4.803  18.264  0.00  0.00    +0.000 HD
BRANCH   4   6
ATOM      6  C   UNL     1       1.057   3.879  20.107  0.00  0.00    +0.000 C 
BRANCH   6   7
ATOM      7  C   UNL     1       2.078   4.241  21.191  0.00  0.00    +0.000 C 
BRANCH   7   8
ATOM      8  O   UNL     1       2.189   3.175  22.135  0.00  0.00    +0.000 OA
ATOM      9  H   UNL     1       2.428   3.592  22.982  0.00  0.00    +0.000 HD
ENDBRANCH   7   8
ENDBRANCH   6   7
ENDBRANCH   4   6
ENDBRANCH   1   2
BRANCH   1  10
ATOM     10  C   UNL     1       3.867   4.398  17.316  0.00  0.00    +0.000 C 
BRANCH  10  11
ATOM     11  C   UNL     1       5.228   4.055  16.722  0.00  0.00    +0.000 C 
BRANCH  11  13
ATOM     12  C   UNL     1       6.131   4.963  14.560  0.00  0.00    +0.000 C 
ATOM     13  C   UNL     1       5.948   5.259  16.064  0.00  0.00    +0.000 C 
BRANCH  13  14
ATOM     14  N   UNL     1       7.234   5.610  16.722  0.00  0.00    +0.000 NA
ATOM     15  C   UNL     1       7.176   6.927  17.373  0.00  0.00    +0.000 C 
ATOM     16  C   UNL     1       7.630   4.621  17.735  0.00  0.00    +0.000 C 
ENDBRANCH  13  14
ENDBRANCH  11  13
ENDBRANCH  10  11
ENDBRANCH   1  10
TORSDOF 8
ENDMDL
