MODEL 1
REMARK VINA RESULT:      -7.7      0.000      0.000
REMARK  Name = 
REMARK  8 active torsions:
REMARK  status: ('A' for Active; 'I' for Inactive)
REMARK    1  A    between atoms: C_1  and  C_2
REMARK    2  A    between atoms: C_2  and  C_3
REMARK    3  A    between atoms: C_2  and  N_4
REMARK    4  A    between atoms: C_7  and  N_8
REMARK    5  A    between atoms: C_9  and  C_11
REMARK    6  A    between atoms: C_14  and  O_15
REMARK    7  A    between atoms: O_15  and  C_16
REMARK    8  A    between atoms: N_19  and  C_20
REMARK                            x       y       z     vdW  Elec       q    Type
REMARK                         _______ _______ _______ _____ _____    ______ ____
ROOT
ATOM      1  C   UNL     1       1.808   7.716  19.445  0.00  0.00    +0.000 A 
ATOM      2  C   UNL     1       1.173   8.481  20.425  0.00  0.00    +0.000 A 
ATOM      3  C   UNL     1       0.890   9.859  20.207  0.00  0.00    +0.000 A 
ATOM      4  C   UNL     1       1.264  10.497  19.025  0.00  0.00    +0.000 A 
ATOM      5  C   UNL     1       1.865   9.711  18.025  0.00  0.00    +0.000 A 
ATOM      6  C   UNL     1       2.150   8.342  18.230  0.00  0.00    +0.000 A 
ENDROOT
BRANCH   1   8
ATOM      7  N   UNL     1       2.735   5.602  18.563  0.00  0.00    +0.000 N 
ATOM      8  C   UNL     1       2.203   6.280  19.643  0.00  0.00    +0.000 C 
ATOM      9  O   UNL     1       2.062   5.757  20.751  0.00  0.00    +0.000 OA
ATOM     10  H   UNL     1       3.008   6.144  17.754  0.00  0.00    +0.000 HD
BRANCH   7  14
ATOM     11  N   UNL     1       5.885   4.232  17.322  0.00  0.00    +0.000 NA
ATOM     12  C   UNL     1       5.692   4.801  18.668  0.00  0.00    +0.000 C 
ATOM     13  C   UNL     1       4.562   4.119  19.436  0.00  0.00    +0.000 C 
ATOM     14  C   UNL     1       3.245   4.219  18.663  0.00  0.00    +0.000 C 
ATOM     15  C   UNL     1       3.455   3.599  17.283  0.00  0.00    +0.000 C 
ATOM     16  C   UNL     1       4.647   4.212  16.523  0.00  0.00    +0.000 C 
BRANCH  11  18
ATOM     17  C   UNL     1       6.965   4.752  15.100  0.00  0.00    +0.000 C 
ATOM     18  C   UNL     1       7.047   4.848  16.631  0.00  0.00    +0.000 C 
ATOM     19  C   UNL     1       7.336   6.306  17.027  0.00  0.00    +0.000 C 
ENDBRANCH  11  18
ENDBRANCH   7  14
ENDBRANCH   1   8
BRANCH   4  20
ATOM     20  O   UNL     1       1.030  11.843  18.746  0.00  0.00    +0.000 OA
BRANCH  20  21
ATOM     21  C   UNL     1       0.775  12.717  19.877  0.00  0.00    +0.000 C 
ATOM     22  C   UNL     1      -0.062  13.956  19.536  0.00  0.00    +0.000 C 
ATOM     23  C   UNL     1       0.692  15.198  19.025  0.00  0.00    +0.000 C 
ATOM     24  N   UNL     1       1.960  15.539  19.692  0.00  0.00    +0.000 NA
ATOM     25  C   UNL     1       2.796  14.348  19.928  0.00  0.00    +0.000 C 
ATOM     26  C   UNL     1       2.060  13.170  20.582  0.00  0.00    +0.000 C 
BRANCH  24  27
ATOM     27  C   UNL     1       2.712  16.509  18.851  0.00  0.00    +0.000 C 
ATOM     28  C   UNL     1       3.280  15.837  17.563  0.00  0.00    +0.000 C 
ATOM     29  C   UNL     1       2.833  17.101  16.793  0.00  0.00    +0.000 C 
ATOM     30  C   UNL     1       1.760  17.281  17.891  0.00  0.00    +0.000 C 
ENDBRANCH  24  27
ENDBRANCH  20  21
ENDBRANCH   4  20
TORSDOF 6
ENDMDL
MODEL 2
REMARK VINA RESULT:      -7.5      2.485      3.736
REMARK  Name = 
REMARK  8 active torsions:
REMARK  status: ('A' for Active; 'I' for Inactive)
REMARK    1  A    between atoms: C_1  and  C_2
REMARK    2  A    between atoms: C_2  and  C_3
REMARK    3  A    between atoms: C_2  and  N_4
REMARK    4  A    between atoms: C_7  and  N_8
REMARK    5  A    between atoms: C_9  and  C_11
REMARK    6  A    between atoms: C_14  and  O_15
REMARK    7  A    between atoms: O_15  and  C_16
REMARK    8  A    between atoms: N_19  and  C_20
REMARK                            x       y       z     vdW  Elec       q    Type
REMARK                         _______ _______ _______ _____ _____    ______ ____
ROOT
ATOM      1  C   UNL     1       1.798   7.307  20.034  0.00  0.00    +0.000 A 
ATOM      2  C   UNL     1       1.399   7.938  21.214  0.00  0.00    +0.000 A 
ATOM      3  C   UNL     1       1.148   9.340  21.244  0.00  0.00    +0.000 A 
ATOM      4  C   UNL     1       1.322  10.131  20.110  0.00  0.00    +0.000 A 
ATOM      5  C   UNL     1       1.682   9.483  18.915  0.00  0.00    +0.000 A 
ATOM      6  C   UNL     1       1.932   8.093  18.872  0.00  0.00    +0.000 A 
ENDROOT
BRANCH   1   8
ATOM      7  N   UNL     1       2.842   5.412  18.840  0.00  0.00    +0.000 N 
ATOM      8  C   UNL     1       2.151   5.849  19.955  0.00  0.00    +0.000 C 
ATOM      9  O   UNL     1       1.837   5.095  20.878  0.00  0.00    +0.000 OA
ATOM     10  H   UNL     1       3.240   6.112  18.228  0.00  0.00    +0.000 HD
BRANCH   7  14
ATOM     11  N   UNL     1       5.885   4.208  17.220  0.00  0.00    +0.000 NA
ATOM     12  C   UNL     1       5.781   4.563  18.647  0.00  0.00    +0.000 C 
ATOM     13  C   UNL     1       4.680   3.786  19.365  0.00  0.00    +0.000 C 
ATOM     14  C   UNL     1       3.324   4.023  18.695  0.00  0.00    +0.000 C 
ATOM     15  C   UNL     1       3.443   3.622  17.226  0.00  0.00    +0.000 C 
ATOM     16  C   UNL     1       4.604   4.330  16.502  0.00  0.00    +0.000 C 
BRANCH  11  18
ATOM     17  C   UNL     1       6.962   4.858  15.031  0.00  0.00    +0.000 C 
ATOM     18  C   UNL     1       7.021   4.907  16.565  0.00  0.00    +0.000 C 
ATOM     19  C   UNL     1       7.228   6.363  17.014  0.00  0.00    +0.000 C 
ENDBRANCH  11  18
ENDBRANCH   7  14
ENDBRANCH   1   8
BRANCH   4  20
ATOM     20  O   UNL     1       1.106  11.508  20.068  0.00  0.00    +0.000 OA
BRANCH  20  21
ATOM     21  C   UNL     1      -0.250  11.972  20.301  0.00  0.00    +0.000 C 
ATOM     22  C   UNL     1      -1.318  10.880  20.164  0.00  0.00    +0.000 C 
ATOM     23  C   UNL     1      -1.883  10.618  18.756  0.00  0.00    +0.000 C 
ATOM     24  N   UNL     1      -2.164  11.793  17.914  0.00  0.00    +0.000 NA
ATOM     25  C   UNL     1      -1.083  12.793  17.982  0.00  0.00    +0.000 C 
ATOM     26  C   UNL     1      -0.637  13.155  19.406  0.00  0.00    +0.000 C 
BRANCH  24  27
ATOM     27  C   UNL     1      -2.340  11.355  16.502  0.00  0.00    +0.000 C 
ATOM     28  C   UNL     1      -2.206   9.807  16.357  0.00  0.00    +0.000 C 
ATOM     29  C   UNL     1      -3.420   9.865  15.401  0.00  0.00    +0.000 C 
ATOM     30  C   UNL     1      -3.844  11.143  16.160  0.00  0.00    +0.000 C 
ENDBRANCH  24  27
ENDBRANCH  20  21
ENDBRANCH   4  20
TORSDOF 6
ENDMDL
MODEL 3
REMARK VINA RESULT:      -7.5      5.441      7.040
REMARK  Name = 
REMARK  8 active torsions:
REMARK  status: ('A' for Active; 'I' for Inactive)
REMARK    1  A    between atoms: C_1  and  C_2
REMARK    2  A    between atoms: C_2  and  C_3
REMARK    3  A    between atoms: C_2  and  N_4
REMARK    4  A    between atoms: C_7  and  N_8
REMARK    5  A    between atoms: C_9  and  C_11
REMARK    6  A    between atoms: C_14  and  O_15
REMARK    7  A    between atoms: O_15  and  C_16
REMARK    8  A    between atoms: N_19  and  C_20
REMARK                            x       y       z     vdW  Elec       q    Type
REMARK                         _______ _______ _______ _____ _____    ______ ____
ROOT
ATOM      1  C   UNL     1       7.049   6.214  17.766  0.00  0.00    +0.000 A 
ATOM      2  C   UNL     1       7.906   6.204  18.869  0.00  0.00    +0.000 A 
ATOM      3  C   UNL     1       8.579   7.390  19.281  0.00  0.00    +0.000 A 
ATOM      4  C   UNL     1       8.430   8.587  18.583  0.00  0.00    +0.000 A 
ATOM      5  C   UNL     1       7.533   8.600  17.500  0.00  0.00    +0.000 A 
ATOM      6  C   UNL     1       6.859   7.431  17.082  0.00  0.00    +0.000 A 
ENDROOT
BRANCH   1   8
ATOM      7  N   UNL     1       5.159   4.622  17.791  0.00  0.00    +0.000 N 
ATOM      8  C   UNL     1       6.371   4.983  17.235  0.00  0.00    +0.000 C 
ATOM      9  O   UNL     1       6.896   4.346  16.319  0.00  0.00    +0.000 OA
ATOM     10  H   UNL     1       4.696   5.295  18.389  0.00  0.00    +0.000 HD
BRANCH   7  14
ATOM     11  N   UNL     1       2.060   3.239  19.141  0.00  0.00    +0.000 NA
ATOM     12  C   UNL     1       2.128   4.303  18.124  0.00  0.00    +0.000 C 
ATOM     13  C   UNL     1       2.933   3.888  16.894  0.00  0.00    +0.000 C 
ATOM     14  C   UNL     1       4.357   3.488  17.288  0.00  0.00    +0.000 C 
ATOM     15  C   UNL     1       4.267   2.365  18.320  0.00  0.00    +0.000 C 
ATOM     16  C   UNL     1       3.387   2.729  19.531  0.00  0.00    +0.000 C 
BRANCH  11  18
ATOM     17  C   UNL     1       1.363   2.721  21.512  0.00  0.00    +0.000 C 
ATOM     18  C   UNL     1       1.197   3.631  20.285  0.00  0.00    +0.000 C 
ATOM     19  C   UNL     1       1.336   5.098  20.725  0.00  0.00    +0.000 C 
ENDBRANCH  11  18
ENDBRANCH   7  14
ENDBRANCH   1   8
BRANCH   4  20
ATOM     20  O   UNL     1       9.064   9.782  18.922  0.00  0.00    +0.000 OA
BRANCH  20  21
ATOM     21  C   UNL     1       9.344  10.712  17.842  0.00  0.00    +0.000 C 
ATOM     22  C   UNL     1      10.815  11.132  17.741  0.00  0.00    +0.000 C 
ATOM     23  C   UNL     1      11.267  12.330  18.597  0.00  0.00    +0.000 C 
ATOM     24  N   UNL     1      10.354  13.483  18.677  0.00  0.00    +0.000 NA
ATOM     25  C   UNL     1       8.953  13.065  18.870  0.00  0.00    +0.000 C 
ATOM     26  C   UNL     1       8.474  11.974  17.902  0.00  0.00    +0.000 C 
BRANCH  24  27
ATOM     27  C   UNL     1      10.765  14.357  19.809  0.00  0.00    +0.000 C 
ATOM     28  C   UNL     1       9.724  15.489  20.073  0.00  0.00    +0.000 C 
ATOM     29  C   UNL     1       9.907  15.207  21.582  0.00  0.00    +0.000 C 
ATOM     30  C   UNL     1      10.301  13.769  21.174  0.00  0.00    +0.000 C 
ENDBRANCH  24  27
ENDBRANCH  20  21
ENDBRANCH   4  20
TORSDOF 6
ENDMDL
MODEL 4
REMARK VINA RESULT:      -7.5      2.173      3.166
REMARK  Name = 
REMARK  8 active torsions:
REMARK  status: ('A' for Active; 'I' for Inactive)
REMARK    1  A    between atoms: C_1  and  C_2
REMARK    2  A    between atoms: C_2  and  C_3
REMARK    3  A    between atoms: C_2  and  N_4
REMARK    4  A    between atoms: C_7  and  N_8
REMARK    5  A    between atoms: C_9  and  C_11
REMARK    6  A    between atoms: C_14  and  O_15
REMARK    7  A    between atoms: O_15  and  C_16
REMARK    8  A    between atoms: N_19  and  C_20
REMARK                            x       y       z     vdW  Elec       q    Type
REMARK                         _______ _______ _______ _____ _____    ______ ____
ROOT
ATOM      1  C   UNL     1       1.810   7.485  19.767  0.00  0.00    +0.000 A 
ATOM      2  C   UNL     1       1.346   8.200  20.873  0.00  0.00    +0.000 A 
ATOM      3  C   UNL     1       1.074   9.595  20.779  0.00  0.00    +0.000 A 
ATOM      4  C   UNL     1       1.290  10.297  19.594  0.00  0.00    +0.000 A 
ATOM      5  C   UNL     1       1.716   9.563  18.473  0.00  0.00    +0.000 A 
ATOM      6  C   UNL     1       1.988   8.179  18.554  0.00  0.00    +0.000 A 
ENDROOT
BRANCH   1   8
ATOM      7  N   UNL     1       2.793   5.481  18.707  0.00  0.00    +0.000 N 
ATOM      8  C   UNL     1       2.188   6.032  19.821  0.00  0.00    +0.000 C 
ATOM      9  O   UNL     1       1.968   5.383  20.846  0.00  0.00    +0.000 OA
ATOM     10  H   UNL     1       3.123   6.112  17.989  0.00  0.00    +0.000 HD
BRANCH   7  14
ATOM     11  N   UNL     1       5.890   4.196  17.260  0.00  0.00    +0.000 NA
ATOM     12  C   UNL     1       5.744   4.654  18.653  0.00  0.00    +0.000 C 
ATOM     13  C   UNL     1       4.632   3.919  19.398  0.00  0.00    +0.000 C 
ATOM     14  C   UNL     1       3.292   4.091  18.678  0.00  0.00    +0.000 C 
ATOM     15  C   UNL     1       3.454   3.585  17.245  0.00  0.00    +0.000 C 
ATOM     16  C   UNL     1       4.627   4.250  16.501  0.00  0.00    +0.000 C 
BRANCH  11  18
ATOM     17  C   UNL     1       6.985   4.749  15.054  0.00  0.00    +0.000 C 
ATOM     18  C   UNL     1       7.036   4.859  16.585  0.00  0.00    +0.000 C 
ATOM     19  C   UNL     1       7.253   6.330  16.976  0.00  0.00    +0.000 C 
ENDBRANCH  11  18
ENDBRANCH   7  14
ENDBRANCH   1   8
BRANCH   4  20
ATOM     20  O   UNL     1       1.056  11.662  19.433  0.00  0.00    +0.000 OA
BRANCH  20  21
ATOM     21  C   UNL     1      -0.207  12.050  18.832  0.00  0.00    +0.000 C 
ATOM     22  C   UNL     1      -0.402  13.566  18.704  0.00  0.00    +0.000 C 
ATOM     23  C   UNL     1      -1.000  14.305  19.916  0.00  0.00    +0.000 C 
ATOM     24  N   UNL     1      -2.114  13.650  20.621  0.00  0.00    +0.000 NA
ATOM     25  C   UNL     1      -1.870  12.210  20.821  0.00  0.00    +0.000 C 
ATOM     26  C   UNL     1      -1.420  11.458  19.561  0.00  0.00    +0.000 C 
BRANCH  24  27
ATOM     27  C   UNL     1      -2.309  14.303  21.945  0.00  0.00    +0.000 C 
ATOM     28  C   UNL     1      -2.170  13.284  23.118  0.00  0.00    +0.000 C 
ATOM     29  C   UNL     1      -1.356  14.366  23.865  0.00  0.00    +0.000 C 
ATOM     30  C   UNL     1      -0.979  14.918  22.472  0.00  0.00    +0.000 C 
ENDBRANCH  24  27
ENDBRANCH  20  21
ENDBRANCH   4  20
TORSDOF 6
ENDMDL
MODEL 5
REMARK VINA RESULT:      -7.5      0.920      1.468
REMARK  Name = 
REMARK  8 active torsions:
REMARK  status: ('A' for Active; 'I' for Inactive)
REMARK    1  A    between atoms: C_1  and  C_2
REMARK    2  A    between atoms: C_2  and  C_3
REMARK    3  A    between atoms: C_2  and  N_4
REMARK    4  A    between atoms: C_7  and  N_8
REMARK    5  A    between atoms: C_9  and  C_11
REMARK    6  A    between atoms: C_14  and  O_15
REMARK    7  A    between atoms: O_15  and  C_16
REMARK    8  A    between atoms: N_19  and  C_20
REMARK                            x       y       z     vdW  Elec       q    Type
REMARK                         _______ _______ _______ _____ _____    ______ ____
ROOT
ATOM      1  C   UNL     1       1.866   7.584  19.619  0.00  0.00    +0.000 A 
ATOM      2  C   UNL     1       2.000   8.310  18.434  0.00  0.00    +0.000 A 
ATOM      3  C   UNL     1       1.533   9.653  18.343  0.00  0.00    +0.000 A 
ATOM      4  C   UNL     1       0.901  10.274  19.419  0.00  0.00    +0.000 A 
ATOM      5  C   UNL     1       0.808   9.552  20.622  0.00  0.00    +0.000 A 
ATOM      6  C   UNL     1       1.268   8.220  20.724  0.00  0.00    +0.000 A 
ENDROOT
BRANCH   1   8
ATOM      7  N   UNL     1       2.817   5.518  18.652  0.00  0.00    +0.000 N 
ATOM      8  C   UNL     1       2.266   6.143  19.755  0.00  0.00    +0.000 C 
ATOM      9  O   UNL     1       2.112   5.567  20.835  0.00  0.00    +0.000 OA
ATOM     10  H   UNL     1       3.099   6.099  17.874  0.00  0.00    +0.000 HD
BRANCH   7  14
ATOM     11  N   UNL     1       5.904   4.187  17.226  0.00  0.00    +0.000 NA
ATOM     12  C   UNL     1       5.777   4.723  18.593  0.00  0.00    +0.000 C 
ATOM     13  C   UNL     1       4.687   4.021  19.399  0.00  0.00    +0.000 C 
ATOM     14  C   UNL     1       3.334   4.135  18.695  0.00  0.00    +0.000 C 
ATOM     15  C   UNL     1       3.476   3.547  17.292  0.00  0.00    +0.000 C 
ATOM     16  C   UNL     1       4.628   4.181  16.489  0.00  0.00    +0.000 C 
BRANCH  11  18
ATOM     17  C   UNL     1       6.875   4.755  14.966  0.00  0.00    +0.000 C 
ATOM     18  C   UNL     1       7.029   4.822  16.492  0.00  0.00    +0.000 C 
ATOM     19  C   UNL     1       7.332   6.272  16.904  0.00  0.00    +0.000 C 
ENDBRANCH  11  18
ENDBRANCH   7  14
ENDBRANCH   1   8
BRANCH   4  20
ATOM     20  O   UNL     1       0.411  11.579  19.399  0.00  0.00    +0.000 OA
BRANCH  20  21
ATOM     21  C   UNL     1       0.873  12.475  20.444  0.00  0.00    +0.000 C 
ATOM     22  C   UNL     1      -0.133  13.568  20.823  0.00  0.00    +0.000 C 
ATOM     23  C   UNL     1      -0.107  14.869  19.998  0.00  0.00    +0.000 C 
ATOM     24  N   UNL     1       1.214  15.415  19.644  0.00  0.00    +0.000 NA
ATOM     25  C   UNL     1       2.142  14.364  19.190  0.00  0.00    +0.000 C 
ATOM     26  C   UNL     1       2.216  13.137  20.110  0.00  0.00    +0.000 C 
BRANCH  24  27
ATOM     27  C   UNL     1       1.053  16.428  18.565  0.00  0.00    +0.000 C 
ATOM     28  C   UNL     1      -0.446  16.792  18.333  0.00  0.00    +0.000 C 
ATOM     29  C   UNL     1       0.004  18.267  18.226  0.00  0.00    +0.000 C 
ATOM     30  C   UNL     1       1.200  17.874  19.122  0.00  0.00    +0.000 C 
ENDBRANCH  24  27
ENDBRANCH  20  21
ENDBRANCH   4  20
TORSDOF 6
ENDMDL
MODEL 6
REMARK VINA RESULT:      -7.4      0.991      1.498
REMARK  Name = 
REMARK  8 active torsions:
REMARK  status: ('A' for Active; 'I' for Inactive)
REMARK    1  A    between atoms: C_1  and  C_2
REMARK    2  A    between atoms: C_2  and  C_3
REMARK    3  A    between atoms: C_2  and  N_4
REMARK    4  A    between atoms: C_7  and  N_8
REMARK    5  A    between atoms: C_9  and  C_11
REMARK    6  A    between atoms: C_14  and  O_15
REMARK    7  A    between atoms: O_15  and  C_16
REMARK    8  A    between atoms: N_19  and  C_20
REMARK                            x       y       z     vdW  Elec       q    Type
REMARK                         _______ _______ _______ _____ _____    ______ ____
ROOT
ATOM      1  C   UNL     1       1.850   7.525  19.535  0.00  0.00    +0.000 A 
ATOM      2  C   UNL     1       1.289   8.289  20.561  0.00  0.00    +0.000 A 
ATOM      3  C   UNL     1       0.950   9.657  20.352  0.00  0.00    +0.000 A 
ATOM      4  C   UNL     1       1.195  10.285  19.132  0.00  0.00    +0.000 A 
ATOM      5  C   UNL     1       1.720   9.499  18.091  0.00  0.00    +0.000 A 
ATOM      6  C   UNL     1       2.059   8.141  18.286  0.00  0.00    +0.000 A 
ENDROOT
BRANCH   1   8
ATOM      7  N   UNL     1       2.814   5.445  18.613  0.00  0.00    +0.000 N 
ATOM      8  C   UNL     1       2.300   6.103  19.715  0.00  0.00    +0.000 C 
ATOM      9  O   UNL     1       2.217   5.573  20.824  0.00  0.00    +0.000 OA
ATOM     10  H   UNL     1       3.039   5.998  17.796  0.00  0.00    +0.000 HD
BRANCH   7  14
ATOM     11  N   UNL     1       5.966   4.188  17.265  0.00  0.00    +0.000 NA
ATOM     12  C   UNL     1       5.799   4.745  18.619  0.00  0.00    +0.000 C 
ATOM     13  C   UNL     1       4.717   4.022  19.419  0.00  0.00    +0.000 C 
ATOM     14  C   UNL     1       3.373   4.080  18.690  0.00  0.00    +0.000 C 
ATOM     15  C   UNL     1       3.559   3.473  17.300  0.00  0.00    +0.000 C 
ATOM     16  C   UNL     1       4.704   4.129  16.506  0.00  0.00    +0.000 C 
BRANCH  11  18
ATOM     17  C   UNL     1       6.983   4.707  15.012  0.00  0.00    +0.000 C 
ATOM     18  C   UNL     1       7.084   4.846  16.538  0.00  0.00    +0.000 C 
ATOM     19  C   UNL     1       7.303   6.326  16.895  0.00  0.00    +0.000 C 
ENDBRANCH  11  18
ENDBRANCH   7  14
ENDBRANCH   1   8
BRANCH   4  20
ATOM     20  O   UNL     1       0.899  11.620  18.859  0.00  0.00    +0.000 OA
BRANCH  20  21
ATOM     21  C   UNL     1       1.091  12.573  19.938  0.00  0.00    +0.000 C 
ATOM     22  C   UNL     1      -0.208  13.204  20.454  0.00  0.00    +0.000 C 
ATOM     23  C   UNL     1      -0.719  14.462  19.726  0.00  0.00    +0.000 C 
ATOM     24  N   UNL     1       0.283  15.468  19.337  0.00  0.00    +0.000 NA
ATOM     25  C   UNL     1       1.488  14.851  18.754  0.00  0.00    +0.000 C 
ATOM     26  C   UNL     1       2.073  13.694  19.576  0.00  0.00    +0.000 C 
BRANCH  24  27
ATOM     27  C   UNL     1      -0.319  16.402  18.346  0.00  0.00    +0.000 C 
ATOM     28  C   UNL     1      -1.271  17.433  19.027  0.00  0.00    +0.000 C 
ATOM     29  C   UNL     1      -0.645  18.509  18.110  0.00  0.00    +0.000 C 
ATOM     30  C   UNL     1       0.617  17.617  18.075  0.00  0.00    +0.000 C 
ENDBRANCH  24  27
ENDBRANCH  20  21
ENDBRANCH   4  20
TORSDOF 6
ENDMDL
MODEL 7
REMARK VINA RESULT:      -7.4      0.703      1.172
REMARK  Name = 
REMARK  8 active torsions:
REMARK  status: ('A' for Active; 'I' for Inactive)
REMARK    1  A    between atoms: C_1  and  C_2
REMARK    2  A    between atoms: C_2  and  C_3
REMARK    3  A    between atoms: C_2  and  N_4
REMARK    4  A    between atoms: C_7  and  N_8
REMARK    5  A    between atoms: C_9  and  C_11
REMARK    6  A    between atoms: C_14  and  O_15
REMARK    7  A    between atoms: O_15  and  C_16
REMARK    8  A    between atoms: N_19  and  C_20
REMARK                            x       y       z     vdW  Elec       q    Type
REMARK                         _______ _______ _______ _____ _____    ______ ____
ROOT
ATOM      1  C   UNL     1       1.828   8.302  19.308  0.00  0.00    +0.000 A 
ATOM      2  C   UNL     1       2.251   8.958  18.151  0.00  0.00    +0.000 A 
ATOM      3  C   UNL     1       1.920  10.325  17.923  0.00  0.00    +0.000 A 
ATOM      4  C   UNL     1       1.139  11.041  18.829  0.00  0.00    +0.000 A 
ATOM      5  C   UNL     1       0.752  10.387  20.012  0.00  0.00    +0.000 A 
ATOM      6  C   UNL     1       1.076   9.032  20.250  0.00  0.00    +0.000 A 
ENDROOT
BRANCH   1   8
ATOM      7  N   UNL     1       2.693   6.105  18.578  0.00  0.00    +0.000 N 
ATOM      8  C   UNL     1       2.078   6.844  19.571  0.00  0.00    +0.000 C 
ATOM      9  O   UNL     1       1.750   6.355  20.654  0.00  0.00    +0.000 OA
ATOM     10  H   UNL     1       3.113   6.609  17.807  0.00  0.00    +0.000 HD
BRANCH   7  14
ATOM     11  N   UNL     1       5.753   4.411  17.529  0.00  0.00    +0.000 NA
ATOM     12  C   UNL     1       5.561   5.056  18.840  0.00  0.00    +0.000 C 
ATOM     13  C   UNL     1       4.346   4.511  19.588  0.00  0.00    +0.000 C 
ATOM     14  C   UNL     1       3.073   4.689  18.758  0.00  0.00    +0.000 C 
ATOM     15  C   UNL     1       3.279   3.990  17.415  0.00  0.00    +0.000 C 
ATOM     16  C   UNL     1       4.549   4.462  16.680  0.00  0.00    +0.000 C 
BRANCH  11  18
ATOM     17  C   UNL     1       6.980   4.683  15.339  0.00  0.00    +0.000 C 
ATOM     18  C   UNL     1       6.990   4.891  16.860  0.00  0.00    +0.000 C 
ATOM     19  C   UNL     1       7.364   6.351  17.165  0.00  0.00    +0.000 C 
ENDBRANCH  11  18
ENDBRANCH   7  14
ENDBRANCH   1   8
BRANCH   4  20
ATOM     20  O   UNL     1       0.767  12.375  18.667  0.00  0.00    +0.000 OA
BRANCH  20  21
ATOM     21  C   UNL     1       0.433  13.119  19.869  0.00  0.00    +0.000 C 
ATOM     22  C   UNL     1      -0.661  14.174  19.669  0.00  0.00    +0.000 C 
ATOM     23  C   UNL     1      -0.217  15.570  19.192  0.00  0.00    +0.000 C 
ATOM     24  N   UNL     1       1.006  16.129  19.792  0.00  0.00    +0.000 NA
ATOM     25  C   UNL     1       2.082  15.126  19.891  0.00  0.00    +0.000 C 
ATOM     26  C   UNL     1       1.653  13.790  20.513  0.00  0.00    +0.000 C 
BRANCH  24  27
ATOM     27  C   UNL     1       1.477  17.276  18.969  0.00  0.00    +0.000 C 
ATOM     28  C   UNL     1       2.426  16.811  17.820  0.00  0.00    +0.000 C 
ATOM     29  C   UNL     1       1.674  17.797  16.897  0.00  0.00    +0.000 C 
ATOM     30  C   UNL     1       0.461  17.614  17.838  0.00  0.00    +0.000 C 
ENDBRANCH  24  27
ENDBRANCH  20  21
ENDBRANCH   4  20
TORSDOF 6
ENDMDL
MODEL 8
REMARK VINA RESULT:      -7.4      3.025     10.183
REMARK  Name = 
REMARK  8 active torsions:
REMARK  status: ('A' for Active; 'I' for Inactive)
REMARK    1  A    between atoms: C_1  and  C_2
REMARK    2  A    between atoms: C_2  and  C_3
REMARK    3  A    between atoms: C_2  and  N_4
REMARK    4  A    between atoms: C_7  and  N_8
REMARK    5  A    between atoms: C_9  and  C_11
REMARK    6  A    between atoms: C_14  and  O_15
REMARK    7  A    between atoms: O_15  and  C_16
REMARK    8  A    between atoms: N_19  and  C_20
REMARK                            x       y       z     vdW  Elec       q    Type
REMARK                         _______ _______ _______ _____ _____    ______ ____
ROOT
ATOM      1  C   UNL     1       0.831   9.722  20.892  0.00  0.00    +0.000 A 
ATOM      2  C   UNL     1       1.015  10.030  19.542  0.00  0.00    +0.000 A 
ATOM      3  C   UNL     1       1.594   9.083  18.649  0.00  0.00    +0.000 A 
ATOM      4  C   UNL     1       2.024   7.835  19.097  0.00  0.00    +0.000 A 
ATOM      5  C   UNL     1       1.797   7.516  20.447  0.00  0.00    +0.000 A 
ATOM      6  C   UNL     1       1.222   8.446  21.342  0.00  0.00    +0.000 A 
ENDROOT
BRANCH   1   8
ATOM      7  N   UNL     1      -0.052  11.962  21.450  0.00  0.00    +0.000 N 
ATOM      8  C   UNL     1       0.298  10.702  21.898  0.00  0.00    +0.000 C 
ATOM      9  O   UNL     1       0.173  10.359  23.075  0.00  0.00    +0.000 OA
ATOM     10  H   UNL     1      -0.114  12.106  20.451  0.00  0.00    +0.000 HD
BRANCH   7  14
ATOM     11  N   UNL     1      -3.414  13.377  21.282  0.00  0.00    +0.000 NA
ATOM     12  C   UNL     1      -3.047  12.185  22.066  0.00  0.00    +0.000 C 
ATOM     13  C   UNL     1      -1.916  12.459  23.055  0.00  0.00    +0.000 C 
ATOM     14  C   UNL     1      -0.673  12.975  22.327  0.00  0.00    +0.000 C 
ATOM     15  C   UNL     1      -1.066  14.228  21.544  0.00  0.00    +0.000 C 
ATOM     16  C   UNL     1      -2.263  13.997  20.603  0.00  0.00    +0.000 C 
BRANCH  11  18
ATOM     17  C   UNL     1      -4.243  12.175  19.223  0.00  0.00    +0.000 C 
ATOM     18  C   UNL     1      -4.575  13.110  20.394  0.00  0.00    +0.000 C 
ATOM     19  C   UNL     1      -5.831  12.590  21.112  0.00  0.00    +0.000 C 
ENDBRANCH  11  18
ENDBRANCH   7  14
ENDBRANCH   1   8
BRANCH   4  20
ATOM     20  O   UNL     1       2.608   6.864  18.284  0.00  0.00    +0.000 OA
BRANCH  20  21
ATOM     21  C   UNL     1       2.887   5.574  18.891  0.00  0.00    +0.000 C 
ATOM     22  C   UNL     1       4.345   5.390  19.329  0.00  0.00    +0.000 C 
ATOM     23  C   UNL     1       5.337   4.863  18.276  0.00  0.00    +0.000 C 
ATOM     24  N   UNL     1       4.871   3.781  17.393  0.00  0.00    +0.000 NA
ATOM     25  C   UNL     1       3.501   4.020  16.902  0.00  0.00    +0.000 C 
ATOM     26  C   UNL     1       2.489   4.395  17.994  0.00  0.00    +0.000 C 
BRANCH  24  27
ATOM     27  C   UNL     1       5.794   3.663  16.231  0.00  0.00    +0.000 C 
ATOM     28  C   UNL     1       5.367   4.596  15.056  0.00  0.00    +0.000 C 
ATOM     29  C   UNL     1       6.863   4.948  14.886  0.00  0.00    +0.000 C 
ATOM     30  C   UNL     1       7.021   4.610  16.386  0.00  0.00    +0.000 C 
ENDBRANCH  24  27
ENDBRANCH  20  21
ENDBRANCH   4  20
TORSDOF 6
ENDMDL
MODEL 9
REMARK VINA RESULT:      -7.3      1.174      1.819
REMARK  Name = 
REMARK  8 active torsions:
REMARK  status: ('A' for Active; 'I' for Inactive)
REMARK    1  A    between atoms: C_1  and  C_2
REMARK    2  A    between atoms: C_2  and  C_3
REMARK    3  A    between atoms: C_2  and  N_4
REMARK    4  A    between atoms: C_7  and  N_8
REMARK    5  A    between atoms: C_9  and  C_11
REMARK    6  A    between atoms: C_14  and  O_15
REMARK    7  A    between atoms: O_15  and  C_16
REMARK    8  A    between atoms: N_19  and  C_20
REMARK                            x       y       z     vdW  Elec       q    Type
REMARK                         _______ _______ _______ _____ _____    ______ ____
ROOT
ATOM      1  C   UNL     1       2.554   7.294  19.141  0.00  0.00    +0.000 A 
ATOM      2  C   UNL     1       1.771   7.752  20.202  0.00  0.00    +0.000 A 
ATOM      3  C   UNL     1       1.021   8.958  20.089  0.00  0.00    +0.000 A 
ATOM      4  C   UNL     1       1.068   9.734  18.932  0.00  0.00    +0.000 A 
ATOM      5  C   UNL     1       1.824   9.245  17.852  0.00  0.00    +0.000 A 
ATOM      6  C   UNL     1       2.571   8.049  17.952  0.00  0.00    +0.000 A 
ENDROOT
BRANCH   1   8
ATOM      7  N   UNL     1       4.459   5.955  18.313  0.00  0.00    +0.000 N 
ATOM      8  C   UNL     1       3.427   6.074  19.224  0.00  0.00    +0.000 C 
ATOM      9  O   UNL     1       3.215   5.232  20.099  0.00  0.00    +0.000 OA
ATOM     10  H   UNL     1       4.697   6.769  17.761  0.00  0.00    +0.000 HD
BRANCH   7  14
ATOM     11  N   UNL     1       6.310   4.433  15.557  0.00  0.00    +0.000 NA
ATOM     12  C   UNL     1       6.792   5.569  16.363  0.00  0.00    +0.000 C 
ATOM     13  C   UNL     1       6.825   5.256  17.857  0.00  0.00    +0.000 C 
ATOM     14  C   UNL     1       5.437   4.849  18.356  0.00  0.00    +0.000 C 
ATOM     15  C   UNL     1       4.966   3.653  17.530  0.00  0.00    +0.000 C 
ATOM     16  C   UNL     1       5.007   3.916  16.013  0.00  0.00    +0.000 C 
BRANCH  11  18
ATOM     17  C   UNL     1       7.764   5.184  13.635  0.00  0.00    +0.000 C 
ATOM     18  C   UNL     1       6.374   4.729  14.103  0.00  0.00    +0.000 C 
ATOM     19  C   UNL     1       5.883   3.593  13.190  0.00  0.00    +0.000 C 
ENDBRANCH  11  18
ENDBRANCH   7  14
ENDBRANCH   1   8
BRANCH   4  20
ATOM     20  O   UNL     1       0.370  10.928  18.754  0.00  0.00    +0.000 OA
BRANCH  20  21
ATOM     21  C   UNL     1       0.232  11.792  19.914  0.00  0.00    +0.000 C 
ATOM     22  C   UNL     1      -0.716  12.978  19.703  0.00  0.00    +0.000 C 
ATOM     23  C   UNL     1      -0.119  14.259  19.091  0.00  0.00    +0.000 C 
ATOM     24  N   UNL     1       1.211  14.676  19.568  0.00  0.00    +0.000 NA
ATOM     25  C   UNL     1       2.141  13.538  19.675  0.00  0.00    +0.000 C 
ATOM     26  C   UNL     1       1.578  12.322  20.425  0.00  0.00    +0.000 C 
BRANCH  24  27
ATOM     27  C   UNL     1       1.775  15.685  18.629  0.00  0.00    +0.000 C 
ATOM     28  C   UNL     1       2.733  16.678  19.357  0.00  0.00    +0.000 C 
ATOM     29  C   UNL     1       3.680  16.542  18.142  0.00  0.00    +0.000 C 
ATOM     30  C   UNL     1       3.055  15.145  17.925  0.00  0.00    +0.000 C 
ENDBRANCH  24  27
ENDBRANCH  20  21
ENDBRANCH   4  20
TORSDOF 6
ENDMDL
