MODEL 1
REMARK VINA RESULT:      -8.2      0.000      0.000
REMARK  Name = 
REMARK  2 active torsions:
REMARK  status: ('A' for Active; 'I' for Inactive)
REMARK    1  A    between atoms: C_1  and  C_13
REMARK    2  A    between atoms: C_2  and  C_3
REMARK                            x       y       z     vdW  Elec       q    Type
REMARK                         _______ _______ _______ _____ _____    ______ ____
ROOT
ATOM      1  C   UNL     1       5.798   4.120  16.047  0.00  0.00    +0.000 C 
ATOM      2  C   UNL     1       4.590   3.564  16.231  0.00  0.00    +0.000 C 
ENDROOT
BRANCH   2   3
ATOM      3  C   UNL     1       3.641   3.736  17.327  0.00  0.00    +0.000 A 
ATOM      4  C   UNL     1       2.404   4.333  17.141  0.00  0.00    +0.000 A 
ATOM      5  C   UNL     1       1.492   4.298  18.192  0.00  0.00    +0.000 A 
ATOM      6  C   UNL     1       1.840   3.672  19.398  0.00  0.00    +0.000 A 
ATOM      7  C   UNL     1       0.938   3.555  20.471  0.00  0.00    +0.000 A 
ATOM      8  C   UNL     1       1.320   2.909  21.646  0.00  0.00    +0.000 A 
ATOM      9  C   UNL     1       2.609   2.404  21.765  0.00  0.00    +0.000 A 
ATOM     10  C   UNL     1       3.505   2.527  20.699  0.00  0.00    +0.000 A 
ATOM     11  C   UNL     1       3.140   3.133  19.505  0.00  0.00    +0.000 A 
ATOM     12  N   UNL     1       4.017   3.158  18.491  0.00  0.00    +0.000 NA
ENDBRANCH   2   3
BRANCH   1  13
ATOM     13  C   UNL     1       6.540   5.059  16.902  0.00  0.00    +0.000 A 
ATOM     14  C   UNL     1       7.253   4.649  18.049  0.00  0.00    +0.000 A 
ATOM     15  C   UNL     1       7.958   5.571  18.834  0.00  0.00    +0.000 A 
ATOM     16  C   UNL     1       7.965   6.887  18.430  0.00  0.00    +0.000 A 
ATOM     17  C   UNL     1       7.315   7.291  17.290  0.00  0.00    +0.000 A 
ATOM     18  C   UNL     1       6.601   6.406  16.507  0.00  0.00    +0.000 A 
ATOM     19  O   UNL     1       7.465   8.621  17.052  0.00  0.00    +0.000 OA
ATOM     20  C   UNL     1       8.289   9.004  18.173  0.00  0.00    +0.000 C 
ATOM     21  O   UNL     1       8.594   7.912  19.062  0.00  0.00    +0.000 OA
ENDBRANCH   1  13
TORSDOF 2
ENDMDL
MODEL 2
REMARK VINA RESULT:      -8.1      3.983      5.032
REMARK  Name = 
REMARK  2 active torsions:
REMARK  status: ('A' for Active; 'I' for Inactive)
REMARK    1  A    between atoms: C_1  and  C_13
REMARK    2  A    between atoms: C_2  and  C_3
REMARK                            x       y       z     vdW  Elec       q    Type
REMARK                         _______ _______ _______ _____ _____    ______ ____
ROOT
ATOM      1  C   UNL     1       3.981   4.558  19.347  0.00  0.00    +0.000 C 
ATOM      2  C   UNL     1       2.990   5.322  19.834  0.00  0.00    +0.000 C 
ENDROOT
BRANCH   2   3
ATOM      3  C   UNL     1       2.584   6.674  19.461  0.00  0.00    +0.000 A 
ATOM      4  C   UNL     1       2.771   7.170  18.180  0.00  0.00    +0.000 A 
ATOM      5  C   UNL     1       2.197   8.397  17.860  0.00  0.00    +0.000 A 
ATOM      6  C   UNL     1       1.458   9.096  18.826  0.00  0.00    +0.000 A 
ATOM      7  C   UNL     1       0.808  10.310  18.541  0.00  0.00    +0.000 A 
ATOM      8  C   UNL     1       0.068  10.962  19.526  0.00  0.00    +0.000 A 
ATOM      9  C   UNL     1      -0.001  10.421  20.804  0.00  0.00    +0.000 A 
ATOM     10  C   UNL     1       0.651   9.218  21.087  0.00  0.00    +0.000 A 
ATOM     11  C   UNL     1       1.363   8.528  20.114  0.00  0.00    +0.000 A 
ATOM     12  N   UNL     1       1.907   7.342  20.423  0.00  0.00    +0.000 NA
ENDBRANCH   2   3
BRANCH   1  13
ATOM     13  C   UNL     1       4.971   4.858  18.301  0.00  0.00    +0.000 A 
ATOM     14  C   UNL     1       6.151   5.591  18.553  0.00  0.00    +0.000 A 
ATOM     15  C   UNL     1       7.077   5.847  17.533  0.00  0.00    +0.000 A 
ATOM     16  C   UNL     1       6.818   5.331  16.284  0.00  0.00    +0.000 A 
ATOM     17  C   UNL     1       5.697   4.577  16.037  0.00  0.00    +0.000 A 
ATOM     18  C   UNL     1       4.762   4.321  17.021  0.00  0.00    +0.000 A 
ATOM     19  O   UNL     1       5.640   4.138  14.752  0.00  0.00    +0.000 OA
ATOM     20  C   UNL     1       6.858   4.702  14.221  0.00  0.00    +0.000 C 
ATOM     21  O   UNL     1       7.601   5.476  15.183  0.00  0.00    +0.000 OA
ENDBRANCH   1  13
TORSDOF 2
ENDMDL
MODEL 3
REMARK VINA RESULT:      -8.0      5.179      6.611
REMARK  Name = 
REMARK  2 active torsions:
REMARK  status: ('A' for Active; 'I' for Inactive)
REMARK    1  A    between atoms: C_1  and  C_13
REMARK    2  A    between atoms: C_2  and  C_3
REMARK                            x       y       z     vdW  Elec       q    Type
REMARK                         _______ _______ _______ _____ _____    ______ ____
ROOT
ATOM      1  C   UNL     1       3.000   7.389  17.617  0.00  0.00    +0.000 C 
ATOM      2  C   UNL     1       2.451   8.490  18.153  0.00  0.00    +0.000 C 
ENDROOT
BRANCH   2   3
ATOM      3  C   UNL     1       1.646   8.638  19.362  0.00  0.00    +0.000 A 
ATOM      4  C   UNL     1       1.741   7.749  20.421  0.00  0.00    +0.000 A 
ATOM      5  C   UNL     1       1.074   8.060  21.602  0.00  0.00    +0.000 A 
ATOM      6  C   UNL     1       0.330   9.246  21.693  0.00  0.00    +0.000 A 
ATOM      7  C   UNL     1      -0.315   9.639  22.879  0.00  0.00    +0.000 A 
ATOM      8  C   UNL     1      -1.030  10.835  22.931  0.00  0.00    +0.000 A 
ATOM      9  C   UNL     1      -1.128  11.626  21.793  0.00  0.00    +0.000 A 
ATOM     10  C   UNL     1      -0.491  11.230  20.613  0.00  0.00    +0.000 A 
ATOM     11  C   UNL     1       0.258  10.063  20.545  0.00  0.00    +0.000 A 
ATOM     12  N   UNL     1       0.907   9.770  19.408  0.00  0.00    +0.000 NA
ENDBRANCH   2   3
BRANCH   1  13
ATOM     13  C   UNL     1       2.941   5.992  18.074  0.00  0.00    +0.000 A 
ATOM     14  C   UNL     1       1.808   5.171  17.882  0.00  0.00    +0.000 A 
ATOM     15  C   UNL     1       1.793   3.841  18.322  0.00  0.00    +0.000 A 
ATOM     16  C   UNL     1       2.932   3.347  18.916  0.00  0.00    +0.000 A 
ATOM     17  C   UNL     1       4.057   4.120  19.066  0.00  0.00    +0.000 A 
ATOM     18  C   UNL     1       4.094   5.438  18.654  0.00  0.00    +0.000 A 
ATOM     19  O   UNL     1       5.080   3.441  19.649  0.00  0.00    +0.000 OA
ATOM     20  C   UNL     1       4.468   2.148  19.844  0.00  0.00    +0.000 C 
ATOM     21  O   UNL     1       3.099   2.087  19.398  0.00  0.00    +0.000 OA
ENDBRANCH   1  13
TORSDOF 2
ENDMDL
MODEL 4
REMARK VINA RESULT:      -7.9      5.814      7.684
REMARK  Name = 
REMARK  2 active torsions:
REMARK  status: ('A' for Active; 'I' for Inactive)
REMARK    1  A    between atoms: C_1  and  C_13
REMARK    2  A    between atoms: C_2  and  C_3
REMARK                            x       y       z     vdW  Elec       q    Type
REMARK                         _______ _______ _______ _____ _____    ______ ____
ROOT
ATOM      1  C   UNL     1       2.989   7.680  17.968  0.00  0.00    +0.000 C 
ATOM      2  C   UNL     1       2.449   8.901  17.826  0.00  0.00    +0.000 C 
ENDROOT
BRANCH   2   3
ATOM      3  C   UNL     1       1.181   9.424  18.325  0.00  0.00    +0.000 A 
ATOM      4  C   UNL     1       1.073  10.024  19.570  0.00  0.00    +0.000 A 
ATOM      5  C   UNL     1      -0.126  10.653  19.894  0.00  0.00    +0.000 A 
ATOM      6  C   UNL     1      -1.182  10.663  18.971  0.00  0.00    +0.000 A 
ATOM      7  C   UNL     1      -2.393  11.334  19.222  0.00  0.00    +0.000 A 
ATOM      8  C   UNL     1      -3.410  11.333  18.269  0.00  0.00    +0.000 A 
ATOM      9  C   UNL     1      -3.234  10.641  17.077  0.00  0.00    +0.000 A 
ATOM     10  C   UNL     1      -2.032   9.970  16.832  0.00  0.00    +0.000 A 
ATOM     11  C   UNL     1      -0.989   9.986  17.749  0.00  0.00    +0.000 A 
ATOM     12  N   UNL     1       0.168   9.386  17.430  0.00  0.00    +0.000 NA
ENDBRANCH   2   3
BRANCH   1  13
ATOM     13  C   UNL     1       2.459   6.492  18.655  0.00  0.00    +0.000 A 
ATOM     14  C   UNL     1       2.208   6.460  20.044  0.00  0.00    +0.000 A 
ATOM     15  C   UNL     1       1.692   5.313  20.662  0.00  0.00    +0.000 A 
ATOM     16  C   UNL     1       1.404   4.228  19.866  0.00  0.00    +0.000 A 
ATOM     17  C   UNL     1       1.599   4.263  18.507  0.00  0.00    +0.000 A 
ATOM     18  C   UNL     1       2.118   5.375  17.874  0.00  0.00    +0.000 A 
ATOM     19  O   UNL     1       1.226   3.105  17.899  0.00  0.00    +0.000 OA
ATOM     20  C   UNL     1       0.771   2.340  19.036  0.00  0.00    +0.000 C 
ATOM     21  O   UNL     1       0.898   3.040  20.289  0.00  0.00    +0.000 OA
ENDBRANCH   1  13
TORSDOF 2
ENDMDL
MODEL 5
REMARK VINA RESULT:      -7.8      5.468      6.859
REMARK  Name = 
REMARK  2 active torsions:
REMARK  status: ('A' for Active; 'I' for Inactive)
REMARK    1  A    between atoms: C_1  and  C_13
REMARK    2  A    between atoms: C_2  and  C_3
REMARK                            x       y       z     vdW  Elec       q    Type
REMARK                         _______ _______ _______ _____ _____    ______ ____
ROOT
ATOM      1  C   UNL     1       2.890   7.615  17.589  0.00  0.00    +0.000 C 
ATOM      2  C   UNL     1       2.264   8.680  18.113  0.00  0.00    +0.000 C 
ENDROOT
BRANCH   2   3
ATOM      3  C   UNL     1       1.502   8.798  19.353  0.00  0.00    +0.000 A 
ATOM      4  C   UNL     1       1.681   7.921  20.412  0.00  0.00    +0.000 A 
ATOM      5  C   UNL     1       1.048   8.209  21.618  0.00  0.00    +0.000 A 
ATOM      6  C   UNL     1       0.254   9.359  21.733  0.00  0.00    +0.000 A 
ATOM      7  C   UNL     1      -0.361   9.730  22.942  0.00  0.00    +0.000 A 
ATOM      8  C   UNL     1      -1.127  10.892  23.017  0.00  0.00    +0.000 A 
ATOM      9  C   UNL     1      -1.308  11.671  21.880  0.00  0.00    +0.000 A 
ATOM     10  C   UNL     1      -0.701  11.297  20.677  0.00  0.00    +0.000 A 
ATOM     11  C   UNL     1       0.098  10.165  20.584  0.00  0.00    +0.000 A 
ATOM     12  N   UNL     1       0.714   9.895  19.424  0.00  0.00    +0.000 NA
ENDBRANCH   2   3
BRANCH   1  13
ATOM     13  C   UNL     1       2.984   6.237  18.095  0.00  0.00    +0.000 A 
ATOM     14  C   UNL     1       4.063   5.783  18.885  0.00  0.00    +0.000 A 
ATOM     15  C   UNL     1       4.113   4.465  19.358  0.00  0.00    +0.000 A 
ATOM     16  C   UNL     1       3.057   3.635  19.059  0.00  0.00    +0.000 A 
ATOM     17  C   UNL     1       1.980   4.076  18.332  0.00  0.00    +0.000 A 
ATOM     18  C   UNL     1       1.912   5.366  17.842  0.00  0.00    +0.000 A 
ATOM     19  O   UNL     1       1.033   3.113  18.170  0.00  0.00    +0.000 OA
ATOM     20  C   UNL     1       1.641   2.016  18.884  0.00  0.00    +0.000 C 
ATOM     21  O   UNL     1       2.934   2.334  19.435  0.00  0.00    +0.000 OA
ENDBRANCH   1  13
TORSDOF 2
ENDMDL
MODEL 6
REMARK VINA RESULT:      -7.8      3.550      6.951
REMARK  Name = 
REMARK  2 active torsions:
REMARK  status: ('A' for Active; 'I' for Inactive)
REMARK    1  A    between atoms: C_1  and  C_13
REMARK    2  A    between atoms: C_2  and  C_3
REMARK                            x       y       z     vdW  Elec       q    Type
REMARK                         _______ _______ _______ _____ _____    ______ ____
ROOT
ATOM      1  C   UNL     1       6.087   5.916  18.767  0.00  0.00    +0.000 C 
ATOM      2  C   UNL     1       6.949   5.703  17.760  0.00  0.00    +0.000 C 
ENDROOT
BRANCH   2   3
ATOM      3  C   UNL     1       6.765   4.962  16.516  0.00  0.00    +0.000 A 
ATOM      4  C   UNL     1       5.860   3.918  16.409  0.00  0.00    +0.000 A 
ATOM      5  C   UNL     1       5.619   3.384  15.146  0.00  0.00    +0.000 A 
ATOM      6  C   UNL     1       6.288   3.903  14.028  0.00  0.00    +0.000 A 
ATOM      7  C   UNL     1       6.039   3.443  12.723  0.00  0.00    +0.000 A 
ATOM      8  C   UNL     1       6.714   3.999  11.638  0.00  0.00    +0.000 A 
ATOM      9  C   UNL     1       7.659   4.996  11.854  0.00  0.00    +0.000 A 
ATOM     10  C   UNL     1       7.909   5.447  13.153  0.00  0.00    +0.000 A 
ATOM     11  C   UNL     1       7.224   4.936  14.248  0.00  0.00    +0.000 A 
ATOM     12  N   UNL     1       7.452   5.459  15.462  0.00  0.00    +0.000 NA
ENDBRANCH   2   3
BRANCH   1  13
ATOM     13  C   UNL     1       4.701   5.452  18.932  0.00  0.00    +0.000 A 
ATOM     14  C   UNL     1       3.606   6.072  18.290  0.00  0.00    +0.000 A 
ATOM     15  C   UNL     1       2.300   5.595  18.463  0.00  0.00    +0.000 A 
ATOM     16  C   UNL     1       2.120   4.480  19.249  0.00  0.00    +0.000 A 
ATOM     17  C   UNL     1       3.182   3.840  19.840  0.00  0.00    +0.000 A 
ATOM     18  C   UNL     1       4.477   4.297  19.698  0.00  0.00    +0.000 A 
ATOM     19  O   UNL     1       2.798   2.746  20.550  0.00  0.00    +0.000 OA
ATOM     20  C   UNL     1       1.371   2.771  20.333  0.00  0.00    +0.000 C 
ATOM     21  O   UNL     1       0.932   3.880  19.523  0.00  0.00    +0.000 OA
ENDBRANCH   1  13
TORSDOF 2
ENDMDL
MODEL 7
REMARK VINA RESULT:      -7.8      5.450      6.711
REMARK  Name = 
REMARK  2 active torsions:
REMARK  status: ('A' for Active; 'I' for Inactive)
REMARK    1  A    between atoms: C_1  and  C_13
REMARK    2  A    between atoms: C_2  and  C_3
REMARK                            x       y       z     vdW  Elec       q    Type
REMARK                         _______ _______ _______ _____ _____    ______ ____
ROOT
ATOM      1  C   UNL     1       2.153   9.490  17.683  0.00  0.00    +0.000 C 
ATOM      2  C   UNL     1       2.732   8.279  17.719  0.00  0.00    +0.000 C 
ENDROOT
BRANCH   2   3
ATOM      3  C   UNL     1       2.455   7.138  18.587  0.00  0.00    +0.000 A 
ATOM      4  C   UNL     1       2.188   7.290  19.938  0.00  0.00    +0.000 A 
ATOM      5  C   UNL     1       1.761   6.175  20.653  0.00  0.00    +0.000 A 
ATOM      6  C   UNL     1       1.616   4.941  20.002  0.00  0.00    +0.000 A 
ATOM      7  C   UNL     1       1.131   3.796  20.661  0.00  0.00    +0.000 A 
ATOM      8  C   UNL     1       0.986   2.594  19.971  0.00  0.00    +0.000 A 
ATOM      9  C   UNL     1       1.350   2.522  18.632  0.00  0.00    +0.000 A 
ATOM     10  C   UNL     1       1.836   3.659  17.981  0.00  0.00    +0.000 A 
ATOM     11  C   UNL     1       1.956   4.879  18.634  0.00  0.00    +0.000 A 
ATOM     12  N   UNL     1       2.360   5.953  17.941  0.00  0.00    +0.000 NA
ENDBRANCH   2   3
BRANCH   1  13
ATOM     13  C   UNL     1       1.076  10.042  18.519  0.00  0.00    +0.000 A 
ATOM     14  C   UNL     1      -0.292   9.868  18.217  0.00  0.00    +0.000 A 
ATOM     15  C   UNL     1      -1.291  10.399  19.043  0.00  0.00    +0.000 A 
ATOM     16  C   UNL     1      -0.897  11.067  20.180  0.00  0.00    +0.000 A 
ATOM     17  C   UNL     1       0.429  11.203  20.510  0.00  0.00    +0.000 A 
ATOM     18  C   UNL     1       1.434  10.701  19.707  0.00  0.00    +0.000 A 
ATOM     19  O   UNL     1       0.606  11.868  21.683  0.00  0.00    +0.000 OA
ATOM     20  C   UNL     1      -0.764  12.131  22.052  0.00  0.00    +0.000 C 
ATOM     21  O   UNL     1      -1.723  11.642  21.094  0.00  0.00    +0.000 OA
ENDBRANCH   1  13
TORSDOF 2
ENDMDL
MODEL 8
REMARK VINA RESULT:      -7.7      3.724      5.868
REMARK  Name = 
REMARK  2 active torsions:
REMARK  status: ('A' for Active; 'I' for Inactive)
REMARK    1  A    between atoms: C_1  and  C_13
REMARK    2  A    between atoms: C_2  and  C_3
REMARK                            x       y       z     vdW  Elec       q    Type
REMARK                         _______ _______ _______ _____ _____    ______ ____
ROOT
ATOM      1  C   UNL     1       1.936   5.726  20.823  0.00  0.00    +0.000 C 
ATOM      2  C   UNL     1       2.517   4.571  20.462  0.00  0.00    +0.000 C 
ENDROOT
BRANCH   2   3
ATOM      3  C   UNL     1       3.267   4.241  19.253  0.00  0.00    +0.000 A 
ATOM      4  C   UNL     1       2.646   3.756  18.112  0.00  0.00    +0.000 A 
ATOM      5  C   UNL     1       3.404   3.637  16.951  0.00  0.00    +0.000 A 
ATOM      6  C   UNL     1       4.759   4.001  16.961  0.00  0.00    +0.000 A 
ATOM      7  C   UNL     1       5.557   3.956  15.804  0.00  0.00    +0.000 A 
ATOM      8  C   UNL     1       6.894   4.344  15.854  0.00  0.00    +0.000 A 
ATOM      9  C   UNL     1       7.448   4.749  17.063  0.00  0.00    +0.000 A 
ATOM     10  C   UNL     1       6.654   4.786  18.213  0.00  0.00    +0.000 A 
ATOM     11  C   UNL     1       5.310   4.441  18.183  0.00  0.00    +0.000 A 
ATOM     12  N   UNL     1       4.579   4.565  19.302  0.00  0.00    +0.000 NA
ENDBRANCH   2   3
BRANCH   1  13
ATOM     13  C   UNL     1       1.862   7.006  20.102  0.00  0.00    +0.000 A 
ATOM     14  C   UNL     1       2.327   7.167  18.778  0.00  0.00    +0.000 A 
ATOM     15  C   UNL     1       2.229   8.399  18.120  0.00  0.00    +0.000 A 
ATOM     16  C   UNL     1       1.633   9.442  18.791  0.00  0.00    +0.000 A 
ATOM     17  C   UNL     1       1.134   9.286  20.061  0.00  0.00    +0.000 A 
ATOM     18  C   UNL     1       1.229   8.086  20.738  0.00  0.00    +0.000 A 
ATOM     19  O   UNL     1       0.560  10.424  20.537  0.00  0.00    +0.000 OA
ATOM     20  C   UNL     1       0.753  11.311  19.415  0.00  0.00    +0.000 C 
ATOM     21  O   UNL     1       1.450  10.700  18.311  0.00  0.00    +0.000 OA
ENDBRANCH   1  13
TORSDOF 2
ENDMDL
MODEL 9
REMARK VINA RESULT:      -7.6      1.342      1.874
REMARK  Name = 
REMARK  2 active torsions:
REMARK  status: ('A' for Active; 'I' for Inactive)
REMARK    1  A    between atoms: C_1  and  C_13
REMARK    2  A    between atoms: C_2  and  C_3
REMARK                            x       y       z     vdW  Elec       q    Type
REMARK                         _______ _______ _______ _____ _____    ______ ____
ROOT
ATOM      1  C   UNL     1       6.035   4.196  15.942  0.00  0.00    +0.000 C 
ATOM      2  C   UNL     1       4.811   3.657  16.050  0.00  0.00    +0.000 C 
ENDROOT
BRANCH   2   3
ATOM      3  C   UNL     1       3.798   3.841  17.085  0.00  0.00    +0.000 A 
ATOM      4  C   UNL     1       3.144   2.770  17.673  0.00  0.00    +0.000 A 
ATOM      5  C   UNL     1       2.327   3.020  18.771  0.00  0.00    +0.000 A 
ATOM      6  C   UNL     1       2.182   4.331  19.249  0.00  0.00    +0.000 A 
ATOM      7  C   UNL     1       1.417   4.634  20.390  0.00  0.00    +0.000 A 
ATOM      8  C   UNL     1       1.314   5.948  20.841  0.00  0.00    +0.000 A 
ATOM      9  C   UNL     1       1.949   6.967  20.142  0.00  0.00    +0.000 A 
ATOM     10  C   UNL     1       2.704   6.664  19.005  0.00  0.00    +0.000 A 
ATOM     11  C   UNL     1       2.854   5.359  18.555  0.00  0.00    +0.000 A 
ATOM     12  N   UNL     1       3.649   5.120  17.501  0.00  0.00    +0.000 NA
ENDBRANCH   2   3
BRANCH   1  13
ATOM     13  C   UNL     1       6.737   5.122  16.843  0.00  0.00    +0.000 A 
ATOM     14  C   UNL     1       7.407   4.694  18.010  0.00  0.00    +0.000 A 
ATOM     15  C   UNL     1       8.074   5.605  18.840  0.00  0.00    +0.000 A 
ATOM     16  C   UNL     1       8.087   6.928  18.463  0.00  0.00    +0.000 A 
ATOM     17  C   UNL     1       7.480   7.351  17.306  0.00  0.00    +0.000 A 
ATOM     18  C   UNL     1       6.804   6.477  16.477  0.00  0.00    +0.000 A 
ATOM     19  O   UNL     1       7.630   8.686  17.099  0.00  0.00    +0.000 OA
ATOM     20  C   UNL     1       8.406   9.052  18.260  0.00  0.00    +0.000 C 
ATOM     21  O   UNL     1       8.684   7.945  19.139  0.00  0.00    +0.000 OA
ENDBRANCH   1  13
TORSDOF 2
ENDMDL
