MODEL 1
REMARK VINA RESULT:      -8.1      0.000      0.000
REMARK  Name = 
REMARK  10 active torsions:
REMARK  status: ('A' for Active; 'I' for Inactive)
REMARK    1  A    between atoms: C_1  and  C_2
REMARK    2  A    between atoms: C_2  and  C_3
REMARK    3  A    between atoms: C_3  and  C_4
REMARK    4  A    between atoms: C_4  and  C_5
REMARK    5  A    between atoms: N_8  and  C_9
REMARK    6  A    between atoms: C_13  and  C_15
REMARK    7  A    between atoms: C_19  and  C_20
REMARK    8  A    between atoms: C_20  and  O_21
REMARK    9  A    between atoms: O_21  and  C_22
REMARK   10  A    between atoms: C_25  and  C_26
REMARK                            x       y       z     vdW  Elec       q    Type
REMARK                         _______ _______ _______ _____ _____    ______ ____
ROOT
ATOM      1  C   UNL     1       6.237   4.947  17.627  0.00  0.00    +0.000 C 
ATOM      2  C   UNL     1       6.821   4.514  16.227  0.00  0.00    +0.000 C 
ATOM      3  O   UNL     1       8.016   4.434  15.962  0.00  0.00    +0.000 OA
ATOM      4  N   UNL     1       5.857   4.476  15.220  0.00  0.00    +0.000 N 
ATOM      5  C   UNL     1       6.231   4.634  13.833  0.00  0.00    +0.000 C 
ATOM      6  C   UNL     1       4.658   3.731  15.515  0.00  0.00    +0.000 C 
ATOM      7  C   UNL     1       4.004   4.234  16.787  0.00  0.00    +0.000 C 
ATOM      8  N   UNL     1       4.934   4.251  17.922  0.00  0.00    +0.000 N 
ATOM      9  C   UNL     1       4.563   3.759  19.187  0.00  0.00    +0.000 C 
ATOM     10  O   UNL     1       5.376   3.614  20.095  0.00  0.00    +0.000 OA
ENDROOT
BRANCH   9  11
ATOM     11  C   UNL     1       3.155   3.354  19.388  0.00  0.00    +0.000 A 
ATOM     12  C   UNL     1       2.451   2.155  19.030  0.00  0.00    +0.000 A 
ATOM     13  C   UNL     1       1.190   2.246  19.567  0.00  0.00    +0.000 A 
ATOM     14  O   UNL     1       1.017   3.456  20.144  0.00  0.00    +0.000 OA
ATOM     15  C   UNL     1       2.188   4.144  19.998  0.00  0.00    +0.000 A 
BRANCH  15  16
ATOM     16  C   UNL     1       2.198   5.516  20.565  0.00  0.00    +0.000 C 
BRANCH  16  17
ATOM     17  O   UNL     1       2.724   6.372  19.551  0.00  0.00    +0.000 OA
BRANCH  17  18
ATOM     18  C   UNL     1       2.104   7.587  19.438  0.00  0.00    +0.000 A 
ATOM     19  C   UNL     1       1.445   8.255  20.473  0.00  0.00    +0.000 A 
ATOM     20  C   UNL     1       0.862   9.497  20.248  0.00  0.00    +0.000 A 
ATOM     21  C   UNL     1       0.933  10.101  18.989  0.00  0.00    +0.000 A 
ATOM     22  C   UNL     1       0.297  11.437  18.741  0.00  0.00    +0.000 C 
ATOM     23  C   UNL     1       1.605   9.442  17.956  0.00  0.00    +0.000 A 
ATOM     24  C   UNL     1       2.196   8.191  18.187  0.00  0.00    +0.000 A 
ENDBRANCH  17  18
ENDBRANCH  16  17
ENDBRANCH  15  16
ENDBRANCH   9  11
BRANCH   1  25
ATOM     25  C   UNL     1       7.363   5.041  18.693  0.00  0.00    +0.000 C 
BRANCH  25  26
ATOM     26  C   UNL     1       7.911   6.488  18.817  0.00  0.00    +0.000 C 
BRANCH  26  28
ATOM     27  C   UNL     1       8.061   8.821  17.888  0.00  0.00    +0.000 C 
ATOM     28  C   UNL     1       7.516   7.412  17.663  0.00  0.00    +0.000 C 
ENDBRANCH  26  28
ENDBRANCH  25  26
ENDBRANCH   1  25
TORSDOF 7
ENDMDL
MODEL 2
REMARK VINA RESULT:      -8.1      2.141      6.684
REMARK  Name = 
REMARK  10 active torsions:
REMARK  status: ('A' for Active; 'I' for Inactive)
REMARK    1  A    between atoms: C_1  and  C_2
REMARK    2  A    between atoms: C_2  and  C_3
REMARK    3  A    between atoms: C_3  and  C_4
REMARK    4  A    between atoms: C_4  and  C_5
REMARK    5  A    between atoms: N_8  and  C_9
REMARK    6  A    between atoms: C_13  and  C_15
REMARK    7  A    between atoms: C_19  and  C_20
REMARK    8  A    between atoms: C_20  and  O_21
REMARK    9  A    between atoms: O_21  and  C_22
REMARK   10  A    between atoms: C_25  and  C_26
REMARK                            x       y       z     vdW  Elec       q    Type
REMARK                         _______ _______ _______ _____ _____    ______ ____
ROOT
ATOM      1  C   UNL     1       2.677   5.947  19.260  0.00  0.00    +0.000 C 
ATOM      2  C   UNL     1       2.142   7.377  19.653  0.00  0.00    +0.000 C 
ATOM      3  O   UNL     1       1.657   7.668  20.742  0.00  0.00    +0.000 OA
ATOM      4  N   UNL     1       2.026   8.238  18.562  0.00  0.00    +0.000 N 
ATOM      5  C   UNL     1       1.097   9.345  18.590  0.00  0.00    +0.000 C 
ATOM      6  C   UNL     1       3.187   8.353  17.716  0.00  0.00    +0.000 C 
ATOM      7  C   UNL     1       3.629   6.993  17.211  0.00  0.00    +0.000 C 
ATOM      8  N   UNL     1       3.836   6.034  18.303  0.00  0.00    +0.000 N 
ATOM      9  C   UNL     1       4.972   5.205  18.351  0.00  0.00    +0.000 C 
ATOM     10  O   UNL     1       5.241   4.522  19.335  0.00  0.00    +0.000 OA
ENDROOT
BRANCH   9  11
ATOM     11  C   UNL     1       5.890   5.218  17.192  0.00  0.00    +0.000 A 
ATOM     12  C   UNL     1       5.913   4.434  15.989  0.00  0.00    +0.000 A 
ATOM     13  C   UNL     1       6.906   4.943  15.187  0.00  0.00    +0.000 A 
ATOM     14  O   UNL     1       7.576   5.918  15.841  0.00  0.00    +0.000 OA
ATOM     15  C   UNL     1       6.993   6.056  17.069  0.00  0.00    +0.000 A 
BRANCH  15  16
ATOM     16  C   UNL     1       7.598   7.084  17.953  0.00  0.00    +0.000 C 
BRANCH  16  17
ATOM     17  O   UNL     1       7.407   8.341  17.306  0.00  0.00    +0.000 OA
BRANCH  17  18
ATOM     18  C   UNL     1       8.104   9.386  17.851  0.00  0.00    +0.000 A 
ATOM     19  C   UNL     1       8.095  10.698  17.373  0.00  0.00    +0.000 A 
ATOM     20  C   UNL     1       8.833  11.686  18.016  0.00  0.00    +0.000 A 
ATOM     21  C   UNL     1       9.586  11.385  19.155  0.00  0.00    +0.000 A 
ATOM     22  C   UNL     1      10.390  12.446  19.847  0.00  0.00    +0.000 C 
ATOM     23  C   UNL     1       9.585  10.076  19.644  0.00  0.00    +0.000 A 
ATOM     24  C   UNL     1       8.837   9.083  18.996  0.00  0.00    +0.000 A 
ENDBRANCH  17  18
ENDBRANCH  16  17
ENDBRANCH  15  16
ENDBRANCH   9  11
BRANCH   1  25
ATOM     25  C   UNL     1       2.720   5.010  20.499  0.00  0.00    +0.000 C 
BRANCH  25  26
ATOM     26  C   UNL     1       1.437   4.141  20.600  0.00  0.00    +0.000 C 
BRANCH  26  28
ATOM     27  C   UNL     1       1.866   2.090  19.208  0.00  0.00    +0.000 C 
ATOM     28  C   UNL     1       1.079   3.395  19.313  0.00  0.00    +0.000 C 
ENDBRANCH  26  28
ENDBRANCH  25  26
ENDBRANCH   1  25
TORSDOF 7
ENDMDL
MODEL 3
REMARK VINA RESULT:      -8.0      1.204      1.620
REMARK  Name = 
REMARK  10 active torsions:
REMARK  status: ('A' for Active; 'I' for Inactive)
REMARK    1  A    between atoms: C_1  and  C_2
REMARK    2  A    between atoms: C_2  and  C_3
REMARK    3  A    between atoms: C_3  and  C_4
REMARK    4  A    between atoms: C_4  and  C_5
REMARK    5  A    between atoms: N_8  and  C_9
REMARK    6  A    between atoms: C_13  and  C_15
REMARK    7  A    between atoms: C_19  and  C_20
REMARK    8  A    between atoms: C_20  and  O_21
REMARK    9  A    between atoms: O_21  and  C_22
REMARK   10  A    between atoms: C_25  and  C_26
REMARK                            x       y       z     vdW  Elec       q    Type
REMARK                         _______ _______ _______ _____ _____    ______ ____
ROOT
ATOM      1  C   UNL     1       6.297   5.820  17.058  0.00  0.00    +0.000 C 
ATOM      2  C   UNL     1       6.767   4.887  15.877  0.00  0.00    +0.000 C 
ATOM      3  O   UNL     1       7.925   4.782  15.485  0.00  0.00    +0.000 OA
ATOM      4  N   UNL     1       5.707   4.371  15.131  0.00  0.00    +0.000 N 
ATOM      5  C   UNL     1       5.899   3.966  13.757  0.00  0.00    +0.000 C 
ATOM      6  C   UNL     1       4.650   3.739  15.880  0.00  0.00    +0.000 C 
ATOM      7  C   UNL     1       4.088   4.680  16.928  0.00  0.00    +0.000 C 
ATOM      8  N   UNL     1       5.132   5.226  17.803  0.00  0.00    +0.000 N 
ATOM      9  C   UNL     1       4.970   5.279  19.200  0.00  0.00    +0.000 C 
ATOM     10  O   UNL     1       5.893   5.577  19.953  0.00  0.00    +0.000 OA
ENDROOT
BRANCH   9  11
ATOM     11  C   UNL     1       3.655   4.903  19.761  0.00  0.00    +0.000 A 
ATOM     12  C   UNL     1       3.151   3.647  20.244  0.00  0.00    +0.000 A 
ATOM     13  C   UNL     1       1.906   3.882  20.774  0.00  0.00    +0.000 A 
ATOM     14  O   UNL     1       1.548   5.169  20.564  0.00  0.00    +0.000 OA
ATOM     15  C   UNL     1       2.584   5.776  19.913  0.00  0.00    +0.000 A 
BRANCH  15  16
ATOM     16  C   UNL     1       2.380   7.209  19.580  0.00  0.00    +0.000 C 
BRANCH  16  17
ATOM     17  O   UNL     1       1.672   7.785  20.677  0.00  0.00    +0.000 OA
BRANCH  17  18
ATOM     18  C   UNL     1       0.976   8.927  20.383  0.00  0.00    +0.000 A 
ATOM     19  C   UNL     1       0.197   9.651  21.288  0.00  0.00    +0.000 A 
ATOM     20  C   UNL     1      -0.457  10.810  20.882  0.00  0.00    +0.000 A 
ATOM     21  C   UNL     1      -0.338  11.272  19.567  0.00  0.00    +0.000 A 
ATOM     22  C   UNL     1      -1.049  12.516  19.123  0.00  0.00    +0.000 C 
ATOM     23  C   UNL     1       0.453  10.557  18.665  0.00  0.00    +0.000 A 
ATOM     24  C   UNL     1       1.115   9.392  19.078  0.00  0.00    +0.000 A 
ENDBRANCH  17  18
ENDBRANCH  16  17
ENDBRANCH  15  16
ENDBRANCH   9  11
BRANCH   1  25
ATOM     25  C   UNL     1       7.517   6.421  17.809  0.00  0.00    +0.000 C 
BRANCH  25  26
ATOM     26  C   UNL     1       7.622   7.955  17.591  0.00  0.00    +0.000 C 
BRANCH  26  28
ATOM     27  C   UNL     1       8.687  10.148  18.210  0.00  0.00    +0.000 C 
ATOM     28  C   UNL     1       8.588   8.661  18.545  0.00  0.00    +0.000 C 
ENDBRANCH  26  28
ENDBRANCH  25  26
ENDBRANCH   1  25
TORSDOF 7
ENDMDL
MODEL 4
REMARK VINA RESULT:      -8.0      1.245      1.847
REMARK  Name = 
REMARK  10 active torsions:
REMARK  status: ('A' for Active; 'I' for Inactive)
REMARK    1  A    between atoms: C_1  and  C_2
REMARK    2  A    between atoms: C_2  and  C_3
REMARK    3  A    between atoms: C_3  and  C_4
REMARK    4  A    between atoms: C_4  and  C_5
REMARK    5  A    between atoms: N_8  and  C_9
REMARK    6  A    between atoms: C_13  and  C_15
REMARK    7  A    between atoms: C_19  and  C_20
REMARK    8  A    between atoms: C_20  and  O_21
REMARK    9  A    between atoms: O_21  and  C_22
REMARK   10  A    between atoms: C_25  and  C_26
REMARK                            x       y       z     vdW  Elec       q    Type
REMARK                         _______ _______ _______ _____ _____    ______ ____
ROOT
ATOM      1  C   UNL     1       6.262   5.705  17.059  0.00  0.00    +0.000 C 
ATOM      2  C   UNL     1       6.772   4.846  15.838  0.00  0.00    +0.000 C 
ATOM      3  O   UNL     1       7.932   4.816  15.440  0.00  0.00    +0.000 OA
ATOM      4  N   UNL     1       5.736   4.311  15.074  0.00  0.00    +0.000 N 
ATOM      5  C   UNL     1       5.941   3.974  13.683  0.00  0.00    +0.000 C 
ATOM      6  C   UNL     1       4.715   3.595  15.798  0.00  0.00    +0.000 C 
ATOM      7  C   UNL     1       4.112   4.461  16.886  0.00  0.00    +0.000 C 
ATOM      8  N   UNL     1       5.131   5.021  17.782  0.00  0.00    +0.000 N 
ATOM      9  C   UNL     1       4.973   5.007  19.180  0.00  0.00    +0.000 C 
ATOM     10  O   UNL     1       5.883   5.318  19.943  0.00  0.00    +0.000 OA
ENDROOT
BRANCH   9  11
ATOM     11  C   UNL     1       3.680   4.542  19.727  0.00  0.00    +0.000 A 
ATOM     12  C   UNL     1       3.214   3.229  20.078  0.00  0.00    +0.000 A 
ATOM     13  C   UNL     1       1.979   3.377  20.662  0.00  0.00    +0.000 A 
ATOM     14  O   UNL     1       1.592   4.671  20.608  0.00  0.00    +0.000 OA
ATOM     15  C   UNL     1       2.598   5.369  20.004  0.00  0.00    +0.000 A 
BRANCH  15  16
ATOM     16  C   UNL     1       2.358   6.825  19.840  0.00  0.00    +0.000 C 
BRANCH  16  17
ATOM     17  O   UNL     1       1.481   7.215  20.896  0.00  0.00    +0.000 OA
BRANCH  17  18
ATOM     18  C   UNL     1       1.053   8.514  20.844  0.00  0.00    +0.000 A 
ATOM     19  C   UNL     1       1.083   9.329  19.710  0.00  0.00    +0.000 A 
ATOM     20  C   UNL     1       0.606  10.634  19.769  0.00  0.00    +0.000 A 
ATOM     21  C   UNL     1       0.081  11.148  20.959  0.00  0.00    +0.000 A 
ATOM     22  C   UNL     1      -0.427  12.558  21.029  0.00  0.00    +0.000 C 
ATOM     23  C   UNL     1       0.036  10.330  22.091  0.00  0.00    +0.000 A 
ATOM     24  C   UNL     1       0.513   9.013  22.028  0.00  0.00    +0.000 A 
ENDBRANCH  17  18
ENDBRANCH  16  17
ENDBRANCH  15  16
ENDBRANCH   9  11
BRANCH   1  25
ATOM     25  C   UNL     1       7.454   6.333  17.833  0.00  0.00    +0.000 C 
BRANCH  25  26
ATOM     26  C   UNL     1       7.603   7.846  17.518  0.00  0.00    +0.000 C 
BRANCH  26  28
ATOM     27  C   UNL     1       8.615  10.076  18.093  0.00  0.00    +0.000 C 
ATOM     28  C   UNL     1       8.507   8.605  18.491  0.00  0.00    +0.000 C 
ENDBRANCH  26  28
ENDBRANCH  25  26
ENDBRANCH   1  25
TORSDOF 7
ENDMDL
MODEL 5
REMARK VINA RESULT:      -7.9      0.940      1.410
REMARK  Name = 
REMARK  10 active torsions:
REMARK  status: ('A' for Active; 'I' for Inactive)
REMARK    1  A    between atoms: C_1  and  C_2
REMARK    2  A    between atoms: C_2  and  C_3
REMARK    3  A    between atoms: C_3  and  C_4
REMARK    4  A    between atoms: C_4  and  C_5
REMARK    5  A    between atoms: N_8  and  C_9
REMARK    6  A    between atoms: C_13  and  C_15
REMARK    7  A    between atoms: C_19  and  C_20
REMARK    8  A    between atoms: C_20  and  O_21
REMARK    9  A    between atoms: O_21  and  C_22
REMARK   10  A    between atoms: C_25  and  C_26
REMARK                            x       y       z     vdW  Elec       q    Type
REMARK                         _______ _______ _______ _____ _____    ______ ____
ROOT
ATOM      1  C   UNL     1       6.389   5.486  16.920  0.00  0.00    +0.000 C 
ATOM      2  C   UNL     1       6.959   4.769  15.637  0.00  0.00    +0.000 C 
ATOM      3  O   UNL     1       8.093   4.923  15.193  0.00  0.00    +0.000 OA
ATOM      4  N   UNL     1       5.975   4.127  14.885  0.00  0.00    +0.000 N 
ATOM      5  C   UNL     1       6.162   3.889  13.472  0.00  0.00    +0.000 C 
ATOM      6  C   UNL     1       5.099   3.240  15.608  0.00  0.00    +0.000 C 
ATOM      7  C   UNL     1       4.430   3.958  16.763  0.00  0.00    +0.000 C 
ATOM      8  N   UNL     1       5.400   4.615  17.648  0.00  0.00    +0.000 N 
ATOM      9  C   UNL     1       5.309   4.512  19.048  0.00  0.00    +0.000 C 
ATOM     10  O   UNL     1       6.200   4.914  19.791  0.00  0.00    +0.000 OA
ENDROOT
BRANCH   9  11
ATOM     11  C   UNL     1       4.121   3.842  19.619  0.00  0.00    +0.000 A 
ATOM     12  C   UNL     1       3.977   2.595  20.317  0.00  0.00    +0.000 A 
ATOM     13  C   UNL     1       2.673   2.512  20.741  0.00  0.00    +0.000 A 
ATOM     14  O   UNL     1       1.964   3.563  20.271  0.00  0.00    +0.000 OA
ATOM     15  C   UNL     1       2.827   4.345  19.556  0.00  0.00    +0.000 A 
BRANCH  15  16
ATOM     16  C   UNL     1       2.231   5.559  18.943  0.00  0.00    +0.000 C 
BRANCH  16  17
ATOM     17  O   UNL     1       2.735   6.674  19.677  0.00  0.00    +0.000 OA
BRANCH  17  18
ATOM     18  C   UNL     1       2.078   7.856  19.460  0.00  0.00    +0.000 A 
ATOM     19  C   UNL     1       2.064   8.560  18.255  0.00  0.00    +0.000 A 
ATOM     20  C   UNL     1       1.347   9.747  18.143  0.00  0.00    +0.000 A 
ATOM     21  C   UNL     1       0.623  10.248  19.230  0.00  0.00    +0.000 A 
ATOM     22  C   UNL     1      -0.143  11.532  19.115  0.00  0.00    +0.000 C 
ATOM     23  C   UNL     1       0.624   9.537  20.432  0.00  0.00    +0.000 A 
ATOM     24  C   UNL     1       1.343   8.338  20.541  0.00  0.00    +0.000 A 
ENDBRANCH  17  18
ENDBRANCH  16  17
ENDBRANCH  15  16
ENDBRANCH   9  11
BRANCH   1  25
ATOM     25  C   UNL     1       7.515   6.241  17.680  0.00  0.00    +0.000 C 
BRANCH  25  26
ATOM     26  C   UNL     1       7.414   7.776  17.470  0.00  0.00    +0.000 C 
BRANCH  26  28
ATOM     27  C   UNL     1       8.355  10.069  17.902  0.00  0.00    +0.000 C 
ATOM     28  C   UNL     1       8.427   8.590  18.277  0.00  0.00    +0.000 C 
ENDBRANCH  26  28
ENDBRANCH  25  26
ENDBRANCH   1  25
TORSDOF 7
ENDMDL
MODEL 6
REMARK VINA RESULT:      -7.7      0.864      1.023
REMARK  Name = 
REMARK  10 active torsions:
REMARK  status: ('A' for Active; 'I' for Inactive)
REMARK    1  A    between atoms: C_1  and  C_2
REMARK    2  A    between atoms: C_2  and  C_3
REMARK    3  A    between atoms: C_3  and  C_4
REMARK    4  A    between atoms: C_4  and  C_5
REMARK    5  A    between atoms: N_8  and  C_9
REMARK    6  A    between atoms: C_13  and  C_15
REMARK    7  A    between atoms: C_19  and  C_20
REMARK    8  A    between atoms: C_20  and  O_21
REMARK    9  A    between atoms: O_21  and  C_22
REMARK   10  A    between atoms: C_25  and  C_26
REMARK                            x       y       z     vdW  Elec       q    Type
REMARK                         _______ _______ _______ _____ _____    ______ ____
ROOT
ATOM      1  C   UNL     1       6.410   5.689  16.923  0.00  0.00    +0.000 C 
ATOM      2  C   UNL     1       6.975   5.112  15.569  0.00  0.00    +0.000 C 
ATOM      3  O   UNL     1       8.108   5.312  15.141  0.00  0.00    +0.000 OA
ATOM      4  N   UNL     1       5.988   4.556  14.756  0.00  0.00    +0.000 N 
ATOM      5  C   UNL     1       6.171   4.471  13.325  0.00  0.00    +0.000 C 
ATOM      6  C   UNL     1       5.112   3.598  15.382  0.00  0.00    +0.000 C 
ATOM      7  C   UNL     1       4.448   4.189  16.610  0.00  0.00    +0.000 C 
ATOM      8  N   UNL     1       5.421   4.746  17.557  0.00  0.00    +0.000 N 
ATOM      9  C   UNL     1       5.335   4.494  18.938  0.00  0.00    +0.000 C 
ATOM     10  O   UNL     1       6.228   4.812  19.717  0.00  0.00    +0.000 OA
ENDROOT
BRANCH   9  11
ATOM     11  C   UNL     1       4.147   3.768  19.438  0.00  0.00    +0.000 A 
ATOM     12  C   UNL     1       3.776   2.382  19.356  0.00  0.00    +0.000 A 
ATOM     13  C   UNL     1       2.632   2.221  20.098  0.00  0.00    +0.000 A 
ATOM     14  O   UNL     1       2.199   3.420  20.551  0.00  0.00    +0.000 OA
ATOM     15  C   UNL     1       3.089   4.361  20.116  0.00  0.00    +0.000 A 
BRANCH  15  16
ATOM     16  C   UNL     1       2.782   5.760  20.507  0.00  0.00    +0.000 C 
BRANCH  16  17
ATOM     17  O   UNL     1       2.964   6.559  19.338  0.00  0.00    +0.000 OA
BRANCH  17  18
ATOM     18  C   UNL     1       2.163   7.666  19.262  0.00  0.00    +0.000 A 
ATOM     19  C   UNL     1       1.558   8.299  20.350  0.00  0.00    +0.000 A 
ATOM     20  C   UNL     1       0.773   9.432  20.156  0.00  0.00    +0.000 A 
ATOM     21  C   UNL     1       0.587   9.959  18.874  0.00  0.00    +0.000 A 
ATOM     22  C   UNL     1      -0.266  11.175  18.661  0.00  0.00    +0.000 C 
ATOM     23  C   UNL     1       1.204   9.336  17.787  0.00  0.00    +0.000 A 
ATOM     24  C   UNL     1       1.998   8.197  17.985  0.00  0.00    +0.000 A 
ENDBRANCH  17  18
ENDBRANCH  16  17
ENDBRANCH  15  16
ENDBRANCH   9  11
BRANCH   1  25
ATOM     25  C   UNL     1       7.539   6.356  17.756  0.00  0.00    +0.000 C 
BRANCH  25  26
ATOM     26  C   UNL     1       7.534   7.900  17.590  0.00  0.00    +0.000 C 
BRANCH  26  28
ATOM     27  C   UNL     1       8.768  10.052  18.006  0.00  0.00    +0.000 C 
ATOM     28  C   UNL     1       8.504   8.636  18.516  0.00  0.00    +0.000 C 
ENDBRANCH  26  28
ENDBRANCH  25  26
ENDBRANCH   1  25
TORSDOF 7
ENDMDL
MODEL 7
REMARK VINA RESULT:      -7.7      2.164      6.690
REMARK  Name = 
REMARK  10 active torsions:
REMARK  status: ('A' for Active; 'I' for Inactive)
REMARK    1  A    between atoms: C_1  and  C_2
REMARK    2  A    between atoms: C_2  and  C_3
REMARK    3  A    between atoms: C_3  and  C_4
REMARK    4  A    between atoms: C_4  and  C_5
REMARK    5  A    between atoms: N_8  and  C_9
REMARK    6  A    between atoms: C_13  and  C_15
REMARK    7  A    between atoms: C_19  and  C_20
REMARK    8  A    between atoms: C_20  and  O_21
REMARK    9  A    between atoms: O_21  and  C_22
REMARK   10  A    between atoms: C_25  and  C_26
REMARK                            x       y       z     vdW  Elec       q    Type
REMARK                         _______ _______ _______ _____ _____    ______ ____
ROOT
ATOM      1  C   UNL     1       3.022   5.978  19.801  0.00  0.00    +0.000 C 
ATOM      2  C   UNL     1       2.152   4.760  20.299  0.00  0.00    +0.000 C 
ATOM      3  O   UNL     1       0.990   4.841  20.685  0.00  0.00    +0.000 OA
ATOM      4  N   UNL     1       2.901   3.603  20.513  0.00  0.00    +0.000 N 
ATOM      5  C   UNL     1       2.446   2.588  21.436  0.00  0.00    +0.000 C 
ATOM      6  C   UNL     1       3.763   3.195  19.432  0.00  0.00    +0.000 C 
ATOM      7  C   UNL     1       4.708   4.313  19.037  0.00  0.00    +0.000 C 
ATOM      8  N   UNL     1       3.998   5.560  18.733  0.00  0.00    +0.000 N 
ATOM      9  C   UNL     1       4.311   6.330  17.597  0.00  0.00    +0.000 C 
ATOM     10  O   UNL     1       3.620   7.280  17.241  0.00  0.00    +0.000 OA
ENDROOT
BRANCH   9  11
ATOM     11  C   UNL     1       5.481   5.926  16.787  0.00  0.00    +0.000 A 
ATOM     12  C   UNL     1       5.607   5.001  15.696  0.00  0.00    +0.000 A 
ATOM     13  C   UNL     1       6.893   5.100  15.223  0.00  0.00    +0.000 A 
ATOM     14  O   UNL     1       7.611   5.939  16.002  0.00  0.00    +0.000 OA
ATOM     15  C   UNL     1       6.772   6.405  16.974  0.00  0.00    +0.000 A 
BRANCH  15  16
ATOM     16  C   UNL     1       7.381   7.346  17.948  0.00  0.00    +0.000 C 
BRANCH  16  17
ATOM     17  O   UNL     1       7.732   8.520  17.217  0.00  0.00    +0.000 OA
BRANCH  17  18
ATOM     18  C   UNL     1       8.322   9.509  17.956  0.00  0.00    +0.000 A 
ATOM     19  C   UNL     1       9.019   9.315  19.151  0.00  0.00    +0.000 A 
ATOM     20  C   UNL     1       9.594  10.396  19.812  0.00  0.00    +0.000 A 
ATOM     21  C   UNL     1       9.492  11.688  19.288  0.00  0.00    +0.000 A 
ATOM     22  C   UNL     1      10.103  12.857  20.003  0.00  0.00    +0.000 C 
ATOM     23  C   UNL     1       8.808  11.882  18.086  0.00  0.00    +0.000 A 
ATOM     24  C   UNL     1       8.234  10.791  17.418  0.00  0.00    +0.000 A 
ENDBRANCH  17  18
ENDBRANCH  16  17
ENDBRANCH  15  16
ENDBRANCH   9  11
BRANCH   1  25
ATOM     25  C   UNL     1       2.151   7.255  19.648  0.00  0.00    +0.000 C 
BRANCH  25  26
ATOM     26  C   UNL     1       1.740   7.835  21.028  0.00  0.00    +0.000 C 
BRANCH  26  28
ATOM     27  C   UNL     1      -0.344   9.242  20.966  0.00  0.00    +0.000 C 
ATOM     28  C   UNL     1       1.184   9.259  20.973  0.00  0.00    +0.000 C 
ENDBRANCH  26  28
ENDBRANCH  25  26
ENDBRANCH   1  25
TORSDOF 7
ENDMDL
MODEL 8
REMARK VINA RESULT:      -7.3      1.733      3.446
REMARK  Name = 
REMARK  10 active torsions:
REMARK  status: ('A' for Active; 'I' for Inactive)
REMARK    1  A    between atoms: C_1  and  C_2
REMARK    2  A    between atoms: C_2  and  C_3
REMARK    3  A    between atoms: C_3  and  C_4
REMARK    4  A    between atoms: C_4  and  C_5
REMARK    5  A    between atoms: N_8  and  C_9
REMARK    6  A    between atoms: C_13  and  C_15
REMARK    7  A    between atoms: C_19  and  C_20
REMARK    8  A    between atoms: C_20  and  O_21
REMARK    9  A    between atoms: O_21  and  C_22
REMARK   10  A    between atoms: C_25  and  C_26
REMARK                            x       y       z     vdW  Elec       q    Type
REMARK                         _______ _______ _______ _____ _____    ______ ____
ROOT
ATOM      1  C   UNL     1       5.725   4.600  16.571  0.00  0.00    +0.000 C 
ATOM      2  C   UNL     1       6.095   6.133  16.561  0.00  0.00    +0.000 C 
ATOM      3  O   UNL     1       5.989   6.873  15.587  0.00  0.00    +0.000 OA
ATOM      4  N   UNL     1       6.805   6.534  17.692  0.00  0.00    +0.000 N 
ATOM      5  C   UNL     1       7.674   7.688  17.650  0.00  0.00    +0.000 C 
ATOM      6  C   UNL     1       6.236   6.164  18.964  0.00  0.00    +0.000 C 
ATOM      7  C   UNL     1       6.008   4.667  19.044  0.00  0.00    +0.000 C 
ATOM      8  N   UNL     1       5.212   4.164  17.919  0.00  0.00    +0.000 N 
ATOM      9  C   UNL     1       4.147   3.265  18.111  0.00  0.00    +0.000 C 
ATOM     10  O   UNL     1       3.373   2.966  17.207  0.00  0.00    +0.000 OA
ENDROOT
BRANCH   9  11
ATOM     11  C   UNL     1       3.938   2.719  19.470  0.00  0.00    +0.000 A 
ATOM     12  C   UNL     1       4.620   1.681  20.192  0.00  0.00    +0.000 A 
ATOM     13  C   UNL     1       4.104   1.663  21.465  0.00  0.00    +0.000 A 
ATOM     14  O   UNL     1       3.079   2.539  21.564  0.00  0.00    +0.000 OA
ATOM     15  C   UNL     1       2.948   3.146  20.347  0.00  0.00    +0.000 A 
BRANCH  15  16
ATOM     16  C   UNL     1       1.857   4.148  20.246  0.00  0.00    +0.000 C 
BRANCH  16  17
ATOM     17  O   UNL     1       2.349   5.348  20.841  0.00  0.00    +0.000 OA
BRANCH  17  18
ATOM     18  C   UNL     1       2.218   6.473  20.073  0.00  0.00    +0.000 A 
ATOM     19  C   UNL     1       2.655   6.603  18.753  0.00  0.00    +0.000 A 
ATOM     20  C   UNL     1       2.455   7.793  18.060  0.00  0.00    +0.000 A 
ATOM     21  C   UNL     1       1.805   8.872  18.669  0.00  0.00    +0.000 A 
ATOM     22  C   UNL     1       1.595  10.159  17.928  0.00  0.00    +0.000 C 
ATOM     23  C   UNL     1       1.353   8.738  19.985  0.00  0.00    +0.000 A 
ATOM     24  C   UNL     1       1.552   7.536  20.679  0.00  0.00    +0.000 A 
ENDBRANCH  17  18
ENDBRANCH  16  17
ENDBRANCH  15  16
ENDBRANCH   9  11
BRANCH   1  25
ATOM     25  C   UNL     1       4.998   4.196  15.259  0.00  0.00    +0.000 C 
BRANCH  25  26
ATOM     26  C   UNL     1       5.923   3.366  14.328  0.00  0.00    +0.000 C 
BRANCH  26  28
ATOM     27  C   UNL     1       5.632   2.918  11.870  0.00  0.00    +0.000 C 
ATOM     28  C   UNL     1       6.074   3.939  12.917  0.00  0.00    +0.000 C 
ENDBRANCH  26  28
ENDBRANCH  25  26
ENDBRANCH   1  25
TORSDOF 7
ENDMDL
MODEL 9
REMARK VINA RESULT:      -7.3      1.404      3.181
REMARK  Name = 
REMARK  10 active torsions:
REMARK  status: ('A' for Active; 'I' for Inactive)
REMARK    1  A    between atoms: C_1  and  C_2
REMARK    2  A    between atoms: C_2  and  C_3
REMARK    3  A    between atoms: C_3  and  C_4
REMARK    4  A    between atoms: C_4  and  C_5
REMARK    5  A    between atoms: N_8  and  C_9
REMARK    6  A    between atoms: C_13  and  C_15
REMARK    7  A    between atoms: C_19  and  C_20
REMARK    8  A    between atoms: C_20  and  O_21
REMARK    9  A    between atoms: O_21  and  C_22
REMARK   10  A    between atoms: C_25  and  C_26
REMARK                            x       y       z     vdW  Elec       q    Type
REMARK                         _______ _______ _______ _____ _____    ______ ____
ROOT
ATOM      1  C   UNL     1       5.450   4.427  16.860  0.00  0.00    +0.000 C 
ATOM      2  C   UNL     1       6.410   5.659  17.073  0.00  0.00    +0.000 C 
ATOM      3  O   UNL     1       6.844   6.373  16.174  0.00  0.00    +0.000 OA
ATOM      4  N   UNL     1       6.943   5.723  18.361  0.00  0.00    +0.000 N 
ATOM      5  C   UNL     1       8.195   6.400  18.610  0.00  0.00    +0.000 C 
ATOM      6  C   UNL     1       5.999   5.630  19.446  0.00  0.00    +0.000 C 
ATOM      7  C   UNL     1       5.162   4.371  19.333  0.00  0.00    +0.000 C 
ATOM      8  N   UNL     1       4.510   4.251  18.024  0.00  0.00    +0.000 N 
ATOM      9  C   UNL     1       3.155   3.887  17.905  0.00  0.00    +0.000 C 
ATOM     10  O   UNL     1       2.556   3.944  16.835  0.00  0.00    +0.000 OA
ENDROOT
BRANCH   9  11
ATOM     11  C   UNL     1       2.435   3.483  19.132  0.00  0.00    +0.000 A 
ATOM     12  C   UNL     1       1.944   2.205  19.568  0.00  0.00    +0.000 A 
ATOM     13  C   UNL     1       1.464   2.367  20.845  0.00  0.00    +0.000 A 
ATOM     14  O   UNL     1       1.522   3.669  21.202  0.00  0.00    +0.000 OA
ATOM     15  C   UNL     1       2.067   4.352  20.152  0.00  0.00    +0.000 A 
BRANCH  15  16
ATOM     16  C   UNL     1       2.208   5.818  20.345  0.00  0.00    +0.000 C 
BRANCH  16  17
ATOM     17  O   UNL     1       2.318   6.392  19.043  0.00  0.00    +0.000 OA
BRANCH  17  18
ATOM     18  C   UNL     1       1.976   7.715  18.962  0.00  0.00    +0.000 A 
ATOM     19  C   UNL     1       2.149   8.524  17.837  0.00  0.00    +0.000 A 
ATOM     20  C   UNL     1       1.749   9.856  17.861  0.00  0.00    +0.000 A 
ATOM     21  C   UNL     1       1.161  10.403  19.006  0.00  0.00    +0.000 A 
ATOM     22  C   UNL     1       0.737  11.841  19.039  0.00  0.00    +0.000 C 
ATOM     23  C   UNL     1       0.974   9.591  20.128  0.00  0.00    +0.000 A 
ATOM     24  C   UNL     1       1.374   8.247  20.099  0.00  0.00    +0.000 A 
ENDBRANCH  17  18
ENDBRANCH  16  17
ENDBRANCH  15  16
ENDBRANCH   9  11
BRANCH   1  25
ATOM     25  C   UNL     1       4.942   4.366  15.394  0.00  0.00    +0.000 C 
BRANCH  25  26
ATOM     26  C   UNL     1       6.056   3.886  14.424  0.00  0.00    +0.000 C 
BRANCH  26  28
ATOM     27  C   UNL     1       6.776   3.347  12.075  0.00  0.00    +0.000 C 
ATOM     28  C   UNL     1       5.598   3.716  12.974  0.00  0.00    +0.000 C 
ENDBRANCH  26  28
ENDBRANCH  25  26
ENDBRANCH   1  25
TORSDOF 7
ENDMDL
