MODEL 1
REMARK VINA RESULT:      -8.2      0.000      0.000
REMARK  Name = 
REMARK  8 active torsions:
REMARK  status: ('A' for Active; 'I' for Inactive)
REMARK    1  A    between atoms: C_1  and  O_2
REMARK    2  A    between atoms: O_2  and  N_3
REMARK    3  A    between atoms: C_4  and  C_5
REMARK    4  A    between atoms: C_4  and  C_12
REMARK    5  A    between atoms: C_15  and  C_16
REMARK    6  A    between atoms: C_16  and  O_17
REMARK    7  A    between atoms: O_17  and  C_18
REMARK    8  A    between atoms: C_21  and  C_22
REMARK                            x       y       z     vdW  Elec       q    Type
REMARK                         _______ _______ _______ _____ _____    ______ ____
ROOT
ATOM      1  C   UNL     1       2.074   7.191  19.745  0.00  0.00    +0.000 A 
ATOM      2  C   UNL     1       2.160   7.919  18.551  0.00  0.00    +0.000 A 
ATOM      3  C   UNL     1       1.615   9.214  18.443  0.00  0.00    +0.000 A 
ATOM      4  C   UNL     1       0.950   9.796  19.528  0.00  0.00    +0.000 A 
ATOM      5  C   UNL     1       0.902   9.091  20.729  0.00  0.00    +0.000 A 
ATOM      6  C   UNL     1       1.528   7.852  20.848  0.00  0.00    +0.000 A 
ENDROOT
BRANCH   1   8
ATOM      7  N   UNL     1       2.126   5.028  20.749  0.00  0.00    +0.000 NA
ATOM      8  C   UNL     1       2.654   5.783  19.819  0.00  0.00    +0.000 C 
BRANCH   8   9
ATOM      9  C   UNL     1       3.807   5.344  18.894  0.00  0.00    +0.000 A 
ATOM     10  C   UNL     1       5.167   5.468  19.218  0.00  0.00    +0.000 A 
ATOM     11  C   UNL     1       6.190   5.134  18.322  0.00  0.00    +0.000 A 
ATOM     12  C   UNL     1       5.876   4.670  17.057  0.00  0.00    +0.000 A 
ATOM     13 CL   UNL     1       7.133   4.337  15.937  0.00  0.00    +0.000 Cl
ATOM     14  C   UNL     1       4.545   4.483  16.711  0.00  0.00    +0.000 A 
ATOM     15  C   UNL     1       3.528   4.786  17.634  0.00  0.00    +0.000 A 
ENDBRANCH   8   9
BRANCH   7  17
ATOM     16  C   UNL     1       1.801   2.914  21.613  0.00  0.00    +0.000 C 
ATOM     17  O   UNL     1       2.595   3.709  20.745  0.00  0.00    +0.000 OA
ENDBRANCH   7  17
ENDBRANCH   1   8
BRANCH   4  18
ATOM     18  C   UNL     1       0.300  11.154  19.459  0.00  0.00    +0.000 C 
BRANCH  18  19
ATOM     19  O   UNL     1      -0.372  11.271  18.209  0.00  0.00    +0.000 OA
BRANCH  19  20
ATOM     20  C   UNL     1      -1.732  11.128  18.249  0.00  0.00    +0.000 A 
ATOM     21  C   UNL     1      -2.402  12.094  19.005  0.00  0.00    +0.000 A 
ATOM     22  C   UNL     1      -3.793  12.067  19.117  0.00  0.00    +0.000 A 
ATOM     23  C   UNL     1      -4.540  11.084  18.452  0.00  0.00    +0.000 A 
ATOM     24  C   UNL     1      -3.862  10.126  17.682  0.00  0.00    +0.000 A 
ATOM     25  C   UNL     1      -2.467  10.152  17.577  0.00  0.00    +0.000 A 
BRANCH  23  26
ATOM     26  C   UNL     1      -6.045  11.045  18.548  0.00  0.00    +0.000 C 
ATOM     27  F   UNL     1      -6.674  11.597  17.471  0.00  0.00    +0.000 F 
ATOM     28  F   UNL     1      -6.522   9.772  18.647  0.00  0.00    +0.000 F 
ATOM     29  F   UNL     1      -6.516  11.706  19.638  0.00  0.00    +0.000 F 
ENDBRANCH  23  26
ENDBRANCH  19  20
ENDBRANCH  18  19
ENDBRANCH   4  18
TORSDOF 7
ENDMDL
MODEL 2
REMARK VINA RESULT:      -8.1      5.708      9.813
REMARK  Name = 
REMARK  8 active torsions:
REMARK  status: ('A' for Active; 'I' for Inactive)
REMARK    1  A    between atoms: C_1  and  O_2
REMARK    2  A    between atoms: O_2  and  N_3
REMARK    3  A    between atoms: C_4  and  C_5
REMARK    4  A    between atoms: C_4  and  C_12
REMARK    5  A    between atoms: C_15  and  C_16
REMARK    6  A    between atoms: C_16  and  O_17
REMARK    7  A    between atoms: O_17  and  C_18
REMARK    8  A    between atoms: C_21  and  C_22
REMARK                            x       y       z     vdW  Elec       q    Type
REMARK                         _______ _______ _______ _____ _____    ______ ____
ROOT
ATOM      1  C   UNL     1       1.137   9.505  19.127  0.00  0.00    +0.000 A 
ATOM      2  C   UNL     1       1.120   8.929  20.405  0.00  0.00    +0.000 A 
ATOM      3  C   UNL     1       1.698   7.666  20.644  0.00  0.00    +0.000 A 
ATOM      4  C   UNL     1       2.284   6.945  19.598  0.00  0.00    +0.000 A 
ATOM      5  C   UNL     1       2.340   7.536  18.338  0.00  0.00    +0.000 A 
ATOM      6  C   UNL     1       1.849   8.825  18.138  0.00  0.00    +0.000 A 
ENDROOT
BRANCH   1   8
ATOM      7  N   UNL     1       1.279  11.886  19.077  0.00  0.00    +0.000 NA
ATOM      8  C   UNL     1       0.481  10.863  18.899  0.00  0.00    +0.000 C 
BRANCH   8   9
ATOM      9  C   UNL     1      -1.015  10.980  18.546  0.00  0.00    +0.000 A 
ATOM     10  C   UNL     1      -1.914  11.839  19.197  0.00  0.00    +0.000 A 
ATOM     11  C   UNL     1      -3.283  11.862  18.905  0.00  0.00    +0.000 A 
ATOM     12  C   UNL     1      -3.800  11.005  17.949  0.00  0.00    +0.000 A 
ATOM     13 CL   UNL     1      -5.490  10.983  17.652  0.00  0.00    +0.000 Cl
ATOM     14  C   UNL     1      -2.941  10.174  17.244  0.00  0.00    +0.000 A 
ATOM     15  C   UNL     1      -1.562  10.188  17.520  0.00  0.00    +0.000 A 
ENDBRANCH   8   9
BRANCH   7  17
ATOM     16  C   UNL     1       1.710  14.070  18.474  0.00  0.00    +0.000 C 
ATOM     17  O   UNL     1       0.696  13.121  18.771  0.00  0.00    +0.000 OA
ENDBRANCH   7  17
ENDBRANCH   1   8
BRANCH   4  18
ATOM     18  C   UNL     1       2.871   5.569  19.779  0.00  0.00    +0.000 C 
BRANCH  18  19
ATOM     19  O   UNL     1       4.283   5.654  19.611  0.00  0.00    +0.000 OA
BRANCH  19  20
ATOM     20  C   UNL     1       4.748   5.407  18.349  0.00  0.00    +0.000 A 
ATOM     21  C   UNL     1       4.240   4.251  17.751  0.00  0.00    +0.000 A 
ATOM     22  C   UNL     1       4.626   3.893  16.459  0.00  0.00    +0.000 A 
ATOM     23  C   UNL     1       5.511   4.702  15.732  0.00  0.00    +0.000 A 
ATOM     24  C   UNL     1       6.005   5.871  16.332  0.00  0.00    +0.000 A 
ATOM     25  C   UNL     1       5.621   6.223  17.630  0.00  0.00    +0.000 A 
BRANCH  23  26
ATOM     26  C   UNL     1       5.930   4.342  14.328  0.00  0.00    +0.000 C 
ATOM     27  F   UNL     1       6.821   5.217  13.783  0.00  0.00    +0.000 F 
ATOM     28  F   UNL     1       6.525   3.117  14.267  0.00  0.00    +0.000 F 
ATOM     29  F   UNL     1       4.880   4.290  13.467  0.00  0.00    +0.000 F 
ENDBRANCH  23  26
ENDBRANCH  19  20
ENDBRANCH  18  19
ENDBRANCH   4  18
TORSDOF 7
ENDMDL
MODEL 3
REMARK VINA RESULT:      -8.1      0.263      1.161
REMARK  Name = 
REMARK  8 active torsions:
REMARK  status: ('A' for Active; 'I' for Inactive)
REMARK    1  A    between atoms: C_1  and  O_2
REMARK    2  A    between atoms: O_2  and  N_3
REMARK    3  A    between atoms: C_4  and  C_5
REMARK    4  A    between atoms: C_4  and  C_12
REMARK    5  A    between atoms: C_15  and  C_16
REMARK    6  A    between atoms: C_16  and  O_17
REMARK    7  A    between atoms: O_17  and  C_18
REMARK    8  A    between atoms: C_21  and  C_22
REMARK                            x       y       z     vdW  Elec       q    Type
REMARK                         _______ _______ _______ _____ _____    ______ ____
ROOT
ATOM      1  C   UNL     1       2.044   7.155  19.797  0.00  0.00    +0.000 A 
ATOM      2  C   UNL     1       2.187   7.892  18.614  0.00  0.00    +0.000 A 
ATOM      3  C   UNL     1       1.631   9.181  18.483  0.00  0.00    +0.000 A 
ATOM      4  C   UNL     1       0.898   9.746  19.533  0.00  0.00    +0.000 A 
ATOM      5  C   UNL     1       0.793   9.032  20.725  0.00  0.00    +0.000 A 
ATOM      6  C   UNL     1       1.429   7.801  20.872  0.00  0.00    +0.000 A 
ENDROOT
BRANCH   1   8
ATOM      7  N   UNL     1       2.144   5.022  20.861  0.00  0.00    +0.000 NA
ATOM      8  C   UNL     1       2.640   5.754  19.895  0.00  0.00    +0.000 C 
BRANCH   8   9
ATOM      9  C   UNL     1       3.769   5.298  18.951  0.00  0.00    +0.000 A 
ATOM     10  C   UNL     1       5.136   5.396  19.253  0.00  0.00    +0.000 A 
ATOM     11  C   UNL     1       6.139   5.047  18.340  0.00  0.00    +0.000 A 
ATOM     12  C   UNL     1       5.796   4.594  17.078  0.00  0.00    +0.000 A 
ATOM     13 CL   UNL     1       7.030   4.243  15.937  0.00  0.00    +0.000 Cl
ATOM     14  C   UNL     1       4.458   4.433  16.752  0.00  0.00    +0.000 A 
ATOM     15  C   UNL     1       3.461   4.751  17.692  0.00  0.00    +0.000 A 
ENDBRANCH   8   9
BRANCH   7  17
ATOM     16  C   UNL     1       1.540   2.798  20.782  0.00  0.00    +0.000 C 
ATOM     17  O   UNL     1       2.625   3.708  20.882  0.00  0.00    +0.000 OA
ENDBRANCH   7  17
ENDBRANCH   1   8
BRANCH   4  18
ATOM     18  C   UNL     1       0.234  11.095  19.436  0.00  0.00    +0.000 C 
BRANCH  18  19
ATOM     19  O   UNL     1      -0.483  11.160  18.207  0.00  0.00    +0.000 OA
BRANCH  19  20
ATOM     20  C   UNL     1      -1.840  11.282  18.317  0.00  0.00    +0.000 A 
ATOM     21  C   UNL     1      -2.576  10.460  17.459  0.00  0.00    +0.000 A 
ATOM     22  C   UNL     1      -3.971  10.480  17.479  0.00  0.00    +0.000 A 
ATOM     23  C   UNL     1      -4.655  11.308  18.380  0.00  0.00    +0.000 A 
ATOM     24  C   UNL     1      -3.912  12.120  19.251  0.00  0.00    +0.000 A 
ATOM     25  C   UNL     1      -2.513  12.102  19.222  0.00  0.00    +0.000 A 
BRANCH  23  26
ATOM     26  C   UNL     1      -6.163  11.335  18.430  0.00  0.00    +0.000 C 
ATOM     27  F   UNL     1      -6.661  12.018  19.500  0.00  0.00    +0.000 F 
ATOM     28  F   UNL     1      -6.704  11.923  17.326  0.00  0.00    +0.000 F 
ATOM     29  F   UNL     1      -6.706  10.091  18.494  0.00  0.00    +0.000 F 
ENDBRANCH  23  26
ENDBRANCH  19  20
ENDBRANCH  18  19
ENDBRANCH   4  18
TORSDOF 7
ENDMDL
MODEL 4
REMARK VINA RESULT:      -8.1      2.437      3.103
REMARK  Name = 
REMARK  8 active torsions:
REMARK  status: ('A' for Active; 'I' for Inactive)
REMARK    1  A    between atoms: C_1  and  O_2
REMARK    2  A    between atoms: O_2  and  N_3
REMARK    3  A    between atoms: C_4  and  C_5
REMARK    4  A    between atoms: C_4  and  C_12
REMARK    5  A    between atoms: C_15  and  C_16
REMARK    6  A    between atoms: C_16  and  O_17
REMARK    7  A    between atoms: O_17  and  C_18
REMARK    8  A    between atoms: C_21  and  C_22
REMARK                            x       y       z     vdW  Elec       q    Type
REMARK                         _______ _______ _______ _____ _____    ______ ____
ROOT
ATOM      1  C   UNL     1       2.206   7.052  19.612  0.00  0.00    +0.000 A 
ATOM      2  C   UNL     1       2.273   7.789  18.423  0.00  0.00    +0.000 A 
ATOM      3  C   UNL     1       1.697   9.072  18.324  0.00  0.00    +0.000 A 
ATOM      4  C   UNL     1       1.019   9.630  19.413  0.00  0.00    +0.000 A 
ATOM      5  C   UNL     1       0.990   8.916  20.610  0.00  0.00    +0.000 A 
ATOM      6  C   UNL     1       1.647   7.692  20.720  0.00  0.00    +0.000 A 
ENDROOT
BRANCH   1   8
ATOM      7  N   UNL     1       2.331   4.893  20.618  0.00  0.00    +0.000 NA
ATOM      8  C   UNL     1       2.822   5.658  19.676  0.00  0.00    +0.000 C 
BRANCH   8   9
ATOM      9  C   UNL     1       3.965   5.244  18.728  0.00  0.00    +0.000 A 
ATOM     10  C   UNL     1       5.326   5.451  18.999  0.00  0.00    +0.000 A 
ATOM     11  C   UNL     1       6.336   5.136  18.080  0.00  0.00    +0.000 A 
ATOM     12  C   UNL     1       6.004   4.609  16.844  0.00  0.00    +0.000 A 
ATOM     13 CL   UNL     1       7.240   4.299  15.694  0.00  0.00    +0.000 Cl
ATOM     14  C   UNL     1       4.675   4.341  16.552  0.00  0.00    +0.000 A 
ATOM     15  C   UNL     1       3.674   4.626  17.499  0.00  0.00    +0.000 A 
ENDBRANCH   8   9
BRANCH   7  17
ATOM     16  C   UNL     1       2.240   2.835  21.657  0.00  0.00    +0.000 C 
ATOM     17  O   UNL     1       2.831   3.585  20.606  0.00  0.00    +0.000 OA
ENDBRANCH   7  17
ENDBRANCH   1   8
BRANCH   4  18
ATOM     18  C   UNL     1       0.336  10.972  19.355  0.00  0.00    +0.000 C 
BRANCH  18  19
ATOM     19  O   UNL     1       0.487  11.612  20.618  0.00  0.00    +0.000 OA
BRANCH  19  20
ATOM     20  C   UNL     1      -0.675  11.934  21.264  0.00  0.00    +0.000 A 
ATOM     21  C   UNL     1      -0.820  11.364  22.531  0.00  0.00    +0.000 A 
ATOM     22  C   UNL     1      -1.956  11.622  23.299  0.00  0.00    +0.000 A 
ATOM     23  C   UNL     1      -2.957  12.479  22.820  0.00  0.00    +0.000 A 
ATOM     24  C   UNL     1      -2.798  13.062  21.553  0.00  0.00    +0.000 A 
ATOM     25  C   UNL     1      -1.661  12.795  20.783  0.00  0.00    +0.000 A 
BRANCH  23  26
ATOM     26  C   UNL     1      -4.187  12.785  23.640  0.00  0.00    +0.000 C 
ATOM     27  F   UNL     1      -4.305  12.010  24.754  0.00  0.00    +0.000 F 
ATOM     28  F   UNL     1      -4.205  14.076  24.078  0.00  0.00    +0.000 F 
ATOM     29  F   UNL     1      -5.338  12.613  22.938  0.00  0.00    +0.000 F 
ENDBRANCH  23  26
ENDBRANCH  19  20
ENDBRANCH  18  19
ENDBRANCH   4  18
TORSDOF 7
ENDMDL
MODEL 5
REMARK VINA RESULT:      -8.1      5.758      9.850
REMARK  Name = 
REMARK  8 active torsions:
REMARK  status: ('A' for Active; 'I' for Inactive)
REMARK    1  A    between atoms: C_1  and  O_2
REMARK    2  A    between atoms: O_2  and  N_3
REMARK    3  A    between atoms: C_4  and  C_5
REMARK    4  A    between atoms: C_4  and  C_12
REMARK    5  A    between atoms: C_15  and  C_16
REMARK    6  A    between atoms: C_16  and  O_17
REMARK    7  A    between atoms: O_17  and  C_18
REMARK    8  A    between atoms: C_21  and  C_22
REMARK                            x       y       z     vdW  Elec       q    Type
REMARK                         _______ _______ _______ _____ _____    ______ ____
ROOT
ATOM      1  C   UNL     1       1.149   9.382  19.001  0.00  0.00    +0.000 A 
ATOM      2  C   UNL     1       1.721   8.652  17.951  0.00  0.00    +0.000 A 
ATOM      3  C   UNL     1       2.349   7.411  18.179  0.00  0.00    +0.000 A 
ATOM      4  C   UNL     1       2.436   6.889  19.474  0.00  0.00    +0.000 A 
ATOM      5  C   UNL     1       1.829   7.592  20.513  0.00  0.00    +0.000 A 
ATOM      6  C   UNL     1       1.129   8.770  20.256  0.00  0.00    +0.000 A 
ENDROOT
BRANCH   1   8
ATOM      7  N   UNL     1       1.310  11.755  18.821  0.00  0.00    +0.000 NA
ATOM      8  C   UNL     1       0.498  10.732  18.721  0.00  0.00    +0.000 C 
BRANCH   8   9
ATOM      9  C   UNL     1      -1.007  10.844  18.406  0.00  0.00    +0.000 A 
ATOM     10  C   UNL     1      -1.628  10.236  17.305  0.00  0.00    +0.000 A 
ATOM     11  C   UNL     1      -2.983  10.424  17.002  0.00  0.00    +0.000 A 
ATOM     12  C   UNL     1      -3.760  11.247  17.799  0.00  0.00    +0.000 A 
ATOM     13 CL   UNL     1      -5.399  11.535  17.377  0.00  0.00    +0.000 Cl
ATOM     14  C   UNL     1      -3.201  11.829  18.927  0.00  0.00    +0.000 A 
ATOM     15  C   UNL     1      -1.849  11.601  19.241  0.00  0.00    +0.000 A 
ENDBRANCH   8   9
BRANCH   7  17
ATOM     16  C   UNL     1       1.681  14.021  18.609  0.00  0.00    +0.000 C 
ATOM     17  O   UNL     1       0.728  12.978  18.467  0.00  0.00    +0.000 OA
ENDBRANCH   7  17
ENDBRANCH   1   8
BRANCH   4  18
ATOM     18  C   UNL     1       3.139   5.594  19.791  0.00  0.00    +0.000 C 
BRANCH  18  19
ATOM     19  O   UNL     1       4.529   5.759  19.526  0.00  0.00    +0.000 OA
BRANCH  19  20
ATOM     20  C   UNL     1       4.927   5.485  18.246  0.00  0.00    +0.000 A 
ATOM     21  C   UNL     1       4.650   4.187  17.810  0.00  0.00    +0.000 A 
ATOM     22  C   UNL     1       4.995   3.784  16.519  0.00  0.00    +0.000 A 
ATOM     23  C   UNL     1       5.602   4.685  15.633  0.00  0.00    +0.000 A 
ATOM     24  C   UNL     1       5.864   5.992  16.072  0.00  0.00    +0.000 A 
ATOM     25  C   UNL     1       5.523   6.390  17.368  0.00  0.00    +0.000 A 
BRANCH  23  26
ATOM     26  C   UNL     1       5.970   4.275  14.228  0.00  0.00    +0.000 C 
ATOM     27  F   UNL     1       6.457   3.005  14.140  0.00  0.00    +0.000 F 
ATOM     28  F   UNL     1       4.903   4.325  13.381  0.00  0.00    +0.000 F 
ATOM     29  F   UNL     1       6.919   5.080  13.681  0.00  0.00    +0.000 F 
ENDBRANCH  23  26
ENDBRANCH  19  20
ENDBRANCH  18  19
ENDBRANCH   4  18
TORSDOF 7
ENDMDL
MODEL 6
REMARK VINA RESULT:      -8.1      5.744      9.843
REMARK  Name = 
REMARK  8 active torsions:
REMARK  status: ('A' for Active; 'I' for Inactive)
REMARK    1  A    between atoms: C_1  and  O_2
REMARK    2  A    between atoms: O_2  and  N_3
REMARK    3  A    between atoms: C_4  and  C_5
REMARK    4  A    between atoms: C_4  and  C_12
REMARK    5  A    between atoms: C_15  and  C_16
REMARK    6  A    between atoms: C_16  and  O_17
REMARK    7  A    between atoms: O_17  and  C_18
REMARK    8  A    between atoms: C_21  and  C_22
REMARK                            x       y       z     vdW  Elec       q    Type
REMARK                         _______ _______ _______ _____ _____    ______ ____
ROOT
ATOM      1  C   UNL     1       0.994   9.676  18.944  0.00  0.00    +0.000 A 
ATOM      2  C   UNL     1       0.977   9.167  20.249  0.00  0.00    +0.000 A 
ATOM      3  C   UNL     1       1.573   7.928  20.558  0.00  0.00    +0.000 A 
ATOM      4  C   UNL     1       2.178   7.163  19.554  0.00  0.00    +0.000 A 
ATOM      5  C   UNL     1       2.234   7.689  18.265  0.00  0.00    +0.000 A 
ATOM      6  C   UNL     1       1.725   8.958  17.995  0.00  0.00    +0.000 A 
ENDROOT
BRANCH   1   8
ATOM      7  N   UNL     1       1.127  12.040  18.650  0.00  0.00    +0.000 NA
ATOM      8  C   UNL     1       0.319  11.010  18.641  0.00  0.00    +0.000 C 
BRANCH   8   9
ATOM      9  C   UNL     1      -1.202  11.101  18.407  0.00  0.00    +0.000 A 
ATOM     10  C   UNL     1      -2.076  11.867  19.194  0.00  0.00    +0.000 A 
ATOM     11  C   UNL     1      -3.463  11.865  19.004  0.00  0.00    +0.000 A 
ATOM     12  C   UNL     1      -4.023  11.076  18.014  0.00  0.00    +0.000 A 
ATOM     13 CL   UNL     1      -5.729  11.017  17.837  0.00  0.00    +0.000 Cl
ATOM     14  C   UNL     1      -3.194  10.341  17.179  0.00  0.00    +0.000 A 
ATOM     15  C   UNL     1      -1.799  10.382  17.356  0.00  0.00    +0.000 A 
ENDBRANCH   8   9
BRANCH   7  17
ATOM     16  C   UNL     1       0.775  14.237  19.257  0.00  0.00    +0.000 C 
ATOM     17  O   UNL     1       0.518  13.244  18.276  0.00  0.00    +0.000 OA
ENDBRANCH   7  17
ENDBRANCH   1   8
BRANCH   4  18
ATOM     18  C   UNL     1       2.786   5.807  19.810  0.00  0.00    +0.000 C 
BRANCH  18  19
ATOM     19  O   UNL     1       4.175   5.869  19.501  0.00  0.00    +0.000 OA
BRANCH  19  20
ATOM     20  C   UNL     1       4.525   5.440  18.251  0.00  0.00    +0.000 A 
ATOM     21  C   UNL     1       5.511   6.205  17.622  0.00  0.00    +0.000 A 
ATOM     22  C   UNL     1       5.965   5.866  16.347  0.00  0.00    +0.000 A 
ATOM     23  C   UNL     1       5.457   4.737  15.689  0.00  0.00    +0.000 A 
ATOM     24  C   UNL     1       4.480   3.963  16.332  0.00  0.00    +0.000 A 
ATOM     25  C   UNL     1       4.021   4.310  17.607  0.00  0.00    +0.000 A 
BRANCH  23  26
ATOM     26  C   UNL     1       5.946   4.344  14.316  0.00  0.00    +0.000 C 
ATOM     27  F   UNL     1       6.551   3.123  14.282  0.00  0.00    +0.000 F 
ATOM     28  F   UNL     1       4.932   4.283  13.407  0.00  0.00    +0.000 F 
ATOM     29  F   UNL     1       6.848   5.225  13.811  0.00  0.00    +0.000 F 
ENDBRANCH  23  26
ENDBRANCH  19  20
ENDBRANCH  18  19
ENDBRANCH   4  18
TORSDOF 7
ENDMDL
MODEL 7
REMARK VINA RESULT:      -8.0      1.511      2.509
REMARK  Name = 
REMARK  8 active torsions:
REMARK  status: ('A' for Active; 'I' for Inactive)
REMARK    1  A    between atoms: C_1  and  O_2
REMARK    2  A    between atoms: O_2  and  N_3
REMARK    3  A    between atoms: C_4  and  C_5
REMARK    4  A    between atoms: C_4  and  C_12
REMARK    5  A    between atoms: C_15  and  C_16
REMARK    6  A    between atoms: C_16  and  O_17
REMARK    7  A    between atoms: O_17  and  C_18
REMARK    8  A    between atoms: C_21  and  C_22
REMARK                            x       y       z     vdW  Elec       q    Type
REMARK                         _______ _______ _______ _____ _____    ______ ____
ROOT
ATOM      1  C   UNL     1       2.962   6.204  19.120  0.00  0.00    +0.000 A 
ATOM      2  C   UNL     1       2.279   6.194  20.344  0.00  0.00    +0.000 A 
ATOM      3  C   UNL     1       1.514   7.301  20.763  0.00  0.00    +0.000 A 
ATOM      4  C   UNL     1       1.440   8.452  19.971  0.00  0.00    +0.000 A 
ATOM      5  C   UNL     1       2.083   8.446  18.735  0.00  0.00    +0.000 A 
ATOM      6  C   UNL     1       2.756   7.309  18.292  0.00  0.00    +0.000 A 
ENDROOT
BRANCH   1   8
ATOM      7  N   UNL     1       3.706   3.972  19.519  0.00  0.00    +0.000 NA
ATOM      8  C   UNL     1       3.799   4.997  18.709  0.00  0.00    +0.000 C 
BRANCH   8   9
ATOM      9  C   UNL     1       4.710   5.042  17.466  0.00  0.00    +0.000 A 
ATOM     10  C   UNL     1       4.425   4.388  16.257  0.00  0.00    +0.000 A 
ATOM     11  C   UNL     1       5.313   4.383  15.173  0.00  0.00    +0.000 A 
ATOM     12  C   UNL     1       6.531   5.032  15.276  0.00  0.00    +0.000 A 
ATOM     13 CL   UNL     1       7.647   4.955  13.974  0.00  0.00    +0.000 Cl
ATOM     14  C   UNL     1       6.834   5.734  16.434  0.00  0.00    +0.000 A 
ATOM     15  C   UNL     1       5.917   5.763  17.500  0.00  0.00    +0.000 A 
ENDBRANCH   8   9
BRANCH   7  17
ATOM     16  C   UNL     1       3.481   1.790  18.807  0.00  0.00    +0.000 C 
ATOM     17  O   UNL     1       4.399   2.838  19.082  0.00  0.00    +0.000 OA
ENDBRANCH   7  17
ENDBRANCH   1   8
BRANCH   4  18
ATOM     18  C   UNL     1       0.684   9.687  20.387  0.00  0.00    +0.000 C 
BRANCH  18  19
ATOM     19  O   UNL     1       0.585  10.557  19.263  0.00  0.00    +0.000 OA
BRANCH  19  20
ATOM     20  C   UNL     1      -0.682  10.794  18.806  0.00  0.00    +0.000 A 
ATOM     21  C   UNL     1      -1.058  10.036  17.694  0.00  0.00    +0.000 A 
ATOM     22  C   UNL     1      -2.329  10.175  17.137  0.00  0.00    +0.000 A 
ATOM     23  C   UNL     1      -3.258  11.061  17.701  0.00  0.00    +0.000 A 
ATOM     24  C   UNL     1      -2.881  11.809  18.827  0.00  0.00    +0.000 A 
ATOM     25  C   UNL     1      -1.603  11.672  19.379  0.00  0.00    +0.000 A 
BRANCH  23  26
ATOM     26  C   UNL     1      -4.644  11.217  17.124  0.00  0.00    +0.000 C 
ATOM     27  F   UNL     1      -5.604  10.550  17.825  0.00  0.00    +0.000 F 
ATOM     28  F   UNL     1      -5.044  12.520  17.089  0.00  0.00    +0.000 F 
ATOM     29  F   UNL     1      -4.730  10.766  15.845  0.00  0.00    +0.000 F 
ENDBRANCH  23  26
ENDBRANCH  19  20
ENDBRANCH  18  19
ENDBRANCH   4  18
TORSDOF 7
ENDMDL
MODEL 8
REMARK VINA RESULT:      -8.0      1.401      2.190
REMARK  Name = 
REMARK  8 active torsions:
REMARK  status: ('A' for Active; 'I' for Inactive)
REMARK    1  A    between atoms: C_1  and  O_2
REMARK    2  A    between atoms: O_2  and  N_3
REMARK    3  A    between atoms: C_4  and  C_5
REMARK    4  A    between atoms: C_4  and  C_12
REMARK    5  A    between atoms: C_15  and  C_16
REMARK    6  A    between atoms: C_16  and  O_17
REMARK    7  A    between atoms: O_17  and  C_18
REMARK    8  A    between atoms: C_21  and  C_22
REMARK                            x       y       z     vdW  Elec       q    Type
REMARK                         _______ _______ _______ _____ _____    ______ ____
ROOT
ATOM      1  C   UNL     1       2.895   6.035  19.104  0.00  0.00    +0.000 A 
ATOM      2  C   UNL     1       2.214   6.127  20.325  0.00  0.00    +0.000 A 
ATOM      3  C   UNL     1       1.516   7.296  20.687  0.00  0.00    +0.000 A 
ATOM      4  C   UNL     1       1.508   8.408  19.838  0.00  0.00    +0.000 A 
ATOM      5  C   UNL     1       2.148   8.303  18.604  0.00  0.00    +0.000 A 
ATOM      6  C   UNL     1       2.753   7.107  18.221  0.00  0.00    +0.000 A 
ENDROOT
BRANCH   1   8
ATOM      7  N   UNL     1       3.384   3.738  19.524  0.00  0.00    +0.000 NA
ATOM      8  C   UNL     1       3.659   4.762  18.756  0.00  0.00    +0.000 C 
BRANCH   8   9
ATOM      9  C   UNL     1       4.703   4.742  17.622  0.00  0.00    +0.000 A 
ATOM     10  C   UNL     1       6.037   5.150  17.772  0.00  0.00    +0.000 A 
ATOM     11  C   UNL     1       6.939   5.195  16.701  0.00  0.00    +0.000 A 
ATOM     12  C   UNL     1       6.521   4.838  15.431  0.00  0.00    +0.000 A 
ATOM     13 CL   UNL     1       7.609   4.971  14.110  0.00  0.00    +0.000 Cl
ATOM     14  C   UNL     1       5.225   4.380  15.244  0.00  0.00    +0.000 A 
ATOM     15  C   UNL     1       4.340   4.303  16.335  0.00  0.00    +0.000 A 
ENDBRANCH   8   9
BRANCH   7  17
ATOM     16  C   UNL     1       4.667   1.966  20.254  0.00  0.00    +0.000 C 
ATOM     17  O   UNL     1       4.016   2.551  19.136  0.00  0.00    +0.000 OA
ENDBRANCH   7  17
ENDBRANCH   1   8
BRANCH   4  18
ATOM     18  C   UNL     1       0.825   9.705  20.190  0.00  0.00    +0.000 C 
BRANCH  18  19
ATOM     19  O   UNL     1       0.584  10.430  18.988  0.00  0.00    +0.000 OA
BRANCH  19  20
ATOM     20  C   UNL     1      -0.716  10.787  18.760  0.00  0.00    +0.000 A 
ATOM     21  C   UNL     1      -1.351  10.077  17.737  0.00  0.00    +0.000 A 
ATOM     22  C   UNL     1      -2.682  10.338  17.413  0.00  0.00    +0.000 A 
ATOM     23  C   UNL     1      -3.411  11.300  18.126  0.00  0.00    +0.000 A 
ATOM     24  C   UNL     1      -2.774  11.999  19.163  0.00  0.00    +0.000 A 
ATOM     25  C   UNL     1      -1.437  11.740  19.481  0.00  0.00    +0.000 A 
BRANCH  23  26
ATOM     26  C   UNL     1      -4.857  11.588  17.802  0.00  0.00    +0.000 C 
ATOM     27  F   UNL     1      -5.358  12.670  18.461  0.00  0.00    +0.000 F 
ATOM     28  F   UNL     1      -5.047  11.836  16.475  0.00  0.00    +0.000 F 
ATOM     29  F   UNL     1      -5.677  10.548  18.108  0.00  0.00    +0.000 F 
ENDBRANCH  23  26
ENDBRANCH  19  20
ENDBRANCH  18  19
ENDBRANCH   4  18
TORSDOF 7
ENDMDL
MODEL 9
REMARK VINA RESULT:      -8.0      2.679      3.436
REMARK  Name = 
REMARK  8 active torsions:
REMARK  status: ('A' for Active; 'I' for Inactive)
REMARK    1  A    between atoms: C_1  and  O_2
REMARK    2  A    between atoms: O_2  and  N_3
REMARK    3  A    between atoms: C_4  and  C_5
REMARK    4  A    between atoms: C_4  and  C_12
REMARK    5  A    between atoms: C_15  and  C_16
REMARK    6  A    between atoms: C_16  and  O_17
REMARK    7  A    between atoms: O_17  and  C_18
REMARK    8  A    between atoms: C_21  and  C_22
REMARK                            x       y       z     vdW  Elec       q    Type
REMARK                         _______ _______ _______ _____ _____    ______ ____
ROOT
ATOM      1  C   UNL     1       3.047   6.553  18.860  0.00  0.00    +0.000 A 
ATOM      2  C   UNL     1       2.391   6.810  20.071  0.00  0.00    +0.000 A 
ATOM      3  C   UNL     1       1.584   7.954  20.236  0.00  0.00    +0.000 A 
ATOM      4  C   UNL     1       1.439   8.875  19.194  0.00  0.00    +0.000 A 
ATOM      5  C   UNL     1       2.055   8.598  17.975  0.00  0.00    +0.000 A 
ATOM      6  C   UNL     1       2.772   7.416  17.797  0.00  0.00    +0.000 A 
ENDROOT
BRANCH   1   8
ATOM      7  N   UNL     1       3.822   4.463  19.709  0.00  0.00    +0.000 NA
ATOM      8  C   UNL     1       3.932   5.317  18.724  0.00  0.00    +0.000 C 
BRANCH   8   9
ATOM      9  C   UNL     1       4.902   5.156  17.537  0.00  0.00    +0.000 A 
ATOM     10  C   UNL     1       6.175   5.743  17.474  0.00  0.00    +0.000 A 
ATOM     11  C   UNL     1       6.999   5.642  16.346  0.00  0.00    +0.000 A 
ATOM     12  C   UNL     1       6.561   4.951  15.231  0.00  0.00    +0.000 A 
ATOM     13 CL   UNL     1       7.543   4.898  13.824  0.00  0.00    +0.000 Cl
ATOM     14  C   UNL     1       5.330   4.311  15.266  0.00  0.00    +0.000 A 
ATOM     15  C   UNL     1       4.528   4.388  16.419  0.00  0.00    +0.000 A 
ENDBRANCH   8   9
BRANCH   7  17
ATOM     16  C   UNL     1       3.684   2.189  19.345  0.00  0.00    +0.000 C 
ATOM     17  O   UNL     1       4.563   3.289  19.528  0.00  0.00    +0.000 OA
ENDBRANCH   7  17
ENDBRANCH   1   8
BRANCH   4  18
ATOM     18  C   UNL     1       0.634  10.143  19.325  0.00  0.00    +0.000 C 
BRANCH  18  19
ATOM     19  O   UNL     1       0.809  10.655  20.643  0.00  0.00    +0.000 OA
BRANCH  19  20
ATOM     20  C   UNL     1      -0.311  11.169  21.235  0.00  0.00    +0.000 A 
ATOM     21  C   UNL     1      -0.491  10.804  22.571  0.00  0.00    +0.000 A 
ATOM     22  C   UNL     1      -1.590  11.271  23.293  0.00  0.00    +0.000 A 
ATOM     23  C   UNL     1      -2.517  12.135  22.694  0.00  0.00    +0.000 A 
ATOM     24  C   UNL     1      -2.323  12.512  21.356  0.00  0.00    +0.000 A 
ATOM     25  C   UNL     1      -1.224  12.036  20.633  0.00  0.00    +0.000 A 
BRANCH  23  26
ATOM     26  C   UNL     1      -3.705  12.665  23.460  0.00  0.00    +0.000 C 
ATOM     27  F   UNL     1      -4.829  12.797  22.701  0.00  0.00    +0.000 F 
ATOM     28  F   UNL     1      -4.049  11.854  24.500  0.00  0.00    +0.000 F 
ATOM     29  F   UNL     1      -3.472  13.889  24.003  0.00  0.00    +0.000 F 
ENDBRANCH  23  26
ENDBRANCH  19  20
ENDBRANCH  18  19
ENDBRANCH   4  18
TORSDOF 7
ENDMDL
