MODEL 1
REMARK VINA RESULT:      -6.7      0.000      0.000
REMARK  Name = 
REMARK  9 active torsions:
REMARK  status: ('A' for Active; 'I' for Inactive)
REMARK    1  A    between atoms: C_1  and  C_2
REMARK    2  A    between atoms: C_2  and  C_3
REMARK    3  A    between atoms: C_3  and  C_4
REMARK    4  A    between atoms: C_4  and  N_5
REMARK    5  A    between atoms: N_5  and  C_6
REMARK    6  A    between atoms: C_7  and  C_9
REMARK    7  A    between atoms: C_16  and  C_17
REMARK    8  A    between atoms: C_19  and  C_20
REMARK    9  A    between atoms: N_21  and  C_22
REMARK                            x       y       z     vdW  Elec       q    Type
REMARK                         _______ _______ _______ _____ _____    ______ ____
ROOT
ATOM      1  C   UNL     1       0.517  10.827  18.332  0.00  0.00    +0.000 C 
ATOM      2  C   UNL     1      -0.293   9.902  19.252  0.00  0.00    +0.000 C 
ATOM      3  C   UNL     1       0.583   9.107  20.224  0.00  0.00    +0.000 C 
ATOM      4  N   UNL     1       1.598   8.402  19.450  0.00  0.00    +0.000 N 
ATOM      5  C   UNL     1       1.971   7.126  19.845  0.00  0.00    +0.000 A 
ATOM      6  N   UNL     1       1.341   6.510  20.901  0.00  0.00    +0.000 NA
ATOM      7  N   UNL     1       1.589   5.155  21.376  0.00  0.00    +0.000 NA
ATOM      8  C   UNL     1       2.477   4.301  20.800  0.00  0.00    +0.000 A 
ATOM      9  C   UNL     1       2.618   2.949  21.408  0.00  0.00    +0.000 C 
ATOM     10  C   UNL     1       3.128   4.884  19.702  0.00  0.00    +0.000 A 
ATOM     11  C   UNL     1       4.088   4.305  18.888  0.00  0.00    +0.000 A 
ATOM     12  C   UNL     1       4.805   3.004  18.994  0.00  0.00    +0.000 C 
ATOM     13  N   UNL     1       4.347   5.250  17.904  0.00  0.00    +0.000 N 
ATOM     14  N   UNL     1       3.740   6.434  18.166  0.00  0.00    +0.000 NA
ATOM     15  C   UNL     1       2.919   6.238  19.217  0.00  0.00    +0.000 A 
ATOM     16  C   UNL     1       2.508   9.264  18.710  0.00  0.00    +0.000 C 
ATOM     17  C   UNL     1       1.674  10.033  17.678  0.00  0.00    +0.000 C 
ENDROOT
BRANCH  13  18
ATOM     18  C   UNL     1       5.139   5.141  16.716  0.00  0.00    +0.000 A 
ATOM     19  C   UNL     1       4.705   4.421  15.595  0.00  0.00    +0.000 A 
ATOM     20  C   UNL     1       5.502   4.337  14.447  0.00  0.00    +0.000 A 
ATOM     21  C   UNL     1       6.736   4.982  14.406  0.00  0.00    +0.000 A 
ATOM     22 CL   UNL     1       7.704   4.881  12.989  0.00  0.00    +0.000 Cl
ATOM     23  C   UNL     1       7.174   5.720  15.503  0.00  0.00    +0.000 A 
ATOM     24  C   UNL     1       6.375   5.808  16.649  0.00  0.00    +0.000 A 
ENDBRANCH  13  18
BRANCH   1  27
ATOM     25  N   UNL     1       0.214  13.047  19.526  0.00  0.00    +0.000 N 
ATOM     26  C   UNL     1      -1.239  12.957  19.500  0.00  0.00    +0.000 C 
ATOM     27  C   UNL     1       1.078  12.089  19.010  0.00  0.00    +0.000 C 
ATOM     28  O   UNL     1       2.299  12.270  19.047  0.00  0.00    +0.000 OA
BRANCH  25  29
ATOM     29  C   UNL     1       0.797  14.331  19.934  0.00  0.00    +0.000 C 
BRANCH  29  30
ATOM     30  C   UNL     1       0.748  15.437  18.880  0.00  0.00    +0.000 C 
BRANCH  30  32
ATOM     31  C   UNL     1      -0.575  17.325  17.900  0.00  0.00    +0.000 C 
ATOM     32  C   UNL     1      -0.332  16.485  19.146  0.00  0.00    +0.000 C 
ENDBRANCH  30  32
ENDBRANCH  29  30
ENDBRANCH  25  29
ENDBRANCH   1  27
TORSDOF 5
ENDMDL
MODEL 2
REMARK VINA RESULT:      -6.5      0.631      1.112
REMARK  Name = 
REMARK  9 active torsions:
REMARK  status: ('A' for Active; 'I' for Inactive)
REMARK    1  A    between atoms: C_1  and  C_2
REMARK    2  A    between atoms: C_2  and  C_3
REMARK    3  A    between atoms: C_3  and  C_4
REMARK    4  A    between atoms: C_4  and  N_5
REMARK    5  A    between atoms: N_5  and  C_6
REMARK    6  A    between atoms: C_7  and  C_9
REMARK    7  A    between atoms: C_16  and  C_17
REMARK    8  A    between atoms: C_19  and  C_20
REMARK    9  A    between atoms: N_21  and  C_22
REMARK                            x       y       z     vdW  Elec       q    Type
REMARK                         _______ _______ _______ _____ _____    ______ ____
ROOT
ATOM      1  C   UNL     1       0.620  10.818  18.517  0.00  0.00    +0.000 C 
ATOM      2  C   UNL     1      -0.209   9.864  19.388  0.00  0.00    +0.000 C 
ATOM      3  C   UNL     1       0.648   9.017  20.333  0.00  0.00    +0.000 C 
ATOM      4  N   UNL     1       1.662   8.334  19.537  0.00  0.00    +0.000 N 
ATOM      5  C   UNL     1       2.016   7.037  19.878  0.00  0.00    +0.000 A 
ATOM      6  N   UNL     1       1.369   6.383  20.901  0.00  0.00    +0.000 NA
ATOM      7  N   UNL     1       1.597   5.005  21.318  0.00  0.00    +0.000 NA
ATOM      8  C   UNL     1       2.479   4.166  20.713  0.00  0.00    +0.000 A 
ATOM      9  C   UNL     1       2.599   2.788  21.262  0.00  0.00    +0.000 C 
ATOM     10  C   UNL     1       3.147   4.789  19.647  0.00  0.00    +0.000 A 
ATOM     11  C   UNL     1       4.108   4.235  18.817  0.00  0.00    +0.000 A 
ATOM     12  C   UNL     1       4.809   2.922  18.871  0.00  0.00    +0.000 C 
ATOM     13  N   UNL     1       4.387   5.219  17.878  0.00  0.00    +0.000 N 
ATOM     14  N   UNL     1       3.792   6.397  18.186  0.00  0.00    +0.000 NA
ATOM     15  C   UNL     1       2.960   6.165  19.220  0.00  0.00    +0.000 A 
ATOM     16  C   UNL     1       2.589   9.216  18.843  0.00  0.00    +0.000 C 
ATOM     17  C   UNL     1       1.774  10.040  17.838  0.00  0.00    +0.000 C 
ENDROOT
BRANCH  13  18
ATOM     18  C   UNL     1       5.189   5.152  16.693  0.00  0.00    +0.000 A 
ATOM     19  C   UNL     1       6.449   5.759  16.611  0.00  0.00    +0.000 A 
ATOM     20  C   UNL     1       7.210   5.671  15.438  0.00  0.00    +0.000 A 
ATOM     21  C   UNL     1       6.722   4.966  14.342  0.00  0.00    +0.000 A 
ATOM     22 CL   UNL     1       7.666   4.856  12.910  0.00  0.00    +0.000 Cl
ATOM     23  C   UNL     1       5.481   4.337  14.413  0.00  0.00    +0.000 A 
ATOM     24  C   UNL     1       4.721   4.421  15.586  0.00  0.00    +0.000 A 
ENDBRANCH  13  18
BRANCH   1  27
ATOM     25  N   UNL     1       0.614  13.295  19.079  0.00  0.00    +0.000 N 
ATOM     26  C   UNL     1      -0.541  13.567  18.237  0.00  0.00    +0.000 C 
ATOM     27  C   UNL     1       1.190  12.042  19.255  0.00  0.00    +0.000 C 
ATOM     28  O   UNL     1       2.193  11.914  19.964  0.00  0.00    +0.000 OA
BRANCH  25  29
ATOM     29  C   UNL     1       1.346  14.453  19.607  0.00  0.00    +0.000 C 
BRANCH  29  30
ATOM     30  C   UNL     1       2.209  15.201  18.592  0.00  0.00    +0.000 C 
BRANCH  30  32
ATOM     31  C   UNL     1       0.818  17.108  19.431  0.00  0.00    +0.000 C 
ATOM     32  C   UNL     1       1.724  16.622  18.309  0.00  0.00    +0.000 C 
ENDBRANCH  30  32
ENDBRANCH  29  30
ENDBRANCH  25  29
ENDBRANCH   1  27
TORSDOF 5
ENDMDL
MODEL 3
REMARK VINA RESULT:      -6.4      0.911      1.599
REMARK  Name = 
REMARK  9 active torsions:
REMARK  status: ('A' for Active; 'I' for Inactive)
REMARK    1  A    between atoms: C_1  and  C_2
REMARK    2  A    between atoms: C_2  and  C_3
REMARK    3  A    between atoms: C_3  and  C_4
REMARK    4  A    between atoms: C_4  and  N_5
REMARK    5  A    between atoms: N_5  and  C_6
REMARK    6  A    between atoms: C_7  and  C_9
REMARK    7  A    between atoms: C_16  and  C_17
REMARK    8  A    between atoms: C_19  and  C_20
REMARK    9  A    between atoms: N_21  and  C_22
REMARK                            x       y       z     vdW  Elec       q    Type
REMARK                         _______ _______ _______ _____ _____    ______ ____
ROOT
ATOM      1  C   UNL     1       0.550  10.807  18.377  0.00  0.00    +0.000 C 
ATOM      2  C   UNL     1      -0.267   9.863  19.272  0.00  0.00    +0.000 C 
ATOM      3  C   UNL     1       0.600   9.051  20.238  0.00  0.00    +0.000 C 
ATOM      4  N   UNL     1       1.625   8.363  19.461  0.00  0.00    +0.000 N 
ATOM      5  C   UNL     1       1.996   7.080  19.835  0.00  0.00    +0.000 A 
ATOM      6  N   UNL     1       1.357   6.443  20.873  0.00  0.00    +0.000 NA
ATOM      7  N   UNL     1       1.603   5.079  21.323  0.00  0.00    +0.000 NA
ATOM      8  C   UNL     1       2.498   4.238  20.741  0.00  0.00    +0.000 A 
ATOM      9  C   UNL     1       2.636   2.875  21.324  0.00  0.00    +0.000 C 
ATOM     10  C   UNL     1       3.159   4.843  19.661  0.00  0.00    +0.000 A 
ATOM     11  C   UNL     1       4.129   4.282  18.846  0.00  0.00    +0.000 A 
ATOM     12  C   UNL     1       4.847   2.980  18.934  0.00  0.00    +0.000 C 
ATOM     13  N   UNL     1       4.395   5.246  17.883  0.00  0.00    +0.000 N 
ATOM     14  N   UNL     1       3.784   6.423  18.161  0.00  0.00    +0.000 NA
ATOM     15  C   UNL     1       2.953   6.206  19.199  0.00  0.00    +0.000 A 
ATOM     16  C   UNL     1       2.541   9.241  18.746  0.00  0.00    +0.000 C 
ATOM     17  C   UNL     1       1.716  10.027  17.720  0.00  0.00    +0.000 C 
ENDROOT
BRANCH  13  18
ATOM     18  C   UNL     1       5.200   5.161  16.701  0.00  0.00    +0.000 A 
ATOM     19  C   UNL     1       6.471   5.746  16.622  0.00  0.00    +0.000 A 
ATOM     20  C   UNL     1       7.234   5.640  15.452  0.00  0.00    +0.000 A 
ATOM     21  C   UNL     1       6.738   4.939  14.356  0.00  0.00    +0.000 A 
ATOM     22 CL   UNL     1       7.685   4.807  12.928  0.00  0.00    +0.000 Cl
ATOM     23  C   UNL     1       5.485   4.332  14.425  0.00  0.00    +0.000 A 
ATOM     24  C   UNL     1       4.724   4.434  15.595  0.00  0.00    +0.000 A 
ENDBRANCH  13  18
BRANCH   1  27
ATOM     25  N   UNL     1       0.232  12.968  19.672  0.00  0.00    +0.000 N 
ATOM     26  C   UNL     1      -1.217  12.836  19.696  0.00  0.00    +0.000 C 
ATOM     27  C   UNL     1       1.102  12.056  19.086  0.00  0.00    +0.000 C 
ATOM     28  O   UNL     1       2.318  12.271  19.084  0.00  0.00    +0.000 OA
BRANCH  25  29
ATOM     29  C   UNL     1       0.795  14.251  20.110  0.00  0.00    +0.000 C 
BRANCH  29  30
ATOM     30  C   UNL     1       1.020  14.389  21.615  0.00  0.00    +0.000 C 
BRANCH  30  32
ATOM     31  C   UNL     1      -0.905  14.257  23.212  0.00  0.00    +0.000 C 
ATOM     32  C   UNL     1      -0.078  15.178  22.326  0.00  0.00    +0.000 C 
ENDBRANCH  30  32
ENDBRANCH  29  30
ENDBRANCH  25  29
ENDBRANCH   1  27
TORSDOF 5
ENDMDL
MODEL 4
REMARK VINA RESULT:      -6.4      0.930      1.442
REMARK  Name = 
REMARK  9 active torsions:
REMARK  status: ('A' for Active; 'I' for Inactive)
REMARK    1  A    between atoms: C_1  and  C_2
REMARK    2  A    between atoms: C_2  and  C_3
REMARK    3  A    between atoms: C_3  and  C_4
REMARK    4  A    between atoms: C_4  and  N_5
REMARK    5  A    between atoms: N_5  and  C_6
REMARK    6  A    between atoms: C_7  and  C_9
REMARK    7  A    between atoms: C_16  and  C_17
REMARK    8  A    between atoms: C_19  and  C_20
REMARK    9  A    between atoms: N_21  and  C_22
REMARK                            x       y       z     vdW  Elec       q    Type
REMARK                         _______ _______ _______ _____ _____    ______ ____
ROOT
ATOM      1  C   UNL     1       0.614  10.803  18.306  0.00  0.00    +0.000 C 
ATOM      2  C   UNL     1      -0.203   9.884  19.227  0.00  0.00    +0.000 C 
ATOM      3  C   UNL     1       0.667   9.074  20.191  0.00  0.00    +0.000 C 
ATOM      4  N   UNL     1       1.669   8.359  19.408  0.00  0.00    +0.000 N 
ATOM      5  C   UNL     1       2.027   7.077  19.795  0.00  0.00    +0.000 A 
ATOM      6  N   UNL     1       1.395   6.464  20.852  0.00  0.00    +0.000 NA
ATOM      7  N   UNL     1       1.628   5.103  21.319  0.00  0.00    +0.000 NA
ATOM      8  C   UNL     1       2.502   4.240  20.735  0.00  0.00    +0.000 A 
ATOM      9  C   UNL     1       2.628   2.884  21.336  0.00  0.00    +0.000 C 
ATOM     10  C   UNL     1       3.154   4.820  19.635  0.00  0.00    +0.000 A 
ATOM     11  C   UNL     1       4.103   4.232  18.814  0.00  0.00    +0.000 A 
ATOM     12  C   UNL     1       4.803   2.922  18.909  0.00  0.00    +0.000 C 
ATOM     13  N   UNL     1       4.368   5.179  17.832  0.00  0.00    +0.000 N 
ATOM     14  N   UNL     1       3.778   6.369  18.103  0.00  0.00    +0.000 NA
ATOM     15  C   UNL     1       2.961   6.179  19.158  0.00  0.00    +0.000 A 
ATOM     16  C   UNL     1       2.587   9.213  18.666  0.00  0.00    +0.000 C 
ATOM     17  C   UNL     1       1.757   9.997  17.642  0.00  0.00    +0.000 C 
ENDROOT
BRANCH  13  18
ATOM     18  C   UNL     1       5.152   5.064  16.639  0.00  0.00    +0.000 A 
ATOM     19  C   UNL     1       4.696   4.367  15.513  0.00  0.00    +0.000 A 
ATOM     20  C   UNL     1       5.487   4.277  14.360  0.00  0.00    +0.000 A 
ATOM     21  C   UNL     1       6.734   4.894  14.320  0.00  0.00    +0.000 A 
ATOM     22 CL   UNL     1       7.694   4.787  12.898  0.00  0.00    +0.000 Cl
ATOM     23  C   UNL     1       7.194   5.611  15.423  0.00  0.00    +0.000 A 
ATOM     24  C   UNL     1       6.402   5.704  16.574  0.00  0.00    +0.000 A 
ENDBRANCH  13  18
BRANCH   1  27
ATOM     25  N   UNL     1       0.358  12.934  19.663  0.00  0.00    +0.000 N 
ATOM     26  C   UNL     1      -1.081  12.766  19.808  0.00  0.00    +0.000 C 
ATOM     27  C   UNL     1       1.195  12.054  18.987  0.00  0.00    +0.000 C 
ATOM     28  O   UNL     1       2.401  12.299  18.885  0.00  0.00    +0.000 OA
BRANCH  25  29
ATOM     29  C   UNL     1       0.926  14.224  20.074  0.00  0.00    +0.000 C 
BRANCH  29  30
ATOM     30  C   UNL     1       1.205  14.371  21.569  0.00  0.00    +0.000 C 
BRANCH  30  32
ATOM     31  C   UNL     1       3.707  14.309  21.455  0.00  0.00    +0.000 C 
ATOM     32  C   UNL     1       2.495  15.128  21.877  0.00  0.00    +0.000 C 
ENDBRANCH  30  32
ENDBRANCH  29  30
ENDBRANCH  25  29
ENDBRANCH   1  27
TORSDOF 5
ENDMDL
MODEL 5
REMARK VINA RESULT:      -6.4      6.438      9.469
REMARK  Name = 
REMARK  9 active torsions:
REMARK  status: ('A' for Active; 'I' for Inactive)
REMARK    1  A    between atoms: C_1  and  C_2
REMARK    2  A    between atoms: C_2  and  C_3
REMARK    3  A    between atoms: C_3  and  C_4
REMARK    4  A    between atoms: C_4  and  N_5
REMARK    5  A    between atoms: N_5  and  C_6
REMARK    6  A    between atoms: C_7  and  C_9
REMARK    7  A    between atoms: C_16  and  C_17
REMARK    8  A    between atoms: C_19  and  C_20
REMARK    9  A    between atoms: N_21  and  C_22
REMARK                            x       y       z     vdW  Elec       q    Type
REMARK                         _______ _______ _______ _____ _____    ______ ____
ROOT
ATOM      1  C   UNL     1       4.900  15.938  19.606  0.00  0.00    +0.000 C 
ATOM      2  C   UNL     1       4.298  16.859  20.677  0.00  0.00    +0.000 C 
ATOM      3  C   UNL     1       3.659  16.092  21.838  0.00  0.00    +0.000 C 
ATOM      4  N   UNL     1       2.695  15.149  21.283  0.00  0.00    +0.000 N 
ATOM      5  C   UNL     1       1.510  14.925  21.969  0.00  0.00    +0.000 A 
ATOM      6  N   UNL     1       1.219  15.636  23.110  0.00  0.00    +0.000 NA
ATOM      7  N   UNL     1      -0.011  15.546  23.886  0.00  0.00    +0.000 NA
ATOM      8  C   UNL     1      -1.061  14.749  23.553  0.00  0.00    +0.000 A 
ATOM      9  C   UNL     1      -2.246  14.768  24.454  0.00  0.00    +0.000 C 
ATOM     10  C   UNL     1      -0.814  14.021  22.379  0.00  0.00    +0.000 A 
ATOM     11  C   UNL     1      -1.659  13.117  21.756  0.00  0.00    +0.000 A 
ATOM     12  C   UNL     1      -2.969  12.550  22.179  0.00  0.00    +0.000 C 
ATOM     13  N   UNL     1      -0.994  12.741  20.596  0.00  0.00    +0.000 N 
ATOM     14  N   UNL     1       0.274  13.217  20.560  0.00  0.00    +0.000 NA
ATOM     15  C   UNL     1       0.408  14.071  21.595  0.00  0.00    +0.000 A 
ATOM     16  C   UNL     1       3.266  14.137  20.405  0.00  0.00    +0.000 C 
ATOM     17  C   UNL     1       3.863  14.865  19.194  0.00  0.00    +0.000 C 
ENDROOT
BRANCH  13  18
ATOM     18  C   UNL     1      -1.453  11.946  19.495  0.00  0.00    +0.000 A 
ATOM     19  C   UNL     1      -2.696  12.164  18.888  0.00  0.00    +0.000 A 
ATOM     20  C   UNL     1      -3.113  11.371  17.811  0.00  0.00    +0.000 A 
ATOM     21  C   UNL     1      -2.285  10.363  17.325  0.00  0.00    +0.000 A 
ATOM     22 CL   UNL     1      -2.801   9.402  15.997  0.00  0.00    +0.000 Cl
ATOM     23  C   UNL     1      -1.036  10.148  17.902  0.00  0.00    +0.000 A 
ATOM     24  C   UNL     1      -0.617  10.942  18.976  0.00  0.00    +0.000 A 
ENDBRANCH  13  18
BRANCH   1  27
ATOM     25  N   UNL     1       7.136  14.880  19.033  0.00  0.00    +0.000 N 
ATOM     26  C   UNL     1       6.969  15.105  17.604  0.00  0.00    +0.000 C 
ATOM     27  C   UNL     1       6.218  15.252  20.007  0.00  0.00    +0.000 C 
ATOM     28  O   UNL     1       6.431  14.987  21.195  0.00  0.00    +0.000 OA
BRANCH  25  29
ATOM     29  C   UNL     1       8.248  14.015  19.448  0.00  0.00    +0.000 C 
BRANCH  29  30
ATOM     30  C   UNL     1       8.731  13.018  18.397  0.00  0.00    +0.000 C 
BRANCH  30  32
ATOM     31  C   UNL     1      10.718  11.681  17.659  0.00  0.00    +0.000 C 
ATOM     32  C   UNL     1      10.246  13.024  18.201  0.00  0.00    +0.000 C 
ENDBRANCH  30  32
ENDBRANCH  29  30
ENDBRANCH  25  29
ENDBRANCH   1  27
TORSDOF 5
ENDMDL
MODEL 6
REMARK VINA RESULT:      -6.3      4.078      7.171
REMARK  Name = 
REMARK  9 active torsions:
REMARK  status: ('A' for Active; 'I' for Inactive)
REMARK    1  A    between atoms: C_1  and  C_2
REMARK    2  A    between atoms: C_2  and  C_3
REMARK    3  A    between atoms: C_3  and  C_4
REMARK    4  A    between atoms: C_4  and  N_5
REMARK    5  A    between atoms: N_5  and  C_6
REMARK    6  A    between atoms: C_7  and  C_9
REMARK    7  A    between atoms: C_16  and  C_17
REMARK    8  A    between atoms: C_19  and  C_20
REMARK    9  A    between atoms: N_21  and  C_22
REMARK                            x       y       z     vdW  Elec       q    Type
REMARK                         _______ _______ _______ _____ _____    ______ ____
ROOT
ATOM      1  C   UNL     1       3.392  15.978  18.133  0.00  0.00    +0.000 C 
ATOM      2  C   UNL     1       2.086  16.481  18.766  0.00  0.00    +0.000 C 
ATOM      3  C   UNL     1       1.830  15.896  20.157  0.00  0.00    +0.000 C 
ATOM      4  N   UNL     1       1.899  14.443  20.060  0.00  0.00    +0.000 N 
ATOM      5  C   UNL     1       1.022  13.681  20.817  0.00  0.00    +0.000 A 
ATOM      6  N   UNL     1       0.056  14.287  21.587  0.00  0.00    +0.000 NA
ATOM      7  N   UNL     1      -0.964  13.608  22.376  0.00  0.00    +0.000 NA
ATOM      8  C   UNL     1      -1.108  12.257  22.426  0.00  0.00    +0.000 A 
ATOM      9  C   UNL     1      -2.199  11.717  23.283  0.00  0.00    +0.000 C 
ATOM     10  C   UNL     1      -0.154  11.598  21.634  0.00  0.00    +0.000 A 
ATOM     11  C   UNL     1      -0.009  10.232  21.453  0.00  0.00    +0.000 A 
ATOM     12  C   UNL     1      -0.684   9.081  22.112  0.00  0.00    +0.000 C 
ATOM     13  N   UNL     1       1.011  10.098  20.519  0.00  0.00    +0.000 N 
ATOM     14  N   UNL     1       1.615  11.281  20.253  0.00  0.00    +0.000 NA
ATOM     15  C   UNL     1       0.888  12.244  20.854  0.00  0.00    +0.000 A 
ATOM     16  C   UNL     1       3.192  13.920  19.641  0.00  0.00    +0.000 C 
ATOM     17  C   UNL     1       3.456  14.434  18.221  0.00  0.00    +0.000 C 
ENDROOT
BRANCH  13  18
ATOM     18  C   UNL     1       1.484   8.926  19.845  0.00  0.00    +0.000 A 
ATOM     19  C   UNL     1       1.755   8.916  18.470  0.00  0.00    +0.000 A 
ATOM     20  C   UNL     1       2.221   7.754  17.842  0.00  0.00    +0.000 A 
ATOM     21  C   UNL     1       2.432   6.596  18.586  0.00  0.00    +0.000 A 
ATOM     22 CL   UNL     1       3.013   5.178  17.808  0.00  0.00    +0.000 Cl
ATOM     23  C   UNL     1       2.190   6.594  19.958  0.00  0.00    +0.000 A 
ATOM     24  C   UNL     1       1.727   7.756  20.587  0.00  0.00    +0.000 A 
ENDBRANCH  13  18
BRANCH   1  27
ATOM     25  N   UNL     1       5.907  15.985  18.485  0.00  0.00    +0.000 N 
ATOM     26  C   UNL     1       6.108  14.799  17.665  0.00  0.00    +0.000 C 
ATOM     27  C   UNL     1       4.676  16.581  18.730  0.00  0.00    +0.000 C 
ATOM     28  O   UNL     1       4.600  17.567  19.470  0.00  0.00    +0.000 OA
BRANCH  25  29
ATOM     29  C   UNL     1       7.052  16.454  19.275  0.00  0.00    +0.000 C 
BRANCH  29  30
ATOM     30  C   UNL     1       8.012  17.393  18.546  0.00  0.00    +0.000 C 
BRANCH  30  32
ATOM     31  C   UNL     1       9.594  15.488  18.924  0.00  0.00    +0.000 C 
ATOM     32  C   UNL     1       9.289  16.706  18.065  0.00  0.00    +0.000 C 
ENDBRANCH  30  32
ENDBRANCH  29  30
ENDBRANCH  25  29
ENDBRANCH   1  27
TORSDOF 5
ENDMDL
MODEL 7
REMARK VINA RESULT:      -6.3      7.298      9.636
REMARK  Name = 
REMARK  9 active torsions:
REMARK  status: ('A' for Active; 'I' for Inactive)
REMARK    1  A    between atoms: C_1  and  C_2
REMARK    2  A    between atoms: C_2  and  C_3
REMARK    3  A    between atoms: C_3  and  C_4
REMARK    4  A    between atoms: C_4  and  N_5
REMARK    5  A    between atoms: N_5  and  C_6
REMARK    6  A    between atoms: C_7  and  C_9
REMARK    7  A    between atoms: C_16  and  C_17
REMARK    8  A    between atoms: C_19  and  C_20
REMARK    9  A    between atoms: N_21  and  C_22
REMARK                            x       y       z     vdW  Elec       q    Type
REMARK                         _______ _______ _______ _____ _____    ______ ____
ROOT
ATOM      1  C   UNL     1      -0.720  13.153  20.128  0.00  0.00    +0.000 C 
ATOM      2  C   UNL     1      -0.494  14.585  19.622  0.00  0.00    +0.000 C 
ATOM      3  C   UNL     1       0.905  14.802  19.040  0.00  0.00    +0.000 C 
ATOM      4  N   UNL     1       1.883  14.384  20.039  0.00  0.00    +0.000 N 
ATOM      5  C   UNL     1       3.057  15.111  20.169  0.00  0.00    +0.000 A 
ATOM      6  N   UNL     1       3.260  16.248  19.421  0.00  0.00    +0.000 NA
ATOM      7  N   UNL     1       4.412  17.136  19.506  0.00  0.00    +0.000 NA
ATOM      8  C   UNL     1       5.442  16.961  20.377  0.00  0.00    +0.000 A 
ATOM      9  C   UNL     1       6.549  17.955  20.336  0.00  0.00    +0.000 C 
ATOM     10  C   UNL     1       5.263  15.821  21.176  0.00  0.00    +0.000 A 
ATOM     11  C   UNL     1       6.112  15.343  22.162  0.00  0.00    +0.000 A 
ATOM     12  C   UNL     1       7.476  15.775  22.573  0.00  0.00    +0.000 C 
ATOM     13  N   UNL     1       5.450  14.252  22.712  0.00  0.00    +0.000 N 
ATOM     14  N   UNL     1       4.338  13.926  22.008  0.00  0.00    +0.000 NA
ATOM     15  C   UNL     1       4.138  14.904  21.102  0.00  0.00    +0.000 A 
ATOM     16  C   UNL     1       1.818  12.976  20.404  0.00  0.00    +0.000 C 
ATOM     17  C   UNL     1       0.449  12.733  21.052  0.00  0.00    +0.000 C 
ENDROOT
BRANCH  13  18
ATOM     18  C   UNL     1       5.782  13.465  23.861  0.00  0.00    +0.000 A 
ATOM     19  C   UNL     1       6.365  12.196  23.751  0.00  0.00    +0.000 A 
ATOM     20  C   UNL     1       6.682  11.454  24.896  0.00  0.00    +0.000 A 
ATOM     21  C   UNL     1       6.428  11.979  26.160  0.00  0.00    +0.000 A 
ATOM     22 CL   UNL     1       6.827  11.064  27.559  0.00  0.00    +0.000 Cl
ATOM     23  C   UNL     1       5.868  13.248  26.289  0.00  0.00    +0.000 A 
ATOM     24  C   UNL     1       5.555  13.992  25.145  0.00  0.00    +0.000 A 
ENDBRANCH  13  18
BRANCH   1  27
ATOM     25  N   UNL     1      -2.185  11.673  18.676  0.00  0.00    +0.000 N 
ATOM     26  C   UNL     1      -3.418  12.168  19.271  0.00  0.00    +0.000 C 
ATOM     27  C   UNL     1      -0.910  12.097  19.025  0.00  0.00    +0.000 C 
ATOM     28  O   UNL     1       0.082  11.592  18.488  0.00  0.00    +0.000 OA
BRANCH  25  29
ATOM     29  C   UNL     1      -2.290  10.497  17.803  0.00  0.00    +0.000 C 
BRANCH  29  30
ATOM     30  C   UNL     1      -2.451  10.798  16.314  0.00  0.00    +0.000 C 
BRANCH  30  32
ATOM     31  C   UNL     1      -3.360  10.098  14.087  0.00  0.00    +0.000 C 
ATOM     32  C   UNL     1      -3.164   9.690  15.540  0.00  0.00    +0.000 C 
ENDBRANCH  30  32
ENDBRANCH  29  30
ENDBRANCH  25  29
ENDBRANCH   1  27
TORSDOF 5
ENDMDL
MODEL 8
REMARK VINA RESULT:      -6.3      1.212      1.352
REMARK  Name = 
REMARK  9 active torsions:
REMARK  status: ('A' for Active; 'I' for Inactive)
REMARK    1  A    between atoms: C_1  and  C_2
REMARK    2  A    between atoms: C_2  and  C_3
REMARK    3  A    between atoms: C_3  and  C_4
REMARK    4  A    between atoms: C_4  and  N_5
REMARK    5  A    between atoms: N_5  and  C_6
REMARK    6  A    between atoms: C_7  and  C_9
REMARK    7  A    between atoms: C_16  and  C_17
REMARK    8  A    between atoms: C_19  and  C_20
REMARK    9  A    between atoms: N_21  and  C_22
REMARK                            x       y       z     vdW  Elec       q    Type
REMARK                         _______ _______ _______ _____ _____    ______ ____
ROOT
ATOM      1  C   UNL     1       0.782  10.775  18.895  0.00  0.00    +0.000 C 
ATOM      2  C   UNL     1      -0.108   9.802  19.681  0.00  0.00    +0.000 C 
ATOM      3  C   UNL     1       0.688   8.849  20.576  0.00  0.00    +0.000 C 
ATOM      4  N   UNL     1       1.685   8.177  19.751  0.00  0.00    +0.000 N 
ATOM      5  C   UNL     1       1.971   6.843  20.003  0.00  0.00    +0.000 A 
ATOM      6  N   UNL     1       1.273   6.149  20.964  0.00  0.00    +0.000 NA
ATOM      7  N   UNL     1       1.427   4.736  21.283  0.00  0.00    +0.000 NA
ATOM      8  C   UNL     1       2.282   3.901  20.635  0.00  0.00    +0.000 A 
ATOM      9  C   UNL     1       2.325   2.483  21.084  0.00  0.00    +0.000 C 
ATOM     10  C   UNL     1       3.001   4.566  19.629  0.00  0.00    +0.000 A 
ATOM     11  C   UNL     1       3.952   4.027  18.778  0.00  0.00    +0.000 A 
ATOM     12  C   UNL     1       4.589   2.681  18.749  0.00  0.00    +0.000 C 
ATOM     13  N   UNL     1       4.296   5.061  17.917  0.00  0.00    +0.000 N 
ATOM     14  N   UNL     1       3.751   6.242  18.300  0.00  0.00    +0.000 NA
ATOM     15  C   UNL     1       2.887   5.977  19.300  0.00  0.00    +0.000 A 
ATOM     16  C   UNL     1       2.667   9.061  19.139  0.00  0.00    +0.000 C 
ATOM     17  C   UNL     1       1.912   9.992  18.183  0.00  0.00    +0.000 C 
ENDROOT
BRANCH  13  18
ATOM     18  C   UNL     1       5.119   5.041  16.745  0.00  0.00    +0.000 A 
ATOM     19  C   UNL     1       4.706   4.425  15.557  0.00  0.00    +0.000 A 
ATOM     20  C   UNL     1       5.533   4.426  14.426  0.00  0.00    +0.000 A 
ATOM     21  C   UNL     1       6.775   5.054  14.472  0.00  0.00    +0.000 A 
ATOM     22 CL   UNL     1       7.779   5.059  13.077  0.00  0.00    +0.000 Cl
ATOM     23  C   UNL     1       7.192   5.691  15.638  0.00  0.00    +0.000 A 
ATOM     24  C   UNL     1       6.364   5.693  16.767  0.00  0.00    +0.000 A 
ENDBRANCH  13  18
BRANCH   1  27
ATOM     25  N   UNL     1       2.106  12.931  19.109  0.00  0.00    +0.000 N 
ATOM     26  C   UNL     1       2.325  13.036  17.673  0.00  0.00    +0.000 C 
ATOM     27  C   UNL     1       1.393  11.914  19.730  0.00  0.00    +0.000 C 
ATOM     28  O   UNL     1       1.290  11.890  20.961  0.00  0.00    +0.000 OA
BRANCH  25  29
ATOM     29  C   UNL     1       2.868  13.844  19.970  0.00  0.00    +0.000 C 
BRANCH  29  30
ATOM     30  C   UNL     1       3.471  15.059  19.266  0.00  0.00    +0.000 C 
BRANCH  30  32
ATOM     31  C   UNL     1       2.420  16.864  17.883  0.00  0.00    +0.000 C 
ATOM     32  C   UNL     1       2.564  16.288  19.285  0.00  0.00    +0.000 C 
ENDBRANCH  30  32
ENDBRANCH  29  30
ENDBRANCH  25  29
ENDBRANCH   1  27
TORSDOF 5
ENDMDL
MODEL 9
REMARK VINA RESULT:      -6.2      1.404      1.983
REMARK  Name = 
REMARK  9 active torsions:
REMARK  status: ('A' for Active; 'I' for Inactive)
REMARK    1  A    between atoms: C_1  and  C_2
REMARK    2  A    between atoms: C_2  and  C_3
REMARK    3  A    between atoms: C_3  and  C_4
REMARK    4  A    between atoms: C_4  and  N_5
REMARK    5  A    between atoms: N_5  and  C_6
REMARK    6  A    between atoms: C_7  and  C_9
REMARK    7  A    between atoms: C_16  and  C_17
REMARK    8  A    between atoms: C_19  and  C_20
REMARK    9  A    between atoms: N_21  and  C_22
REMARK                            x       y       z     vdW  Elec       q    Type
REMARK                         _______ _______ _______ _____ _____    ______ ____
ROOT
ATOM      1  C   UNL     1       0.790  10.809  18.882  0.00  0.00    +0.000 C 
ATOM      2  C   UNL     1      -0.098   9.829  19.663  0.00  0.00    +0.000 C 
ATOM      3  C   UNL     1       0.700   8.875  20.555  0.00  0.00    +0.000 C 
ATOM      4  N   UNL     1       1.701   8.210  19.729  0.00  0.00    +0.000 N 
ATOM      5  C   UNL     1       1.990   6.876  19.977  0.00  0.00    +0.000 A 
ATOM      6  N   UNL     1       1.293   6.176  20.934  0.00  0.00    +0.000 NA
ATOM      7  N   UNL     1       1.452   4.762  21.248  0.00  0.00    +0.000 NA
ATOM      8  C   UNL     1       2.310   3.933  20.597  0.00  0.00    +0.000 A 
ATOM      9  C   UNL     1       2.358   2.513  21.041  0.00  0.00    +0.000 C 
ATOM     10  C   UNL     1       3.028   4.604  19.595  0.00  0.00    +0.000 A 
ATOM     11  C   UNL     1       3.982   4.071  18.743  0.00  0.00    +0.000 A 
ATOM     12  C   UNL     1       4.623   2.728  18.710  0.00  0.00    +0.000 C 
ATOM     13  N   UNL     1       4.324   5.110  17.887  0.00  0.00    +0.000 N 
ATOM     14  N   UNL     1       3.774   6.287  18.273  0.00  0.00    +0.000 NA
ATOM     15  C   UNL     1       2.910   6.015  19.271  0.00  0.00    +0.000 A 
ATOM     16  C   UNL     1       2.680   9.099  19.122  0.00  0.00    +0.000 C 
ATOM     17  C   UNL     1       1.924  10.032  18.168  0.00  0.00    +0.000 C 
ENDROOT
BRANCH  13  18
ATOM     18  C   UNL     1       5.148   5.097  16.715  0.00  0.00    +0.000 A 
ATOM     19  C   UNL     1       6.392   5.740  16.673  0.00  0.00    +0.000 A 
ATOM     20  C   UNL     1       7.175   5.705  15.513  0.00  0.00    +0.000 A 
ATOM     21  C   UNL     1       6.727   5.016  14.389  0.00  0.00    +0.000 A 
ATOM     22 CL   UNL     1       7.699   4.970  12.972  0.00  0.00    +0.000 Cl
ATOM     23  C   UNL     1       5.502   4.352  14.421  0.00  0.00    +0.000 A 
ATOM     24  C   UNL     1       4.721   4.384  15.581  0.00  0.00    +0.000 A 
ENDBRANCH  13  18
BRANCH   1  27
ATOM     25  N   UNL     1       2.031  13.013  19.100  0.00  0.00    +0.000 N 
ATOM     26  C   UNL     1       2.168  13.173  17.659  0.00  0.00    +0.000 C 
ATOM     27  C   UNL     1       1.396  11.946  19.723  0.00  0.00    +0.000 C 
ATOM     28  O   UNL     1       1.360  11.878  20.956  0.00  0.00    +0.000 OA
BRANCH  25  29
ATOM     29  C   UNL     1       2.799  13.931  19.950  0.00  0.00    +0.000 C 
BRANCH  29  30
ATOM     30  C   UNL     1       3.125  15.286  19.324  0.00  0.00    +0.000 C 
BRANCH  30  32
ATOM     31  C   UNL     1       5.308  14.929  18.148  0.00  0.00    +0.000 C 
ATOM     32  C   UNL     1       4.618  15.613  19.320  0.00  0.00    +0.000 C 
ENDBRANCH  30  32
ENDBRANCH  29  30
ENDBRANCH  25  29
ENDBRANCH   1  27
TORSDOF 5
ENDMDL
