MODEL 1
REMARK VINA RESULT:      -7.6      0.000      0.000
REMARK  Name = 
REMARK  6 active torsions:
REMARK  status: ('A' for Active; 'I' for Inactive)
REMARK    1  A    between atoms: C_1  and  C_2
REMARK    2  A    between atoms: C_2  and  C_3
REMARK    3  A    between atoms: C_6  and  C_7
REMARK    4  A    between atoms: N_8  and  N_9
REMARK    5  A    between atoms: C_10  and  S_11
REMARK    6  A    between atoms: C_14  and  C_15
REMARK                            x       y       z     vdW  Elec       q    Type
REMARK                         _______ _______ _______ _____ _____    ______ ____
ROOT
ATOM      1  N   UNL     1       3.657   5.000  18.913  0.00  0.00    +0.000 N 
ATOM      2  C   UNL     1       3.168   3.796  19.395  0.00  0.00    +0.000 A 
ATOM      3  N   UNL     1       4.140   2.965  19.670  0.00  0.00    +0.000 NA
ATOM      4  N   UNL     1       5.311   3.584  19.331  0.00  0.00    +0.000 NA
ATOM      5  C   UNL     1       5.040   4.780  18.841  0.00  0.00    +0.000 A 
ENDROOT
BRANCH   5   6
ATOM      6  C   UNL     1       6.083   5.703  18.263  0.00  0.00    +0.000 C 
ATOM      7  C   UNL     1       7.287   4.925  17.696  0.00  0.00    +0.000 C 
ATOM      8  C   UNL     1       7.024   4.276  16.343  0.00  0.00    +0.000 C 
ATOM      9  C   UNL     1       6.492   5.272  15.324  0.00  0.00    +0.000 C 
ATOM     10  C   UNL     1       5.274   6.029  15.838  0.00  0.00    +0.000 C 
ATOM     11  C   UNL     1       5.519   6.667  17.204  0.00  0.00    +0.000 C 
ENDBRANCH   5   6
BRANCH   1  13
ATOM     12  C   UNL     1       2.766   7.043  19.474  0.00  0.00    +0.000 C 
ATOM     13  N   UNL     1       2.828   6.075  18.629  0.00  0.00    +0.000 NA
BRANCH  12  17
ATOM     14  C   UNL     1      -0.102  10.153  19.150  0.00  0.00    +0.000 A 
ATOM     15  C   UNL     1       0.627   9.768  18.015  0.00  0.00    +0.000 A 
ATOM     16  C   UNL     1       1.613   8.785  18.108  0.00  0.00    +0.000 A 
ATOM     17  C   UNL     1       1.858   8.192  19.342  0.00  0.00    +0.000 A 
ATOM     18  C   UNL     1       1.168   8.598  20.490  0.00  0.00    +0.000 A 
ATOM     19  C   UNL     1       0.190   9.580  20.393  0.00  0.00    +0.000 A 
BRANCH  14  21
ATOM     20  C   UNL     1      -2.241  10.595  17.968  0.00  0.00    +0.000 C 
ATOM     21  C   UNL     1      -1.265  11.104  19.021  0.00  0.00    +0.000 C 
ENDBRANCH  14  21
ENDBRANCH  12  17
ENDBRANCH   1  13
BRANCH   2  22
ATOM     22  S   UNL     1       1.482   3.490  19.647  0.00  0.00    +0.000 S 
ATOM     23  H   UNL     1       1.426   3.928  20.914  0.00  0.00    +0.000 HD
ENDBRANCH   2  22
TORSDOF 5
ENDMDL
MODEL 2
REMARK VINA RESULT:      -7.5      1.014      1.694
REMARK  Name = 
REMARK  6 active torsions:
REMARK  status: ('A' for Active; 'I' for Inactive)
REMARK    1  A    between atoms: C_1  and  C_2
REMARK    2  A    between atoms: C_2  and  C_3
REMARK    3  A    between atoms: C_6  and  C_7
REMARK    4  A    between atoms: N_8  and  N_9
REMARK    5  A    between atoms: C_10  and  S_11
REMARK    6  A    between atoms: C_14  and  C_15
REMARK                            x       y       z     vdW  Elec       q    Type
REMARK                         _______ _______ _______ _____ _____    ______ ____
ROOT
ATOM      1  N   UNL     1       2.978   4.569  18.019  0.00  0.00    +0.000 N 
ATOM      2  C   UNL     1       2.577   3.503  18.808  0.00  0.00    +0.000 A 
ATOM      3  N   UNL     1       3.376   2.478  18.665  0.00  0.00    +0.000 NA
ATOM      4  N   UNL     1       4.314   2.823  17.732  0.00  0.00    +0.000 NA
ATOM      5  C   UNL     1       4.068   4.049  17.307  0.00  0.00    +0.000 A 
ENDROOT
BRANCH   5   6
ATOM      6  C   UNL     1       4.837   4.719  16.196  0.00  0.00    +0.000 C 
ATOM      7  C   UNL     1       4.919   6.245  16.394  0.00  0.00    +0.000 C 
ATOM      8  C   UNL     1       5.936   6.680  17.442  0.00  0.00    +0.000 C 
ATOM      9  C   UNL     1       7.314   6.091  17.183  0.00  0.00    +0.000 C 
ATOM     10  C   UNL     1       7.274   4.576  17.024  0.00  0.00    +0.000 C 
ATOM     11  C   UNL     1       6.243   4.127  15.990  0.00  0.00    +0.000 C 
ENDBRANCH   5   6
BRANCH   1  13
ATOM     12  C   UNL     1       2.678   6.638  18.976  0.00  0.00    +0.000 C 
ATOM     13  N   UNL     1       2.341   5.800  18.058  0.00  0.00    +0.000 NA
BRANCH  12  17
ATOM     14  C   UNL     1       0.490  10.214  19.630  0.00  0.00    +0.000 A 
ATOM     15  C   UNL     1       1.043   9.966  18.364  0.00  0.00    +0.000 A 
ATOM     16  C   UNL     1       1.811   8.824  18.139  0.00  0.00    +0.000 A 
ATOM     17  C   UNL     1       2.017   7.934  19.188  0.00  0.00    +0.000 A 
ATOM     18  C   UNL     1       1.508   8.191  20.466  0.00  0.00    +0.000 A 
ATOM     19  C   UNL     1       0.747   9.333  20.685  0.00  0.00    +0.000 A 
BRANCH  14  21
ATOM     20  C   UNL     1      -1.415  11.471  18.650  0.00  0.00    +0.000 C 
ATOM     21  C   UNL     1      -0.460  11.366  19.833  0.00  0.00    +0.000 C 
ENDBRANCH  14  21
ENDBRANCH  12  17
ENDBRANCH   1  13
BRANCH   2  22
ATOM     22  S   UNL     1       1.220   3.578  19.882  0.00  0.00    +0.000 S 
ATOM     23  H   UNL     1       0.716   4.735  19.424  0.00  0.00    +0.000 HD
ENDBRANCH   2  22
TORSDOF 5
ENDMDL
MODEL 3
REMARK VINA RESULT:      -7.5      0.496      1.147
REMARK  Name = 
REMARK  6 active torsions:
REMARK  status: ('A' for Active; 'I' for Inactive)
REMARK    1  A    between atoms: C_1  and  C_2
REMARK    2  A    between atoms: C_2  and  C_3
REMARK    3  A    between atoms: C_6  and  C_7
REMARK    4  A    between atoms: N_8  and  N_9
REMARK    5  A    between atoms: C_10  and  S_11
REMARK    6  A    between atoms: C_14  and  C_15
REMARK                            x       y       z     vdW  Elec       q    Type
REMARK                         _______ _______ _______ _____ _____    ______ ____
ROOT
ATOM      1  N   UNL     1       3.539   5.036  19.012  0.00  0.00    +0.000 N 
ATOM      2  C   UNL     1       3.156   3.789  19.479  0.00  0.00    +0.000 A 
ATOM      3  N   UNL     1       4.192   3.013  19.667  0.00  0.00    +0.000 NA
ATOM      4  N   UNL     1       5.300   3.715  19.283  0.00  0.00    +0.000 NA
ATOM      5  C   UNL     1       4.927   4.906  18.852  0.00  0.00    +0.000 A 
ENDROOT
BRANCH   5   6
ATOM      6  C   UNL     1       5.874   5.912  18.248  0.00  0.00    +0.000 C 
ATOM      7  C   UNL     1       7.258   5.297  17.962  0.00  0.00    +0.000 C 
ATOM      8  C   UNL     1       7.301   4.418  16.718  0.00  0.00    +0.000 C 
ATOM      9  C   UNL     1       6.762   5.136  15.491  0.00  0.00    +0.000 C 
ATOM     10  C   UNL     1       5.375   5.721  15.726  0.00  0.00    +0.000 C 
ATOM     11  C   UNL     1       5.315   6.587  16.983  0.00  0.00    +0.000 C 
ENDBRANCH   5   6
BRANCH   1  13
ATOM     12  C   UNL     1       2.655   7.069  19.618  0.00  0.00    +0.000 C 
ATOM     13  N   UNL     1       2.630   6.064  18.815  0.00  0.00    +0.000 NA
BRANCH  12  17
ATOM     14  C   UNL     1       0.118  10.467  19.467  0.00  0.00    +0.000 A 
ATOM     15  C   UNL     1       0.235   9.747  20.666  0.00  0.00    +0.000 A 
ATOM     16  C   UNL     1       1.020   8.596  20.726  0.00  0.00    +0.000 A 
ATOM     17  C   UNL     1       1.688   8.176  19.580  0.00  0.00    +0.000 A 
ATOM     18  C   UNL     1       1.546   8.860  18.368  0.00  0.00    +0.000 A 
ATOM     19  C   UNL     1       0.759  10.005  18.313  0.00  0.00    +0.000 A 
BRANCH  14  21
ATOM     20  C   UNL     1      -1.414  11.916  18.156  0.00  0.00    +0.000 C 
ATOM     21  C   UNL     1      -0.607  11.789  19.441  0.00  0.00    +0.000 C 
ENDBRANCH  14  21
ENDBRANCH  12  17
ENDBRANCH   1  13
BRANCH   2  22
ATOM     22  S   UNL     1       1.510   3.369  19.817  0.00  0.00    +0.000 S 
ATOM     23  H   UNL     1       1.295   2.651  18.704  0.00  0.00    +0.000 HD
ENDBRANCH   2  22
TORSDOF 5
ENDMDL
MODEL 4
REMARK VINA RESULT:      -7.3      1.159      1.464
REMARK  Name = 
REMARK  6 active torsions:
REMARK  status: ('A' for Active; 'I' for Inactive)
REMARK    1  A    between atoms: C_1  and  C_2
REMARK    2  A    between atoms: C_2  and  C_3
REMARK    3  A    between atoms: C_6  and  C_7
REMARK    4  A    between atoms: N_8  and  N_9
REMARK    5  A    between atoms: C_10  and  S_11
REMARK    6  A    between atoms: C_14  and  C_15
REMARK                            x       y       z     vdW  Elec       q    Type
REMARK                         _______ _______ _______ _____ _____    ______ ____
ROOT
ATOM      1  N   UNL     1       3.292   4.745  19.585  0.00  0.00    +0.000 N 
ATOM      2  C   UNL     1       2.982   3.419  19.843  0.00  0.00    +0.000 A 
ATOM      3  N   UNL     1       3.903   2.615  19.377  0.00  0.00    +0.000 NA
ATOM      4  N   UNL     1       4.837   3.391  18.750  0.00  0.00    +0.000 NA
ATOM      5  C   UNL     1       4.469   4.657  18.828  0.00  0.00    +0.000 A 
ENDROOT
BRANCH   5   6
ATOM      6  C   UNL     1       5.207   5.786  18.153  0.00  0.00    +0.000 C 
ATOM      7  C   UNL     1       6.735   5.630  18.279  0.00  0.00    +0.000 C 
ATOM      8  C   UNL     1       7.333   4.593  17.335  0.00  0.00    +0.000 C 
ATOM      9  C   UNL     1       6.929   4.836  15.889  0.00  0.00    +0.000 C 
ATOM     10  C   UNL     1       5.419   4.954  15.722  0.00  0.00    +0.000 C 
ATOM     11  C   UNL     1       4.806   5.975  16.679  0.00  0.00    +0.000 C 
ENDBRANCH   5   6
BRANCH   1  13
ATOM     12  C   UNL     1       2.477   6.883  19.371  0.00  0.00    +0.000 C 
ATOM     13  N   UNL     1       2.513   5.791  20.052  0.00  0.00    +0.000 NA
BRANCH  12  17
ATOM     14  C   UNL     1       0.168  10.205  20.651  0.00  0.00    +0.000 A 
ATOM     15  C   UNL     1       0.647  10.167  19.333  0.00  0.00    +0.000 A 
ATOM     16  C   UNL     1       1.453   9.111  18.904  0.00  0.00    +0.000 A 
ATOM     17  C   UNL     1       1.770   8.098  19.803  0.00  0.00    +0.000 A 
ATOM     18  C   UNL     1       1.334   8.147  21.132  0.00  0.00    +0.000 A 
ATOM     19  C   UNL     1       0.535   9.203  21.554  0.00  0.00    +0.000 A 
BRANCH  14  21
ATOM     20  C   UNL     1      -1.055  11.195  22.573  0.00  0.00    +0.000 C 
ATOM     21  C   UNL     1      -0.821  11.263  21.069  0.00  0.00    +0.000 C 
ENDBRANCH  14  21
ENDBRANCH  12  17
ENDBRANCH   1  13
BRANCH   2  22
ATOM     22  S   UNL     1       1.574   2.930  20.726  0.00  0.00    +0.000 S 
ATOM     23  H   UNL     1       2.213   2.208  21.661  0.00  0.00    +0.000 HD
ENDBRANCH   2  22
TORSDOF 5
ENDMDL
MODEL 5
REMARK VINA RESULT:      -7.3      1.192      2.106
REMARK  Name = 
REMARK  6 active torsions:
REMARK  status: ('A' for Active; 'I' for Inactive)
REMARK    1  A    between atoms: C_1  and  C_2
REMARK    2  A    between atoms: C_2  and  C_3
REMARK    3  A    between atoms: C_6  and  C_7
REMARK    4  A    between atoms: N_8  and  N_9
REMARK    5  A    between atoms: C_10  and  S_11
REMARK    6  A    between atoms: C_14  and  C_15
REMARK                            x       y       z     vdW  Elec       q    Type
REMARK                         _______ _______ _______ _____ _____    ______ ____
ROOT
ATOM      1  N   UNL     1       3.148   4.522  18.890  0.00  0.00    +0.000 N 
ATOM      2  C   UNL     1       3.107   3.553  19.879  0.00  0.00    +0.000 A 
ATOM      3  N   UNL     1       4.051   2.663  19.713  0.00  0.00    +0.000 NA
ATOM      4  N   UNL     1       4.724   2.995  18.570  0.00  0.00    +0.000 NA
ATOM      5  C   UNL     1       4.174   4.075  18.045  0.00  0.00    +0.000 A 
ENDROOT
BRANCH   5   6
ATOM      6  C   UNL     1       4.590   4.665  16.721  0.00  0.00    +0.000 C 
ATOM      7  C   UNL     1       4.687   6.202  16.784  0.00  0.00    +0.000 C 
ATOM      8  C   UNL     1       5.944   6.716  17.476  0.00  0.00    +0.000 C 
ATOM      9  C   UNL     1       7.209   6.115  16.886  0.00  0.00    +0.000 C 
ATOM     10  C   UNL     1       7.163   4.592  16.848  0.00  0.00    +0.000 C 
ATOM     11  C   UNL     1       5.898   4.066  16.174  0.00  0.00    +0.000 C 
ENDBRANCH   5   6
BRANCH   1  13
ATOM     12  C   UNL     1       2.705   6.704  19.460  0.00  0.00    +0.000 C 
ATOM     13  N   UNL     1       2.302   5.621  18.894  0.00  0.00    +0.000 NA
BRANCH  12  17
ATOM     14  C   UNL     1       0.581  10.351  19.892  0.00  0.00    +0.000 A 
ATOM     15  C   UNL     1       0.654   9.464  20.977  0.00  0.00    +0.000 A 
ATOM     16  C   UNL     1       1.300   8.235  20.843  0.00  0.00    +0.000 A 
ATOM     17  C   UNL     1       1.874   7.906  19.619  0.00  0.00    +0.000 A 
ATOM     18  C   UNL     1       1.771   8.763  18.517  0.00  0.00    +0.000 A 
ATOM     19  C   UNL     1       1.122   9.985  18.656  0.00  0.00    +0.000 A 
BRANCH  14  21
ATOM     20  C   UNL     1      -0.180  12.025  21.563  0.00  0.00    +0.000 C 
ATOM     21  C   UNL     1       0.015  11.737  20.080  0.00  0.00    +0.000 C 
ENDBRANCH  14  21
ENDBRANCH  12  17
ENDBRANCH   1  13
BRANCH   2  22
ATOM     22  S   UNL     1       1.973   3.583  21.189  0.00  0.00    +0.000 S 
ATOM     23  H   UNL     1       0.918   3.121  20.499  0.00  0.00    +0.000 HD
ENDBRANCH   2  22
TORSDOF 5
ENDMDL
MODEL 6
REMARK VINA RESULT:      -7.1      1.390      1.940
REMARK  Name = 
REMARK  6 active torsions:
REMARK  status: ('A' for Active; 'I' for Inactive)
REMARK    1  A    between atoms: C_1  and  C_2
REMARK    2  A    between atoms: C_2  and  C_3
REMARK    3  A    between atoms: C_6  and  C_7
REMARK    4  A    between atoms: N_8  and  N_9
REMARK    5  A    between atoms: C_10  and  S_11
REMARK    6  A    between atoms: C_14  and  C_15
REMARK                            x       y       z     vdW  Elec       q    Type
REMARK                         _______ _______ _______ _____ _____    ______ ____
ROOT
ATOM      1  N   UNL     1       2.754   4.764  18.221  0.00  0.00    +0.000 N 
ATOM      2  C   UNL     1       2.391   3.506  18.674  0.00  0.00    +0.000 A 
ATOM      3  N   UNL     1       3.261   2.600  18.309  0.00  0.00    +0.000 NA
ATOM      4  N   UNL     1       4.212   3.231  17.558  0.00  0.00    +0.000 NA
ATOM      5  C   UNL     1       3.905   4.512  17.461  0.00  0.00    +0.000 A 
ENDROOT
BRANCH   5   6
ATOM      6  C   UNL     1       4.675   5.495  16.615  0.00  0.00    +0.000 C 
ATOM      7  C   UNL     1       5.778   6.206  17.423  0.00  0.00    +0.000 C 
ATOM      8  C   UNL     1       7.017   5.352  17.666  0.00  0.00    +0.000 C 
ATOM      9  C   UNL     1       7.576   4.774  16.376  0.00  0.00    +0.000 C 
ATOM     10  C   UNL     1       6.518   4.027  15.572  0.00  0.00    +0.000 C 
ATOM     11  C   UNL     1       5.264   4.866  15.340  0.00  0.00    +0.000 C 
ENDBRANCH   5   6
BRANCH   1  13
ATOM     12  C   UNL     1       2.550   6.732  19.393  0.00  0.00    +0.000 C 
ATOM     13  N   UNL     1       2.037   5.905  18.550  0.00  0.00    +0.000 NA
BRANCH  12  17
ATOM     14  C   UNL     1       0.279   9.991  20.883  0.00  0.00    +0.000 A 
ATOM     15  C   UNL     1       0.729  10.016  19.554  0.00  0.00    +0.000 A 
ATOM     16  C   UNL     1       1.522   8.981  19.057  0.00  0.00    +0.000 A 
ATOM     17  C   UNL     1       1.856   7.925  19.898  0.00  0.00    +0.000 A 
ATOM     18  C   UNL     1       1.450   7.910  21.238  0.00  0.00    +0.000 A 
ATOM     19  C   UNL     1       0.663   8.945  21.728  0.00  0.00    +0.000 A 
BRANCH  14  21
ATOM     20  C   UNL     1      -0.957  10.840  22.864  0.00  0.00    +0.000 C 
ATOM     21  C   UNL     1      -0.698  11.029  21.374  0.00  0.00    +0.000 C 
ENDBRANCH  14  21
ENDBRANCH  12  17
ENDBRANCH   1  13
BRANCH   2  22
ATOM     22  S   UNL     1       0.987   3.218  19.648  0.00  0.00    +0.000 S 
ATOM     23  H   UNL     1       0.768   1.957  19.246  0.00  0.00    +0.000 HD
ENDBRANCH   2  22
TORSDOF 5
ENDMDL
MODEL 7
REMARK VINA RESULT:      -7.1      2.035      3.741
REMARK  Name = 
REMARK  6 active torsions:
REMARK  status: ('A' for Active; 'I' for Inactive)
REMARK    1  A    between atoms: C_1  and  C_2
REMARK    2  A    between atoms: C_2  and  C_3
REMARK    3  A    between atoms: C_6  and  C_7
REMARK    4  A    between atoms: N_8  and  N_9
REMARK    5  A    between atoms: C_10  and  S_11
REMARK    6  A    between atoms: C_14  and  C_15
REMARK                            x       y       z     vdW  Elec       q    Type
REMARK                         _______ _______ _______ _____ _____    ______ ____
ROOT
ATOM      1  N   UNL     1       3.148   5.137  17.670  0.00  0.00    +0.000 N 
ATOM      2  C   UNL     1       4.408   5.151  17.093  0.00  0.00    +0.000 A 
ATOM      3  N   UNL     1       4.897   3.942  16.987  0.00  0.00    +0.000 NA
ATOM      4  N   UNL     1       3.985   3.087  17.540  0.00  0.00    +0.000 NA
ATOM      5  C   UNL     1       2.957   3.784  17.988  0.00  0.00    +0.000 A 
ENDROOT
BRANCH   5   6
ATOM      6  C   UNL     1       1.808   3.180  18.755  0.00  0.00    +0.000 C 
ATOM      7  C   UNL     1       2.247   1.947  19.569  0.00  0.00    +0.000 C 
ATOM      8  C   UNL     1       3.003   2.285  20.848  0.00  0.00    +0.000 C 
ATOM      9  C   UNL     1       2.240   3.269  21.721  0.00  0.00    +0.000 C 
ATOM     10  C   UNL     1       1.827   4.521  20.957  0.00  0.00    +0.000 C 
ATOM     11  C   UNL     1       1.086   4.194  19.662  0.00  0.00    +0.000 C 
ENDBRANCH   5   6
BRANCH   1  13
ATOM     12  C   UNL     1       2.663   7.091  18.778  0.00  0.00    +0.000 C 
ATOM     13  N   UNL     1       2.386   6.286  17.813  0.00  0.00    +0.000 NA
BRANCH  12  17
ATOM     14  C   UNL     1       0.133  10.356  19.748  0.00  0.00    +0.000 A 
ATOM     15  C   UNL     1       0.641  10.242  18.445  0.00  0.00    +0.000 A 
ATOM     16  C   UNL     1       1.518   9.208  18.116  0.00  0.00    +0.000 A 
ATOM     17  C   UNL     1       1.876   8.291  19.099  0.00  0.00    +0.000 A 
ATOM     18  C   UNL     1       1.410   8.419  20.413  0.00  0.00    +0.000 A 
ATOM     19  C   UNL     1       0.541   9.454  20.735  0.00  0.00    +0.000 A 
BRANCH  14  21
ATOM     20  C   UNL     1      -1.816  11.605  18.848  0.00  0.00    +0.000 C 
ATOM     21  C   UNL     1      -0.926  11.382  20.064  0.00  0.00    +0.000 C 
ENDBRANCH  14  21
ENDBRANCH  12  17
ENDBRANCH   1  13
BRANCH   2  22
ATOM     22  S   UNL     1       5.179   6.600  16.537  0.00  0.00    +0.000 S 
ATOM     23  H   UNL     1       4.284   6.904  15.585  0.00  0.00    +0.000 HD
ENDBRANCH   2  22
TORSDOF 5
ENDMDL
MODEL 8
REMARK VINA RESULT:      -7.0      2.810      6.737
REMARK  Name = 
REMARK  6 active torsions:
REMARK  status: ('A' for Active; 'I' for Inactive)
REMARK    1  A    between atoms: C_1  and  C_2
REMARK    2  A    between atoms: C_2  and  C_3
REMARK    3  A    between atoms: C_6  and  C_7
REMARK    4  A    between atoms: N_8  and  N_9
REMARK    5  A    between atoms: C_10  and  S_11
REMARK    6  A    between atoms: C_14  and  C_15
REMARK                            x       y       z     vdW  Elec       q    Type
REMARK                         _______ _______ _______ _____ _____    ______ ____
ROOT
ATOM      1  N   UNL     1       2.306   5.891  19.184  0.00  0.00    +0.000 N 
ATOM      2  C   UNL     1       2.146   7.264  19.289  0.00  0.00    +0.000 A 
ATOM      3  N   UNL     1       1.629   7.595  20.444  0.00  0.00    +0.000 NA
ATOM      4  N   UNL     1       1.387   6.436  21.127  0.00  0.00    +0.000 NA
ATOM      5  C   UNL     1       1.746   5.411  20.376  0.00  0.00    +0.000 A 
ENDROOT
BRANCH   5   6
ATOM      6  C   UNL     1       1.523   3.971  20.765  0.00  0.00    +0.000 C 
ATOM      7  C   UNL     1       0.739   3.200  19.684  0.00  0.00    +0.000 C 
ATOM      8  C   UNL     1       1.576   2.806  18.473  0.00  0.00    +0.000 C 
ATOM      9  C   UNL     1       2.838   2.056  18.868  0.00  0.00    +0.000 C 
ATOM     10  C   UNL     1       3.659   2.812  19.906  0.00  0.00    +0.000 C 
ATOM     11  C   UNL     1       2.825   3.229  21.116  0.00  0.00    +0.000 C 
ENDBRANCH   5   6
BRANCH   1  13
ATOM     12  C   UNL     1       4.157   5.543  17.866  0.00  0.00    +0.000 C 
ATOM     13  N   UNL     1       2.913   5.299  18.087  0.00  0.00    +0.000 NA
BRANCH  12  17
ATOM     14  C   UNL     1       6.021   4.224  14.290  0.00  0.00    +0.000 A 
ATOM     15  C   UNL     1       5.689   3.286  15.279  0.00  0.00    +0.000 A 
ATOM     16  C   UNL     1       5.124   3.701  16.486  0.00  0.00    +0.000 A 
ATOM     17  C   UNL     1       4.894   5.058  16.689  0.00  0.00    +0.000 A 
ATOM     18  C   UNL     1       5.260   6.007  15.728  0.00  0.00    +0.000 A 
ATOM     19  C   UNL     1       5.826   5.588  14.530  0.00  0.00    +0.000 A 
BRANCH  14  21
ATOM     20  C   UNL     1       5.303   3.288  12.103  0.00  0.00    +0.000 C 
ATOM     21  C   UNL     1       6.490   3.763  12.933  0.00  0.00    +0.000 C 
ENDBRANCH  14  21
ENDBRANCH  12  17
ENDBRANCH   1  13
BRANCH   2  22
ATOM     22  S   UNL     1       2.636   8.372  18.051  0.00  0.00    +0.000 S 
ATOM     23  H   UNL     1       1.765   9.347  18.354  0.00  0.00    +0.000 HD
ENDBRANCH   2  22
TORSDOF 5
ENDMDL
MODEL 9
REMARK VINA RESULT:      -7.0      2.362      4.062
REMARK  Name = 
REMARK  6 active torsions:
REMARK  status: ('A' for Active; 'I' for Inactive)
REMARK    1  A    between atoms: C_1  and  C_2
REMARK    2  A    between atoms: C_2  and  C_3
REMARK    3  A    between atoms: C_6  and  C_7
REMARK    4  A    between atoms: N_8  and  N_9
REMARK    5  A    between atoms: C_10  and  S_11
REMARK    6  A    between atoms: C_14  and  C_15
REMARK                            x       y       z     vdW  Elec       q    Type
REMARK                         _______ _______ _______ _____ _____    ______ ____
ROOT
ATOM      1  N   UNL     1       3.272   5.739  18.044  0.00  0.00    +0.000 N 
ATOM      2  C   UNL     1       4.393   5.487  17.269  0.00  0.00    +0.000 A 
ATOM      3  N   UNL     1       4.348   4.291  16.742  0.00  0.00    +0.000 NA
ATOM      4  N   UNL     1       3.205   3.693  17.193  0.00  0.00    +0.000 NA
ATOM      5  C   UNL     1       2.573   4.525  18.001  0.00  0.00    +0.000 A 
ENDROOT
BRANCH   5   6
ATOM      6  C   UNL     1       1.328   4.160  18.770  0.00  0.00    +0.000 C 
ATOM      7  C   UNL     1       1.114   2.635  18.827  0.00  0.00    +0.000 C 
ATOM      8  C   UNL     1       2.015   1.920  19.827  0.00  0.00    +0.000 C 
ATOM      9  C   UNL     1       1.928   2.532  21.216  0.00  0.00    +0.000 C 
ATOM     10  C   UNL     1       2.176   4.036  21.201  0.00  0.00    +0.000 C 
ATOM     11  C   UNL     1       1.293   4.761  20.187  0.00  0.00    +0.000 C 
ENDBRANCH   5   6
BRANCH   1  13
ATOM     12  C   UNL     1       2.059   7.684  18.226  0.00  0.00    +0.000 C 
ATOM     13  N   UNL     1       3.047   6.970  18.641  0.00  0.00    +0.000 NA
BRANCH  12  17
ATOM     14  C   UNL     1       0.903  11.542  19.559  0.00  0.00    +0.000 A 
ATOM     15  C   UNL     1       1.638  11.416  18.370  0.00  0.00    +0.000 A 
ATOM     16  C   UNL     1       2.076  10.163  17.939  0.00  0.00    +0.000 A 
ATOM     17  C   UNL     1       1.769   9.043  18.705  0.00  0.00    +0.000 A 
ATOM     18  C   UNL     1       1.074   9.160  19.915  0.00  0.00    +0.000 A 
ATOM     19  C   UNL     1       0.644  10.411  20.341  0.00  0.00    +0.000 A 
BRANCH  14  21
ATOM     20  C   UNL     1       0.850  13.972  19.045  0.00  0.00    +0.000 C 
ATOM     21  C   UNL     1       0.304  12.871  19.945  0.00  0.00    +0.000 C 
ENDBRANCH  14  21
ENDBRANCH  12  17
ENDBRANCH   1  13
BRANCH   2  22
ATOM     22  S   UNL     1       5.646   6.655  17.007  0.00  0.00    +0.000 S 
ATOM     23  H   UNL     1       6.679   5.855  17.312  0.00  0.00    +0.000 HD
ENDBRANCH   2  22
TORSDOF 5
ENDMDL
