MODEL 1
REMARK VINA RESULT:      -7.4      0.000      0.000
REMARK  Name = 
REMARK  12 active torsions:
REMARK  status: ('A' for Active; 'I' for Inactive)
REMARK    1  A    between atoms: C_1  and  C_2
REMARK    2  A    between atoms: N_4  and  C_5
REMARK    3  A    between atoms: N_4  and  C_11
REMARK    4  A    between atoms: C_5  and  C_6
REMARK    5  A    between atoms: N_14  and  C_15
REMARK    6  A    between atoms: C_15  and  C_16
REMARK    7  A    between atoms: C_15  and  C_17
REMARK    8  A    between atoms: C_17  and  C_18
REMARK    9  A    between atoms: C_18  and  N_19
REMARK   10  A    between atoms: C_20  and  C_22
REMARK   11  A    between atoms: C_23  and  C_24
REMARK   12  A    between atoms: C_29  and  C_30
REMARK                            x       y       z     vdW  Elec       q    Type
REMARK                         _______ _______ _______ _____ _____    ______ ____
ROOT
ATOM      1  C   UNL     1       2.029   8.345  19.525  0.00  0.00    +0.000 C 
ATOM      2  C   UNL     1       1.370   8.203  20.911  0.00  0.00    +0.000 C 
ENDROOT
BRANCH   1   6
ATOM      3  C   UNL     1       4.852   5.948  18.275  0.00  0.00    +0.000 C 
ATOM      4  C   UNL     1       4.203   5.754  19.657  0.00  0.00    +0.000 C 
ATOM      5  C   UNL     1       2.687   5.941  19.719  0.00  0.00    +0.000 C 
ATOM      6  N   UNL     1       2.170   7.023  18.893  0.00  0.00    +0.000 NA
ATOM      7  C   UNL     1       2.612   6.925  17.511  0.00  0.00    +0.000 C 
ATOM      8  C   UNL     1       4.123   6.942  17.353  0.00  0.00    +0.000 C 
BRANCH   3  12
ATOM      9  C   UNL     1       7.599   5.231  17.715  0.00  0.00    +0.000 C 
ATOM     10  C   UNL     1       6.455   4.530  17.004  0.00  0.00    +0.000 C 
ATOM     11  O   UNL     1       6.682   3.894  15.974  0.00  0.00    +0.000 OA
ATOM     12  N   UNL     1       5.173   4.678  17.565  0.00  0.00    +0.000 N 
BRANCH  12  13
ATOM     13  C   UNL     1       4.074   4.078  16.803  0.00  0.00    +0.000 C 
BRANCH  13  14
ATOM     14  C   UNL     1       3.098   3.241  17.573  0.00  0.00    +0.000 A 
ATOM     15  C   UNL     1       1.678   3.459  17.533  0.00  0.00    +0.000 A 
ATOM     16  C   UNL     1       1.004   2.778  18.521  0.00  0.00    +0.000 A 
ATOM     17  S   UNL     1       2.049   1.778  19.428  0.00  0.00    +0.000 S 
ATOM     18  C   UNL     1       3.414   2.290  18.527  0.00  0.00    +0.000 A 
ENDBRANCH  13  14
ENDBRANCH  12  13
ENDBRANCH   3  12
ENDBRANCH   1   6
BRANCH   1  19
ATOM     19  C   UNL     1       1.347   9.475  18.708  0.00  0.00    +0.000 C 
BRANCH  19  20
ATOM     20  C   UNL     1       0.794  10.571  19.638  0.00  0.00    +0.000 C 
BRANCH  20  21
ATOM     21  N   UNL     1      -0.636  10.810  19.611  0.00  0.00    +0.000 N 
ATOM     22  C   UNL     1      -1.213  11.878  18.963  0.00  0.00    +0.000 C 
ATOM     23  O   UNL     1      -0.569  12.807  18.493  0.00  0.00    +0.000 OA
ATOM     24  H   UNL     1      -1.215   9.986  19.715  0.00  0.00    +0.000 HD
BRANCH  22  25
ATOM     25  C   UNL     1      -2.701  11.848  18.813  0.00  0.00    +0.000 A 
ATOM     26  C   UNL     1      -3.586  12.401  19.765  0.00  0.00    +0.000 A 
ATOM     27  C   UNL     1      -3.201  13.025  21.081  0.00  0.00    +0.000 C 
ATOM     28  C   UNL     1      -4.962  12.388  19.477  0.00  0.00    +0.000 A 
ATOM     29  C   UNL     1      -5.398  11.840  18.287  0.00  0.00    +0.000 A 
ATOM     30 CL   UNL     1      -7.061  11.842  17.871  0.00  0.00    +0.000 Cl
ATOM     31  N   UNL     1      -4.587  11.278  17.380  0.00  0.00    +0.000 NA
ATOM     32  C   UNL     1      -3.252  11.284  17.642  0.00  0.00    +0.000 A 
ATOM     33  C   UNL     1      -2.422  10.596  16.592  0.00  0.00    +0.000 C 
ENDBRANCH  22  25
ENDBRANCH  20  21
ENDBRANCH  19  20
ENDBRANCH   1  19
TORSDOF 8
ENDMDL
MODEL 2
REMARK VINA RESULT:      -7.3      6.391      9.405
REMARK  Name = 
REMARK  12 active torsions:
REMARK  status: ('A' for Active; 'I' for Inactive)
REMARK    1  A    between atoms: C_1  and  C_2
REMARK    2  A    between atoms: N_4  and  C_5
REMARK    3  A    between atoms: N_4  and  C_11
REMARK    4  A    between atoms: C_5  and  C_6
REMARK    5  A    between atoms: N_14  and  C_15
REMARK    6  A    between atoms: C_15  and  C_16
REMARK    7  A    between atoms: C_15  and  C_17
REMARK    8  A    between atoms: C_17  and  C_18
REMARK    9  A    between atoms: C_18  and  N_19
REMARK   10  A    between atoms: C_20  and  C_22
REMARK   11  A    between atoms: C_23  and  C_24
REMARK   12  A    between atoms: C_29  and  C_30
REMARK                            x       y       z     vdW  Elec       q    Type
REMARK                         _______ _______ _______ _____ _____    ______ ____
ROOT
ATOM      1  C   UNL     1       7.375   6.701  17.764  0.00  0.00    +0.000 C 
ATOM      2  C   UNL     1       8.167   6.245  19.005  0.00  0.00    +0.000 C 
ENDROOT
BRANCH   1   6
ATOM      3  C   UNL     1       4.697   3.864  18.000  0.00  0.00    +0.000 C 
ATOM      4  C   UNL     1       5.331   4.462  19.269  0.00  0.00    +0.000 C 
ATOM      5  C   UNL     1       5.520   5.979  19.275  0.00  0.00    +0.000 C 
ATOM      6  N   UNL     1       5.930   6.549  18.000  0.00  0.00    +0.000 NA
ATOM      7  C   UNL     1       5.056   6.152  16.908  0.00  0.00    +0.000 C 
ATOM      8  C   UNL     1       4.980   4.649  16.706  0.00  0.00    +0.000 C 
BRANCH   3  12
ATOM      9  C   UNL     1       3.837   1.125  18.359  0.00  0.00    +0.000 C 
ATOM     10  C   UNL     1       2.845   2.202  17.954  0.00  0.00    +0.000 C 
ATOM     11  O   UNL     1       1.760   1.874  17.472  0.00  0.00    +0.000 OA
ATOM     12  N   UNL     1       3.249   3.537  18.135  0.00  0.00    +0.000 N 
BRANCH  12  13
ATOM     13  C   UNL     1       2.316   4.554  17.642  0.00  0.00    +0.000 C 
BRANCH  13  14
ATOM     14  C   UNL     1       2.018   5.699  18.563  0.00  0.00    +0.000 A 
ATOM     15  C   UNL     1       2.070   7.073  18.145  0.00  0.00    +0.000 A 
ATOM     16  C   UNL     1       2.048   7.955  19.200  0.00  0.00    +0.000 A 
ATOM     17  S   UNL     1       1.843   7.153  20.693  0.00  0.00    +0.000 S 
ATOM     18  C   UNL     1       1.829   5.618  19.931  0.00  0.00    +0.000 A 
ENDBRANCH  13  14
ENDBRANCH  12  13
ENDBRANCH   3  12
ENDBRANCH   1   6
BRANCH   1  19
ATOM     19  C   UNL     1       7.891   8.076  17.261  0.00  0.00    +0.000 C 
BRANCH  19  20
ATOM     20  C   UNL     1       8.523   8.883  18.410  0.00  0.00    +0.000 C 
BRANCH  20  21
ATOM     21  N   UNL     1       8.946  10.240  18.118  0.00  0.00    +0.000 N 
ATOM     22  C   UNL     1       9.329  11.138  19.088  0.00  0.00    +0.000 C 
ATOM     23  O   UNL     1       9.194  10.931  20.287  0.00  0.00    +0.000 OA
ATOM     24  H   UNL     1       9.340  10.382  17.197  0.00  0.00    +0.000 HD
BRANCH  22  25
ATOM     25  C   UNL     1       9.973  12.402  18.614  0.00  0.00    +0.000 A 
ATOM     26  C   UNL     1       9.250  13.462  18.021  0.00  0.00    +0.000 A 
ATOM     27  C   UNL     1       7.778  13.470  17.706  0.00  0.00    +0.000 C 
ATOM     28  C   UNL     1       9.950  14.636  17.691  0.00  0.00    +0.000 A 
ATOM     29  C   UNL     1      11.304  14.713  17.953  0.00  0.00    +0.000 A 
ATOM     30 CL   UNL     1      12.189  16.141  17.609  0.00  0.00    +0.000 Cl
ATOM     31  N   UNL     1      12.021  13.714  18.482  0.00  0.00    +0.000 NA
ATOM     32  C   UNL     1      11.360  12.571  18.811  0.00  0.00    +0.000 A 
ATOM     33  C   UNL     1      12.250  11.488  19.359  0.00  0.00    +0.000 C 
ENDBRANCH  22  25
ENDBRANCH  20  21
ENDBRANCH  19  20
ENDBRANCH   1  19
TORSDOF 8
ENDMDL
MODEL 3
REMARK VINA RESULT:      -7.2      2.541      2.913
REMARK  Name = 
REMARK  12 active torsions:
REMARK  status: ('A' for Active; 'I' for Inactive)
REMARK    1  A    between atoms: C_1  and  C_2
REMARK    2  A    between atoms: N_4  and  C_5
REMARK    3  A    between atoms: N_4  and  C_11
REMARK    4  A    between atoms: C_5  and  C_6
REMARK    5  A    between atoms: N_14  and  C_15
REMARK    6  A    between atoms: C_15  and  C_16
REMARK    7  A    between atoms: C_15  and  C_17
REMARK    8  A    between atoms: C_17  and  C_18
REMARK    9  A    between atoms: C_18  and  N_19
REMARK   10  A    between atoms: C_20  and  C_22
REMARK   11  A    between atoms: C_23  and  C_24
REMARK   12  A    between atoms: C_29  and  C_30
REMARK                            x       y       z     vdW  Elec       q    Type
REMARK                         _______ _______ _______ _____ _____    ______ ____
ROOT
ATOM      1  C   UNL     1       2.115   8.297  18.958  0.00  0.00    +0.000 C 
ATOM      2  C   UNL     1       1.490   8.085  20.350  0.00  0.00    +0.000 C 
ENDROOT
BRANCH   1   6
ATOM      3  C   UNL     1       5.284   6.030  18.651  0.00  0.00    +0.000 C 
ATOM      4  C   UNL     1       4.224   5.767  19.736  0.00  0.00    +0.000 C 
ATOM      5  C   UNL     1       2.766   5.908  19.299  0.00  0.00    +0.000 C 
ATOM      6  N   UNL     1       2.508   7.003  18.375  0.00  0.00    +0.000 NA
ATOM      7  C   UNL     1       3.383   6.968  17.214  0.00  0.00    +0.000 C 
ATOM      8  C   UNL     1       4.859   7.035  17.564  0.00  0.00    +0.000 C 
BRANCH   3  12
ATOM      9  C   UNL     1       8.135   5.551  18.770  0.00  0.00    +0.000 C 
ATOM     10  C   UNL     1       7.256   4.760  17.817  0.00  0.00    +0.000 C 
ATOM     11  O   UNL     1       7.774   4.152  16.880  0.00  0.00    +0.000 OA
ATOM     12  N   UNL     1       5.870   4.795  18.055  0.00  0.00    +0.000 N 
BRANCH  12  13
ATOM     13  C   UNL     1       5.038   4.109  17.062  0.00  0.00    +0.000 C 
BRANCH  13  14
ATOM     14  C   UNL     1       3.949   3.225  17.590  0.00  0.00    +0.000 A 
ATOM     15  C   UNL     1       2.590   3.297  17.130  0.00  0.00    +0.000 A 
ATOM     16  C   UNL     1       1.714   2.611  17.938  0.00  0.00    +0.000 A 
ATOM     17  S   UNL     1       2.524   1.774  19.185  0.00  0.00    +0.000 S 
ATOM     18  C   UNL     1       4.047   2.367  18.671  0.00  0.00    +0.000 A 
ENDBRANCH  13  14
ENDBRANCH  12  13
ENDBRANCH   3  12
ENDBRANCH   1   6
BRANCH   1  19
ATOM     19  C   UNL     1       1.233   9.245  18.102  0.00  0.00    +0.000 C 
BRANCH  19  20
ATOM     20  C   UNL     1       1.193  10.660  18.709  0.00  0.00    +0.000 C 
BRANCH  20  21
ATOM     21  N   UNL     1       0.200  10.918  19.733  0.00  0.00    +0.000 N 
ATOM     22  C   UNL     1       0.449  11.676  20.855  0.00  0.00    +0.000 C 
ATOM     23  O   UNL     1       1.567  12.063  21.170  0.00  0.00    +0.000 OA
ATOM     24  H   UNL     1      -0.762  10.885  19.422  0.00  0.00    +0.000 HD
BRANCH  22  25
ATOM     25  C   UNL     1      -0.736  12.057  21.683  0.00  0.00    +0.000 A 
ATOM     26  C   UNL     1      -1.495  13.227  21.453  0.00  0.00    +0.000 A 
ATOM     27  C   UNL     1      -1.206  14.288  20.425  0.00  0.00    +0.000 C 
ATOM     28  C   UNL     1      -2.639  13.440  22.243  0.00  0.00    +0.000 A 
ATOM     29  C   UNL     1      -2.978  12.510  23.206  0.00  0.00    +0.000 A 
ATOM     30 CL   UNL     1      -4.389  12.704  24.161  0.00  0.00    +0.000 Cl
ATOM     31  N   UNL     1      -2.261  11.410  23.469  0.00  0.00    +0.000 NA
ATOM     32  C   UNL     1      -1.152  11.187  22.713  0.00  0.00    +0.000 A 
ATOM     33  C   UNL     1      -0.385   9.953  23.106  0.00  0.00    +0.000 C 
ENDBRANCH  22  25
ENDBRANCH  20  21
ENDBRANCH  19  20
ENDBRANCH   1  19
TORSDOF 8
ENDMDL
MODEL 4
REMARK VINA RESULT:      -7.2      3.004      4.906
REMARK  Name = 
REMARK  12 active torsions:
REMARK  status: ('A' for Active; 'I' for Inactive)
REMARK    1  A    between atoms: C_1  and  C_2
REMARK    2  A    between atoms: N_4  and  C_5
REMARK    3  A    between atoms: N_4  and  C_11
REMARK    4  A    between atoms: C_5  and  C_6
REMARK    5  A    between atoms: N_14  and  C_15
REMARK    6  A    between atoms: C_15  and  C_16
REMARK    7  A    between atoms: C_15  and  C_17
REMARK    8  A    between atoms: C_17  and  C_18
REMARK    9  A    between atoms: C_18  and  N_19
REMARK   10  A    between atoms: C_20  and  C_22
REMARK   11  A    between atoms: C_23  and  C_24
REMARK   12  A    between atoms: C_29  and  C_30
REMARK                            x       y       z     vdW  Elec       q    Type
REMARK                         _______ _______ _______ _____ _____    ______ ____
ROOT
ATOM      1  C   UNL     1       2.077   3.710  19.513  0.00  0.00    +0.000 C 
ATOM      2  C   UNL     1       1.456   2.420  18.943  0.00  0.00    +0.000 C 
ENDROOT
BRANCH   1   6
ATOM      3  C   UNL     1       5.608   4.469  18.021  0.00  0.00    +0.000 C 
ATOM      4  C   UNL     1       4.691   3.409  17.385  0.00  0.00    +0.000 C 
ATOM      5  C   UNL     1       3.210   3.774  17.287  0.00  0.00    +0.000 C 
ATOM      6  N   UNL     1       2.683   4.503  18.432  0.00  0.00    +0.000 NA
ATOM      7  C   UNL     1       3.474   5.680  18.753  0.00  0.00    +0.000 C 
ATOM      8  C   UNL     1       4.926   5.368  19.069  0.00  0.00    +0.000 C 
BRANCH   3  12
ATOM      9  C   UNL     1       7.882   6.039  18.883  0.00  0.00    +0.000 C 
ATOM     10  C   UNL     1       7.244   6.278  17.525  0.00  0.00    +0.000 C 
ATOM     11  O   UNL     1       7.475   7.329  16.926  0.00  0.00    +0.000 OA
ATOM     12  N   UNL     1       6.390   5.272  17.038  0.00  0.00    +0.000 N 
BRANCH  12  13
ATOM     13  C   UNL     1       5.710   5.574  15.776  0.00  0.00    +0.000 C 
BRANCH  13  14
ATOM     14  C   UNL     1       6.173   4.824  14.564  0.00  0.00    +0.000 A 
ATOM     15  C   UNL     1       7.346   5.188  13.819  0.00  0.00    +0.000 A 
ATOM     16  C   UNL     1       7.424   4.557  12.600  0.00  0.00    +0.000 A 
ATOM     17  S   UNL     1       6.158   3.432  12.385  0.00  0.00    +0.000 S 
ATOM     18  C   UNL     1       5.477   3.823  13.909  0.00  0.00    +0.000 A 
ENDBRANCH  13  14
ENDBRANCH  12  13
ENDBRANCH   3  12
ENDBRANCH   1   6
BRANCH   1  19
ATOM     19  C   UNL     1       1.081   4.420  20.469  0.00  0.00    +0.000 C 
BRANCH  19  20
ATOM     20  C   UNL     1       1.666   5.745  20.991  0.00  0.00    +0.000 C 
BRANCH  20  21
ATOM     21  N   UNL     1       0.907   6.955  20.739  0.00  0.00    +0.000 N 
ATOM     22  C   UNL     1       1.307   8.202  21.162  0.00  0.00    +0.000 C 
ATOM     23  O   UNL     1       2.249   8.384  21.921  0.00  0.00    +0.000 OA
ATOM     24  H   UNL     1       0.312   6.930  19.921  0.00  0.00    +0.000 HD
BRANCH  22  25
ATOM     25  C   UNL     1       0.553   9.370  20.611  0.00  0.00    +0.000 A 
ATOM     26  C   UNL     1       0.667   9.802  19.271  0.00  0.00    +0.000 A 
ATOM     27  C   UNL     1       1.590   9.230  18.226  0.00  0.00    +0.000 C 
ATOM     28  C   UNL     1      -0.154  10.860  18.844  0.00  0.00    +0.000 A 
ATOM     29  C   UNL     1      -1.034  11.437  19.738  0.00  0.00    +0.000 A 
ATOM     30 CL   UNL     1      -2.087  12.699  19.251  0.00  0.00    +0.000 Cl
ATOM     31  N   UNL     1      -1.141  11.072  21.022  0.00  0.00    +0.000 NA
ATOM     32  C   UNL     1      -0.356  10.048  21.453  0.00  0.00    +0.000 A 
ATOM     33  C   UNL     1      -0.511   9.734  22.916  0.00  0.00    +0.000 C 
ENDBRANCH  22  25
ENDBRANCH  20  21
ENDBRANCH  19  20
ENDBRANCH   1  19
TORSDOF 8
ENDMDL
MODEL 5
REMARK VINA RESULT:      -7.2      1.905      3.096
REMARK  Name = 
REMARK  12 active torsions:
REMARK  status: ('A' for Active; 'I' for Inactive)
REMARK    1  A    between atoms: C_1  and  C_2
REMARK    2  A    between atoms: N_4  and  C_5
REMARK    3  A    between atoms: N_4  and  C_11
REMARK    4  A    between atoms: C_5  and  C_6
REMARK    5  A    between atoms: N_14  and  C_15
REMARK    6  A    between atoms: C_15  and  C_16
REMARK    7  A    between atoms: C_15  and  C_17
REMARK    8  A    between atoms: C_17  and  C_18
REMARK    9  A    between atoms: C_18  and  N_19
REMARK   10  A    between atoms: C_20  and  C_22
REMARK   11  A    between atoms: C_23  and  C_24
REMARK   12  A    between atoms: C_29  and  C_30
REMARK                            x       y       z     vdW  Elec       q    Type
REMARK                         _______ _______ _______ _____ _____    ______ ____
ROOT
ATOM      1  C   UNL     1       1.132   8.657  19.807  0.00  0.00    +0.000 C 
ATOM      2  C   UNL     1       1.158   9.587  18.579  0.00  0.00    +0.000 C 
ENDROOT
BRANCH   1   6
ATOM      3  C   UNL     1       1.805   4.952  18.759  0.00  0.00    +0.000 C 
ATOM      4  C   UNL     1       2.111   6.114  17.798  0.00  0.00    +0.000 C 
ATOM      5  C   UNL     1       2.754   7.352  18.424  0.00  0.00    +0.000 C 
ATOM      6  N   UNL     1       2.251   7.701  19.744  0.00  0.00    +0.000 NA
ATOM      7  C   UNL     1       2.300   6.582  20.671  0.00  0.00    +0.000 C 
ATOM      8  C   UNL     1       1.502   5.375  20.208  0.00  0.00    +0.000 C 
BRANCH   3  12
ATOM      9  C   UNL     1       0.922   2.196  18.735  0.00  0.00    +0.000 C 
ATOM     10  C   UNL     1       2.367   2.544  19.052  0.00  0.00    +0.000 C 
ATOM     11  O   UNL     1       3.083   1.709  19.604  0.00  0.00    +0.000 OA
ATOM     12  N   UNL     1       2.797   3.840  18.711  0.00  0.00    +0.000 N 
BRANCH  12  13
ATOM     13  C   UNL     1       4.162   4.183  19.120  0.00  0.00    +0.000 C 
BRANCH  13  14
ATOM     14  C   UNL     1       5.162   4.390  18.023  0.00  0.00    +0.000 A 
ATOM     15  C   UNL     1       4.939   3.966  16.669  0.00  0.00    +0.000 A 
ATOM     16  C   UNL     1       6.082   3.992  15.904  0.00  0.00    +0.000 A 
ATOM     17  S   UNL     1       7.407   4.638  16.765  0.00  0.00    +0.000 S 
ATOM     18  C   UNL     1       6.461   4.842  18.179  0.00  0.00    +0.000 A 
ENDBRANCH  13  14
ENDBRANCH  12  13
ENDBRANCH   3  12
ENDBRANCH   1   6
BRANCH   1  19
ATOM     19  C   UNL     1       0.946   9.477  21.111  0.00  0.00    +0.000 C 
BRANCH  19  20
ATOM     20  C   UNL     1       0.530  10.927  20.796  0.00  0.00    +0.000 C 
BRANCH  20  21
ATOM     21  N   UNL     1      -0.880  11.181  20.570  0.00  0.00    +0.000 N 
ATOM     22  C   UNL     1      -1.347  12.072  19.631  0.00  0.00    +0.000 C 
ATOM     23  O   UNL     1      -0.622  12.845  19.018  0.00  0.00    +0.000 OA
ATOM     24  H   UNL     1      -1.502  10.420  20.812  0.00  0.00    +0.000 HD
BRANCH  22  25
ATOM     25  C   UNL     1      -2.815  12.037  19.346  0.00  0.00    +0.000 A 
ATOM     26  C   UNL     1      -3.764  12.780  20.084  0.00  0.00    +0.000 A 
ATOM     27  C   UNL     1      -3.481  13.642  21.286  0.00  0.00    +0.000 C 
ATOM     28  C   UNL     1      -5.107  12.734  19.671  0.00  0.00    +0.000 A 
ATOM     29  C   UNL     1      -5.451  11.971  18.572  0.00  0.00    +0.000 A 
ATOM     30 CL   UNL     1      -7.068  11.920  18.005  0.00  0.00    +0.000 Cl
ATOM     31  N   UNL     1      -4.580  11.230  17.874  0.00  0.00    +0.000 NA
ATOM     32  C   UNL     1      -3.275  11.266  18.257  0.00  0.00    +0.000 A 
ATOM     33  C   UNL     1      -2.377  10.372  17.445  0.00  0.00    +0.000 C 
ENDBRANCH  22  25
ENDBRANCH  20  21
ENDBRANCH  19  20
ENDBRANCH   1  19
TORSDOF 8
ENDMDL
MODEL 6
REMARK VINA RESULT:      -6.9      3.190      4.929
REMARK  Name = 
REMARK  12 active torsions:
REMARK  status: ('A' for Active; 'I' for Inactive)
REMARK    1  A    between atoms: C_1  and  C_2
REMARK    2  A    between atoms: N_4  and  C_5
REMARK    3  A    between atoms: N_4  and  C_11
REMARK    4  A    between atoms: C_5  and  C_6
REMARK    5  A    between atoms: N_14  and  C_15
REMARK    6  A    between atoms: C_15  and  C_16
REMARK    7  A    between atoms: C_15  and  C_17
REMARK    8  A    between atoms: C_17  and  C_18
REMARK    9  A    between atoms: C_18  and  N_19
REMARK   10  A    between atoms: C_20  and  C_22
REMARK   11  A    between atoms: C_23  and  C_24
REMARK   12  A    between atoms: C_29  and  C_30
REMARK                            x       y       z     vdW  Elec       q    Type
REMARK                         _______ _______ _______ _____ _____    ______ ____
ROOT
ATOM      1  C   UNL     1       1.958   3.566  19.387  0.00  0.00    +0.000 C 
ATOM      2  C   UNL     1       1.040   2.334  19.270  0.00  0.00    +0.000 C 
ENDROOT
BRANCH   1   6
ATOM      3  C   UNL     1       5.198   5.444  18.267  0.00  0.00    +0.000 C 
ATOM      4  C   UNL     1       5.268   4.017  18.839  0.00  0.00    +0.000 C 
ATOM      5  C   UNL     1       4.181   3.051  18.367  0.00  0.00    +0.000 C 
ATOM      6  N   UNL     1       2.858   3.641  18.224  0.00  0.00    +0.000 NA
ATOM      7  C   UNL     1       2.870   4.835  17.393  0.00  0.00    +0.000 C 
ATOM      8  C   UNL     1       3.780   5.931  17.918  0.00  0.00    +0.000 C 
BRANCH   3  12
ATOM      9  C   UNL     1       7.888   6.354  18.827  0.00  0.00    +0.000 C 
ATOM     10  C   UNL     1       7.306   6.468  17.428  0.00  0.00    +0.000 C 
ATOM     11  O   UNL     1       7.837   7.223  16.613  0.00  0.00    +0.000 OA
ATOM     12  N   UNL     1       6.155   5.706  17.155  0.00  0.00    +0.000 N 
BRANCH  12  13
ATOM     13  C   UNL     1       5.557   5.913  15.833  0.00  0.00    +0.000 C 
BRANCH  13  14
ATOM     14  C   UNL     1       6.021   5.007  14.734  0.00  0.00    +0.000 A 
ATOM     15  C   UNL     1       7.269   5.187  14.045  0.00  0.00    +0.000 A 
ATOM     16  C   UNL     1       7.362   4.433  12.899  0.00  0.00    +0.000 A 
ATOM     17  S   UNL     1       6.009   3.412  12.699  0.00  0.00    +0.000 S 
ATOM     18  C   UNL     1       5.274   4.012  14.127  0.00  0.00    +0.000 A 
ENDBRANCH  13  14
ENDBRANCH  12  13
ENDBRANCH   3  12
ENDBRANCH   1   6
BRANCH   1  19
ATOM     19  C   UNL     1       1.134   4.829  19.754  0.00  0.00    +0.000 C 
BRANCH  19  20
ATOM     20  C   UNL     1       1.898   5.714  20.757  0.00  0.00    +0.000 C 
BRANCH  20  21
ATOM     21  N   UNL     1       1.344   7.022  21.050  0.00  0.00    +0.000 N 
ATOM     22  C   UNL     1       1.563   8.130  20.263  0.00  0.00    +0.000 C 
ATOM     23  O   UNL     1       2.370   8.152  19.343  0.00  0.00    +0.000 OA
ATOM     24  H   UNL     1       0.487   7.019  21.588  0.00  0.00    +0.000 HD
BRANCH  22  25
ATOM     25  C   UNL     1       0.725   9.335  20.554  0.00  0.00    +0.000 A 
ATOM     26  C   UNL     1      -0.067   9.979  19.577  0.00  0.00    +0.000 A 
ATOM     27  C   UNL     1      -0.143   9.625  18.116  0.00  0.00    +0.000 C 
ATOM     28  C   UNL     1      -0.879  11.052  19.986  0.00  0.00    +0.000 A 
ATOM     29  C   UNL     1      -0.873  11.437  21.312  0.00  0.00    +0.000 A 
ATOM     30 CL   UNL     1      -1.880  12.710  21.866  0.00  0.00    +0.000 Cl
ATOM     31  N   UNL     1      -0.109  10.868  22.253  0.00  0.00    +0.000 NA
ATOM     32  C   UNL     1       0.681   9.826  21.876  0.00  0.00    +0.000 A 
ATOM     33  C   UNL     1       1.536   9.277  22.986  0.00  0.00    +0.000 C 
ENDBRANCH  22  25
ENDBRANCH  20  21
ENDBRANCH  19  20
ENDBRANCH   1  19
TORSDOF 8
ENDMDL
MODEL 7
REMARK VINA RESULT:      -6.9      2.009      3.428
REMARK  Name = 
REMARK  12 active torsions:
REMARK  status: ('A' for Active; 'I' for Inactive)
REMARK    1  A    between atoms: C_1  and  C_2
REMARK    2  A    between atoms: N_4  and  C_5
REMARK    3  A    between atoms: N_4  and  C_11
REMARK    4  A    between atoms: C_5  and  C_6
REMARK    5  A    between atoms: N_14  and  C_15
REMARK    6  A    between atoms: C_15  and  C_16
REMARK    7  A    between atoms: C_15  and  C_17
REMARK    8  A    between atoms: C_17  and  C_18
REMARK    9  A    between atoms: C_18  and  N_19
REMARK   10  A    between atoms: C_20  and  C_22
REMARK   11  A    between atoms: C_23  and  C_24
REMARK   12  A    between atoms: C_29  and  C_30
REMARK                            x       y       z     vdW  Elec       q    Type
REMARK                         _______ _______ _______ _____ _____    ______ ____
ROOT
ATOM      1  C   UNL     1       1.358   8.778  18.988  0.00  0.00    +0.000 C 
ATOM      2  C   UNL     1       1.611   9.961  18.033  0.00  0.00    +0.000 C 
ENDROOT
BRANCH   1   6
ATOM      3  C   UNL     1       2.102   4.941  18.967  0.00  0.00    +0.000 C 
ATOM      4  C   UNL     1       2.132   5.761  17.664  0.00  0.00    +0.000 C 
ATOM      5  C   UNL     1       2.786   7.140  17.753  0.00  0.00    +0.000 C 
ATOM      6  N   UNL     1       2.514   7.867  18.985  0.00  0.00    +0.000 NA
ATOM      7  C   UNL     1       2.822   7.084  20.171  0.00  0.00    +0.000 C 
ATOM      8  C   UNL     1       2.046   5.781  20.256  0.00  0.00    +0.000 C 
BRANCH   3  12
ATOM      9  C   UNL     1       1.434   2.283  19.895  0.00  0.00    +0.000 C 
ATOM     10  C   UNL     1       2.882   2.737  19.820  0.00  0.00    +0.000 C 
ATOM     11  O   UNL     1       3.744   2.113  20.440  0.00  0.00    +0.000 OA
ATOM     12  N   UNL     1       3.149   3.883  19.049  0.00  0.00    +0.000 N 
BRANCH  12  13
ATOM     13  C   UNL     1       4.535   4.357  19.077  0.00  0.00    +0.000 C 
BRANCH  13  14
ATOM     14  C   UNL     1       5.217   4.526  17.752  0.00  0.00    +0.000 A 
ATOM     15  C   UNL     1       4.952   3.678  16.623  0.00  0.00    +0.000 A 
ATOM     16  C   UNL     1       5.880   3.821  15.617  0.00  0.00    +0.000 A 
ATOM     17  S   UNL     1       7.007   5.056  15.964  0.00  0.00    +0.000 S 
ATOM     18  C   UNL     1       6.279   5.371  17.483  0.00  0.00    +0.000 A 
ENDBRANCH  13  14
ENDBRANCH  12  13
ENDBRANCH   3  12
ENDBRANCH   1   6
BRANCH   1  19
ATOM     19  C   UNL     1       0.832   9.285  20.357  0.00  0.00    +0.000 C 
BRANCH  19  20
ATOM     20  C   UNL     1       0.406  10.763  20.273  0.00  0.00    +0.000 C 
BRANCH  20  21
ATOM     21  N   UNL     1      -1.010  11.041  20.120  0.00  0.00    +0.000 N 
ATOM     22  C   UNL     1      -1.522  11.829  19.115  0.00  0.00    +0.000 C 
ATOM     23  O   UNL     1      -0.824  12.494  18.361  0.00  0.00    +0.000 OA
ATOM     24  H   UNL     1      -1.632  10.337  20.498  0.00  0.00    +0.000 HD
BRANCH  22  25
ATOM     25  C   UNL     1      -3.008  11.815  18.943  0.00  0.00    +0.000 A 
ATOM     26  C   UNL     1      -3.670  10.979  18.016  0.00  0.00    +0.000 A 
ATOM     27  C   UNL     1      -3.016  10.052  17.027  0.00  0.00    +0.000 C 
ATOM     28  C   UNL     1      -5.076  10.990  18.002  0.00  0.00    +0.000 A 
ATOM     29  C   UNL     1      -5.755  11.809  18.883  0.00  0.00    +0.000 A 
ATOM     30 CL   UNL     1      -7.469  11.823  18.933  0.00  0.00    +0.000 Cl
ATOM     31  N   UNL     1      -5.155  12.636  19.749  0.00  0.00    +0.000 NA
ATOM     32  C   UNL     1      -3.795  12.636  19.779  0.00  0.00    +0.000 A 
ATOM     33  C   UNL     1      -3.206  13.624  20.750  0.00  0.00    +0.000 C 
ENDBRANCH  22  25
ENDBRANCH  20  21
ENDBRANCH  19  20
ENDBRANCH   1  19
TORSDOF 8
ENDMDL
MODEL 8
REMARK VINA RESULT:      -6.8      4.491     10.457
REMARK  Name = 
REMARK  12 active torsions:
REMARK  status: ('A' for Active; 'I' for Inactive)
REMARK    1  A    between atoms: C_1  and  C_2
REMARK    2  A    between atoms: N_4  and  C_5
REMARK    3  A    between atoms: N_4  and  C_11
REMARK    4  A    between atoms: C_5  and  C_6
REMARK    5  A    between atoms: N_14  and  C_15
REMARK    6  A    between atoms: C_15  and  C_16
REMARK    7  A    between atoms: C_15  and  C_17
REMARK    8  A    between atoms: C_17  and  C_18
REMARK    9  A    between atoms: C_18  and  N_19
REMARK   10  A    between atoms: C_20  and  C_22
REMARK   11  A    between atoms: C_23  and  C_24
REMARK   12  A    between atoms: C_29  and  C_30
REMARK                            x       y       z     vdW  Elec       q    Type
REMARK                         _______ _______ _______ _____ _____    ______ ____
ROOT
ATOM      1  C   UNL     1       1.787   8.456  19.184  0.00  0.00    +0.000 C 
ATOM      2  C   UNL     1       2.104   8.636  17.687  0.00  0.00    +0.000 C 
ENDROOT
BRANCH   1   6
ATOM      3  C   UNL     1       1.046  11.827  21.017  0.00  0.00    +0.000 C 
ATOM      4  C   UNL     1       1.106  11.758  19.481  0.00  0.00    +0.000 C 
ATOM      5  C   UNL     1       0.447  10.537  18.837  0.00  0.00    +0.000 C 
ATOM      6  N   UNL     1       0.634   9.289  19.563  0.00  0.00    +0.000 NA
ATOM      7  C   UNL     1       0.246   9.395  20.960  0.00  0.00    +0.000 C 
ATOM      8  C   UNL     1       1.014  10.460  21.724  0.00  0.00    +0.000 C 
BRANCH   3  12
ATOM      9  C   UNL     1       1.575  14.657  21.309  0.00  0.00    +0.000 C 
ATOM     10  C   UNL     1       0.387  14.015  22.004  0.00  0.00    +0.000 C 
ATOM     11  O   UNL     1      -0.162  14.607  22.934  0.00  0.00    +0.000 OA
ATOM     12  N   UNL     1      -0.004  12.742  21.549  0.00  0.00    +0.000 N 
BRANCH  12  13
ATOM     13  C   UNL     1      -1.085  12.103  22.303  0.00  0.00    +0.000 C 
BRANCH  13  14
ATOM     14  C   UNL     1      -2.483  12.355  21.822  0.00  0.00    +0.000 A 
ATOM     15  C   UNL     1      -2.813  12.531  20.436  0.00  0.00    +0.000 A 
ATOM     16  C   UNL     1      -4.081  13.031  20.246  0.00  0.00    +0.000 A 
ATOM     17  S   UNL     1      -4.931  13.179  21.720  0.00  0.00    +0.000 S 
ATOM     18  C   UNL     1      -3.584  12.617  22.618  0.00  0.00    +0.000 A 
ENDBRANCH  13  14
ENDBRANCH  12  13
ENDBRANCH   3  12
ENDBRANCH   1   6
BRANCH   1  19
ATOM     19  C   UNL     1       1.753   6.950  19.558  0.00  0.00    +0.000 C 
BRANCH  19  20
ATOM     20  C   UNL     1       3.178   6.395  19.744  0.00  0.00    +0.000 C 
BRANCH  20  21
ATOM     21  N   UNL     1       3.980   6.203  18.551  0.00  0.00    +0.000 N 
ATOM     22  C   UNL     1       5.202   5.569  18.554  0.00  0.00    +0.000 C 
ATOM     23  O   UNL     1       5.793   5.255  19.579  0.00  0.00    +0.000 OA
ATOM     24  H   UNL     1       3.463   6.172  17.682  0.00  0.00    +0.000 HD
BRANCH  22  25
ATOM     25  C   UNL     1       5.784   5.228  17.219  0.00  0.00    +0.000 A 
ATOM     26  C   UNL     1       5.291   4.184  16.405  0.00  0.00    +0.000 A 
ATOM     27  C   UNL     1       4.188   3.222  16.761  0.00  0.00    +0.000 C 
ATOM     28  C   UNL     1       5.863   4.010  15.133  0.00  0.00    +0.000 A 
ATOM     29  C   UNL     1       6.876   4.855  14.726  0.00  0.00    +0.000 A 
ATOM     30 CL   UNL     1       7.573   4.710  13.166  0.00  0.00    +0.000 Cl
ATOM     31  N   UNL     1       7.387   5.831  15.487  0.00  0.00    +0.000 NA
ATOM     32  C   UNL     1       6.844   6.016  16.721  0.00  0.00    +0.000 A 
ATOM     33  C   UNL     1       7.505   7.105  17.522  0.00  0.00    +0.000 C 
ENDBRANCH  22  25
ENDBRANCH  20  21
ENDBRANCH  19  20
ENDBRANCH   1  19
TORSDOF 8
ENDMDL
MODEL 9
REMARK VINA RESULT:      -6.7      2.818      3.588
REMARK  Name = 
REMARK  12 active torsions:
REMARK  status: ('A' for Active; 'I' for Inactive)
REMARK    1  A    between atoms: C_1  and  C_2
REMARK    2  A    between atoms: N_4  and  C_5
REMARK    3  A    between atoms: N_4  and  C_11
REMARK    4  A    between atoms: C_5  and  C_6
REMARK    5  A    between atoms: N_14  and  C_15
REMARK    6  A    between atoms: C_15  and  C_16
REMARK    7  A    between atoms: C_15  and  C_17
REMARK    8  A    between atoms: C_17  and  C_18
REMARK    9  A    between atoms: C_18  and  N_19
REMARK   10  A    between atoms: C_20  and  C_22
REMARK   11  A    between atoms: C_23  and  C_24
REMARK   12  A    between atoms: C_29  and  C_30
REMARK                            x       y       z     vdW  Elec       q    Type
REMARK                         _______ _______ _______ _____ _____    ______ ____
ROOT
ATOM      1  C   UNL     1       1.957   8.268  19.664  0.00  0.00    +0.000 C 
ATOM      2  C   UNL     1       1.277   8.101  21.037  0.00  0.00    +0.000 C 
ENDROOT
BRANCH   1   6
ATOM      3  C   UNL     1       4.799   5.945  18.323  0.00  0.00    +0.000 C 
ATOM      4  C   UNL     1       4.183   5.719  19.715  0.00  0.00    +0.000 C 
ATOM      5  C   UNL     1       2.666   5.876  19.812  0.00  0.00    +0.000 C 
ATOM      6  N   UNL     1       2.111   6.958  19.011  0.00  0.00    +0.000 NA
ATOM      7  C   UNL     1       2.524   6.887  17.619  0.00  0.00    +0.000 C 
ATOM      8  C   UNL     1       4.031   6.936  17.430  0.00  0.00    +0.000 C 
BRANCH   3  12
ATOM      9  C   UNL     1       7.546   5.298  17.681  0.00  0.00    +0.000 C 
ATOM     10  C   UNL     1       6.399   4.579  16.992  0.00  0.00    +0.000 C 
ATOM     11  O   UNL     1       6.613   3.960  15.949  0.00  0.00    +0.000 OA
ATOM     12  N   UNL     1       5.129   4.690  17.588  0.00  0.00    +0.000 N 
BRANCH  12  13
ATOM     13  C   UNL     1       4.024   4.074  16.848  0.00  0.00    +0.000 C 
BRANCH  13  14
ATOM     14  C   UNL     1       3.079   3.219  17.637  0.00  0.00    +0.000 A 
ATOM     15  C   UNL     1       1.653   3.389  17.598  0.00  0.00    +0.000 A 
ATOM     16  C   UNL     1       1.004   2.704  18.599  0.00  0.00    +0.000 A 
ATOM     17  S   UNL     1       2.084   1.757  19.522  0.00  0.00    +0.000 S 
ATOM     18  C   UNL     1       3.429   2.298  18.608  0.00  0.00    +0.000 A 
ENDBRANCH  13  14
ENDBRANCH  12  13
ENDBRANCH   3  12
ENDBRANCH   1   6
BRANCH   1  19
ATOM     19  C   UNL     1       1.286   9.411  18.857  0.00  0.00    +0.000 C 
BRANCH  19  20
ATOM     20  C   UNL     1       0.116  10.031  19.646  0.00  0.00    +0.000 C 
BRANCH  20  21
ATOM     21  N   UNL     1      -0.041  11.471  19.584  0.00  0.00    +0.000 N 
ATOM     22  C   UNL     1       0.660  12.344  20.385  0.00  0.00    +0.000 C 
ATOM     23  O   UNL     1       1.353  11.983  21.327  0.00  0.00    +0.000 OA
ATOM     24  H   UNL     1      -0.352  11.835  18.692  0.00  0.00    +0.000 HD
BRANCH  22  25
ATOM     25  C   UNL     1       0.574  13.795  20.031  0.00  0.00    +0.000 A 
ATOM     26  C   UNL     1       1.365  14.391  19.023  0.00  0.00    +0.000 A 
ATOM     27  C   UNL     1       2.442  13.714  18.217  0.00  0.00    +0.000 C 
ATOM     28  C   UNL     1       1.139  15.746  18.720  0.00  0.00    +0.000 A 
ATOM     29  C   UNL     1       0.164  16.439  19.409  0.00  0.00    +0.000 A 
ATOM     30 CL   UNL     1      -0.179  18.079  19.042  0.00  0.00    +0.000 Cl
ATOM     31  N   UNL     1      -0.578  15.911  20.391  0.00  0.00    +0.000 NA
ATOM     32  C   UNL     1      -0.374  14.601  20.696  0.00  0.00    +0.000 A 
ATOM     33  C   UNL     1      -1.219  14.102  21.838  0.00  0.00    +0.000 C 
ENDBRANCH  22  25
ENDBRANCH  20  21
ENDBRANCH  19  20
ENDBRANCH   1  19
TORSDOF 8
ENDMDL
