MODEL 1
REMARK VINA RESULT:      -7.2      0.000      0.000
REMARK  Name = 
REMARK  12 active torsions:
REMARK  status: ('A' for Active; 'I' for Inactive)
REMARK    1  A    between atoms: C_1  and  C_2
REMARK    2  A    between atoms: C_2  and  C_3
REMARK    3  A    between atoms: C_3  and  C_4
REMARK    4  A    between atoms: C_4  and  C_5
REMARK    5  A    between atoms: C_5  and  C_6
REMARK    6  A    between atoms: C_6  and  C_7
REMARK    7  A    between atoms: C_7  and  C_8
REMARK    8  A    between atoms: C_8  and  N_9
REMARK    9  A    between atoms: C_19  and  O_20
REMARK   10  A    between atoms: O_20  and  C_21
REMARK   11  A    between atoms: C_21  and  C_22
REMARK   12  A    between atoms: C_22  and  O_24
REMARK                            x       y       z     vdW  Elec       q    Type
REMARK                         _______ _______ _______ _____ _____    ______ ____
ROOT
ATOM      1  N   UNL     1       4.656   4.799  18.493  0.00  0.00    +0.000 N 
ATOM      2  C   UNL     1       5.206   4.872  17.225  0.00  0.00    +0.000 A 
ATOM      3  C   UNL     1       6.107   4.023  16.558  0.00  0.00    +0.000 A 
ATOM      4  C   UNL     1       6.582   4.410  15.305  0.00  0.00    +0.000 A 
ATOM      5  C   UNL     1       6.147   5.589  14.715  0.00  0.00    +0.000 A 
ATOM      6  C   UNL     1       5.218   6.409  15.367  0.00  0.00    +0.000 A 
ATOM      7  C   UNL     1       4.740   6.053  16.649  0.00  0.00    +0.000 A 
ATOM      8  C   UNL     1       3.828   6.654  17.572  0.00  0.00    +0.000 A 
ATOM      9  C   UNL     1       3.045   7.828  17.545  0.00  0.00    +0.000 A 
ATOM     10  C   UNL     1       2.229   8.160  18.637  0.00  0.00    +0.000 A 
ATOM     11  C   UNL     1       2.187   7.341  19.763  0.00  0.00    +0.000 A 
ATOM     12  C   UNL     1       2.980   6.188  19.821  0.00  0.00    +0.000 A 
ATOM     13  C   UNL     1       3.783   5.849  18.713  0.00  0.00    +0.000 A 
ENDROOT
BRANCH   1  14
ATOM     14  C   UNL     1       5.048   3.811  19.487  0.00  0.00    +0.000 C 
BRANCH  14  15
ATOM     15  C   UNL     1       4.176   2.552  19.467  0.00  0.00    +0.000 C 
BRANCH  15  16
ATOM     16  C   UNL     1       3.687   2.192  18.063  0.00  0.00    +0.000 C 
BRANCH  16  17
ATOM     17  C   UNL     1       2.194   1.908  18.071  0.00  0.00    +0.000 C 
BRANCH  17  18
ATOM     18  C   UNL     1       1.399   3.192  18.283  0.00  0.00    +0.000 C 
BRANCH  18  19
ATOM     19  C   UNL     1       0.455   3.050  19.472  0.00  0.00    +0.000 C 
BRANCH  19  21
ATOM     20  C   UNL     1       1.456   2.590  21.728  0.00  0.00    +0.000 C 
ATOM     21  C   UNL     1       1.064   3.665  20.728  0.00  0.00    +0.000 C 
ENDBRANCH  19  21
ENDBRANCH  18  19
ENDBRANCH  17  18
ENDBRANCH  16  17
ENDBRANCH  15  16
ENDBRANCH  14  15
ENDBRANCH   1  14
BRANCH  11  22
ATOM     22  O   UNL     1       1.455   7.596  20.896  0.00  0.00    +0.000 OA
BRANCH  22  23
ATOM     23  C   UNL     1       0.581   8.727  20.826  0.00  0.00    +0.000 C 
BRANCH  23  24
ATOM     24  C   UNL     1       0.981   9.735  21.894  0.00  0.00    +0.000 C 
ATOM     25  O   UNL     1       1.078   9.468  23.083  0.00  0.00    +0.000 OA
BRANCH  24  26
ATOM     26  O   UNL     1       1.212  10.979  21.406  0.00  0.00    +0.000 OA
ATOM     27  H   UNL     1       1.467  11.578  22.142  0.00  0.00    +0.000 HD
ENDBRANCH  24  26
ENDBRANCH  23  24
ENDBRANCH  22  23
ENDBRANCH  11  22
TORSDOF 11
ENDMDL
MODEL 2
REMARK VINA RESULT:      -7.0      3.136      5.988
REMARK  Name = 
REMARK  12 active torsions:
REMARK  status: ('A' for Active; 'I' for Inactive)
REMARK    1  A    between atoms: C_1  and  C_2
REMARK    2  A    between atoms: C_2  and  C_3
REMARK    3  A    between atoms: C_3  and  C_4
REMARK    4  A    between atoms: C_4  and  C_5
REMARK    5  A    between atoms: C_5  and  C_6
REMARK    6  A    between atoms: C_6  and  C_7
REMARK    7  A    between atoms: C_7  and  C_8
REMARK    8  A    between atoms: C_8  and  N_9
REMARK    9  A    between atoms: C_19  and  O_20
REMARK   10  A    between atoms: O_20  and  C_21
REMARK   11  A    between atoms: C_21  and  C_22
REMARK   12  A    between atoms: C_22  and  O_24
REMARK                            x       y       z     vdW  Elec       q    Type
REMARK                         _______ _______ _______ _____ _____    ______ ____
ROOT
ATOM      1  N   UNL     1       2.600   6.271  19.766  0.00  0.00    +0.000 N 
ATOM      2  C   UNL     1       1.969   7.501  19.827  0.00  0.00    +0.000 A 
ATOM      3  C   UNL     1       1.081   8.039  20.775  0.00  0.00    +0.000 A 
ATOM      4  C   UNL     1       0.506   9.284  20.517  0.00  0.00    +0.000 A 
ATOM      5  C   UNL     1       0.832   9.990  19.366  0.00  0.00    +0.000 A 
ATOM      6  C   UNL     1       1.747   9.466  18.445  0.00  0.00    +0.000 A 
ATOM      7  C   UNL     1       2.325   8.195  18.671  0.00  0.00    +0.000 A 
ATOM      8  C   UNL     1       3.254   7.383  17.947  0.00  0.00    +0.000 A 
ATOM      9  C   UNL     1       3.960   7.552  16.737  0.00  0.00    +0.000 A 
ATOM     10  C   UNL     1       4.822   6.546  16.273  0.00  0.00    +0.000 A 
ATOM     11  C   UNL     1       4.983   5.367  16.996  0.00  0.00    +0.000 A 
ATOM     12  C   UNL     1       4.268   5.168  18.184  0.00  0.00    +0.000 A 
ATOM     13  C   UNL     1       3.420   6.190  18.654  0.00  0.00    +0.000 A 
ENDROOT
BRANCH   1  14
ATOM     14  C   UNL     1       2.333   5.181  20.693  0.00  0.00    +0.000 C 
BRANCH  14  15
ATOM     15  C   UNL     1       0.995   4.480  20.435  0.00  0.00    +0.000 C 
BRANCH  15  16
ATOM     16  C   UNL     1       1.122   2.956  20.397  0.00  0.00    +0.000 C 
BRANCH  16  17
ATOM     17  C   UNL     1       0.796   2.425  19.010  0.00  0.00    +0.000 C 
BRANCH  17  18
ATOM     18  C   UNL     1       2.020   2.493  18.103  0.00  0.00    +0.000 C 
BRANCH  18  19
ATOM     19  C   UNL     1       3.075   1.485  18.545  0.00  0.00    +0.000 C 
BRANCH  19  21
ATOM     20  C   UNL     1       4.530   1.929  20.543  0.00  0.00    +0.000 C 
ATOM     21  C   UNL     1       4.324   2.193  19.061  0.00  0.00    +0.000 C 
ENDBRANCH  19  21
ENDBRANCH  18  19
ENDBRANCH  17  18
ENDBRANCH  16  17
ENDBRANCH  15  16
ENDBRANCH  14  15
ENDBRANCH   1  14
BRANCH  11  22
ATOM     22  O   UNL     1       5.768   4.308  16.611  0.00  0.00    +0.000 OA
BRANCH  22  23
ATOM     23  C   UNL     1       7.066   4.649  16.114  0.00  0.00    +0.000 C 
BRANCH  23  24
ATOM     24  C   UNL     1       7.045   4.611  14.592  0.00  0.00    +0.000 C 
ATOM     25  O   UNL     1       6.377   3.822  13.938  0.00  0.00    +0.000 OA
BRANCH  24  26
ATOM     26  O   UNL     1       7.854   5.533  14.015  0.00  0.00    +0.000 OA
ATOM     27  H   UNL     1       8.705   5.575  14.506  0.00  0.00    +0.000 HD
ENDBRANCH  24  26
ENDBRANCH  23  24
ENDBRANCH  22  23
ENDBRANCH  11  22
TORSDOF 11
ENDMDL
MODEL 3
REMARK VINA RESULT:      -7.0      3.104      6.047
REMARK  Name = 
REMARK  12 active torsions:
REMARK  status: ('A' for Active; 'I' for Inactive)
REMARK    1  A    between atoms: C_1  and  C_2
REMARK    2  A    between atoms: C_2  and  C_3
REMARK    3  A    between atoms: C_3  and  C_4
REMARK    4  A    between atoms: C_4  and  C_5
REMARK    5  A    between atoms: C_5  and  C_6
REMARK    6  A    between atoms: C_6  and  C_7
REMARK    7  A    between atoms: C_7  and  C_8
REMARK    8  A    between atoms: C_8  and  N_9
REMARK    9  A    between atoms: C_19  and  O_20
REMARK   10  A    between atoms: O_20  and  C_21
REMARK   11  A    between atoms: C_21  and  C_22
REMARK   12  A    between atoms: C_22  and  O_24
REMARK                            x       y       z     vdW  Elec       q    Type
REMARK                         _______ _______ _______ _____ _____    ______ ____
ROOT
ATOM      1  N   UNL     1       2.463   6.683  19.688  0.00  0.00    +0.000 N 
ATOM      2  C   UNL     1       1.878   7.930  19.555  0.00  0.00    +0.000 A 
ATOM      3  C   UNL     1       0.957   8.610  20.371  0.00  0.00    +0.000 A 
ATOM      4  C   UNL     1       0.447   9.829  19.926  0.00  0.00    +0.000 A 
ATOM      5  C   UNL     1       0.867  10.375  18.720  0.00  0.00    +0.000 A 
ATOM      6  C   UNL     1       1.814   9.711  17.931  0.00  0.00    +0.000 A 
ATOM      7  C   UNL     1       2.329   8.462  18.348  0.00  0.00    +0.000 A 
ATOM      8  C   UNL     1       3.267   7.537  17.791  0.00  0.00    +0.000 A 
ATOM      9  C   UNL     1       4.050   7.531  16.617  0.00  0.00    +0.000 A 
ATOM     10  C   UNL     1       4.898   6.448  16.337  0.00  0.00    +0.000 A 
ATOM     11  C   UNL     1       4.970   5.365  17.209  0.00  0.00    +0.000 A 
ATOM     12  C   UNL     1       4.178   5.339  18.364  0.00  0.00    +0.000 A 
ATOM     13  C   UNL     1       3.344   6.438  18.649  0.00  0.00    +0.000 A 
ENDROOT
BRANCH   1  14
ATOM     14  C   UNL     1       2.098   5.726  20.722  0.00  0.00    +0.000 C 
BRANCH  14  15
ATOM     15  C   UNL     1       0.954   4.795  20.311  0.00  0.00    +0.000 C 
BRANCH  15  16
ATOM     16  C   UNL     1       1.139   3.366  20.826  0.00  0.00    +0.000 C 
BRANCH  16  17
ATOM     17  C   UNL     1       2.461   3.228  21.563  0.00  0.00    +0.000 C 
BRANCH  17  18
ATOM     18  C   UNL     1       3.258   2.043  21.030  0.00  0.00    +0.000 C 
BRANCH  18  19
ATOM     19  C   UNL     1       4.018   2.431  19.766  0.00  0.00    +0.000 C 
BRANCH  19  21
ATOM     20  C   UNL     1       2.583   2.107  17.731  0.00  0.00    +0.000 C 
ATOM     21  C   UNL     1       3.664   1.501  18.610  0.00  0.00    +0.000 C 
ENDBRANCH  19  21
ENDBRANCH  18  19
ENDBRANCH  17  18
ENDBRANCH  16  17
ENDBRANCH  15  16
ENDBRANCH  14  15
ENDBRANCH   1  14
BRANCH  11  22
ATOM     22  O   UNL     1       5.735   4.242  17.008  0.00  0.00    +0.000 OA
BRANCH  22  23
ATOM     23  C   UNL     1       7.061   4.475  16.522  0.00  0.00    +0.000 C 
BRANCH  23  24
ATOM     24  C   UNL     1       7.035   4.521  15.001  0.00  0.00    +0.000 C 
ATOM     25  O   UNL     1       6.390   3.749  14.305  0.00  0.00    +0.000 OA
BRANCH  24  26
ATOM     26  O   UNL     1       7.812   5.500  14.475  0.00  0.00    +0.000 OA
ATOM     27  H   UNL     1       8.166   6.062  15.199  0.00  0.00    +0.000 HD
ENDBRANCH  24  26
ENDBRANCH  23  24
ENDBRANCH  22  23
ENDBRANCH  11  22
TORSDOF 11
ENDMDL
MODEL 4
REMARK VINA RESULT:      -7.0      3.038      5.423
REMARK  Name = 
REMARK  12 active torsions:
REMARK  status: ('A' for Active; 'I' for Inactive)
REMARK    1  A    between atoms: C_1  and  C_2
REMARK    2  A    between atoms: C_2  and  C_3
REMARK    3  A    between atoms: C_3  and  C_4
REMARK    4  A    between atoms: C_4  and  C_5
REMARK    5  A    between atoms: C_5  and  C_6
REMARK    6  A    between atoms: C_6  and  C_7
REMARK    7  A    between atoms: C_7  and  C_8
REMARK    8  A    between atoms: C_8  and  N_9
REMARK    9  A    between atoms: C_19  and  O_20
REMARK   10  A    between atoms: O_20  and  C_21
REMARK   11  A    between atoms: C_21  and  C_22
REMARK   12  A    between atoms: C_22  and  O_24
REMARK                            x       y       z     vdW  Elec       q    Type
REMARK                         _______ _______ _______ _____ _____    ______ ____
ROOT
ATOM      1  N   UNL     1       2.464   6.991  19.946  0.00  0.00    +0.000 N 
ATOM      2  C   UNL     1       1.772   8.121  19.545  0.00  0.00    +0.000 A 
ATOM      3  C   UNL     1       0.730   8.834  20.164  0.00  0.00    +0.000 A 
ATOM      4  C   UNL     1       0.139   9.888  19.466  0.00  0.00    +0.000 A 
ATOM      5  C   UNL     1       0.595  10.245  18.204  0.00  0.00    +0.000 A 
ATOM      6  C   UNL     1       1.659   9.555  17.610  0.00  0.00    +0.000 A 
ATOM      7  C   UNL     1       2.259   8.468  18.286  0.00  0.00    +0.000 A 
ATOM      8  C   UNL     1       3.322   7.565  17.969  0.00  0.00    +0.000 A 
ATOM      9  C   UNL     1       4.188   7.428  16.863  0.00  0.00    +0.000 A 
ATOM     10  C   UNL     1       5.156   6.412  16.843  0.00  0.00    +0.000 A 
ATOM     11  C   UNL     1       5.267   5.522  17.908  0.00  0.00    +0.000 A 
ATOM     12  C   UNL     1       4.396   5.622  19.001  0.00  0.00    +0.000 A 
ATOM     13  C   UNL     1       3.440   6.657  19.024  0.00  0.00    +0.000 A 
ENDROOT
BRANCH   1  14
ATOM     14  C   UNL     1       2.116   6.207  21.122  0.00  0.00    +0.000 C 
BRANCH  14  15
ATOM     15  C   UNL     1       1.446   4.871  20.785  0.00  0.00    +0.000 C 
BRANCH  15  16
ATOM     16  C   UNL     1       2.083   3.688  21.516  0.00  0.00    +0.000 C 
BRANCH  16  17
ATOM     17  C   UNL     1       1.519   2.373  21.001  0.00  0.00    +0.000 C 
BRANCH  17  18
ATOM     18  C   UNL     1       0.877   2.559  19.630  0.00  0.00    +0.000 C 
BRANCH  18  19
ATOM     19  C   UNL     1       1.577   1.696  18.586  0.00  0.00    +0.000 C 
BRANCH  19  21
ATOM     20  C   UNL     1       2.476   3.460  17.043  0.00  0.00    +0.000 C 
ATOM     21  C   UNL     1       2.831   2.387  18.059  0.00  0.00    +0.000 C 
ENDBRANCH  19  21
ENDBRANCH  18  19
ENDBRANCH  17  18
ENDBRANCH  16  17
ENDBRANCH  15  16
ENDBRANCH  14  15
ENDBRANCH   1  14
BRANCH  11  22
ATOM     22  O   UNL     1       6.149   4.472  17.968  0.00  0.00    +0.000 OA
BRANCH  22  23
ATOM     23  C   UNL     1       7.536   4.827  17.938  0.00  0.00    +0.000 C 
BRANCH  23  24
ATOM     24  C   UNL     1       7.865   5.663  19.167  0.00  0.00    +0.000 C 
ATOM     25  O   UNL     1       7.728   5.270  20.317  0.00  0.00    +0.000 OA
BRANCH  24  26
ATOM     26  O   UNL     1       8.319   6.906  18.872  0.00  0.00    +0.000 OA
ATOM     27  H   UNL     1       9.298   6.925  18.954  0.00  0.00    +0.000 HD
ENDBRANCH  24  26
ENDBRANCH  23  24
ENDBRANCH  22  23
ENDBRANCH  11  22
TORSDOF 11
ENDMDL
MODEL 5
REMARK VINA RESULT:      -6.9      3.030      5.729
REMARK  Name = 
REMARK  12 active torsions:
REMARK  status: ('A' for Active; 'I' for Inactive)
REMARK    1  A    between atoms: C_1  and  C_2
REMARK    2  A    between atoms: C_2  and  C_3
REMARK    3  A    between atoms: C_3  and  C_4
REMARK    4  A    between atoms: C_4  and  C_5
REMARK    5  A    between atoms: C_5  and  C_6
REMARK    6  A    between atoms: C_6  and  C_7
REMARK    7  A    between atoms: C_7  and  C_8
REMARK    8  A    between atoms: C_8  and  N_9
REMARK    9  A    between atoms: C_19  and  O_20
REMARK   10  A    between atoms: O_20  and  C_21
REMARK   11  A    between atoms: C_21  and  C_22
REMARK   12  A    between atoms: C_22  and  O_24
REMARK                            x       y       z     vdW  Elec       q    Type
REMARK                         _______ _______ _______ _____ _____    ______ ____
ROOT
ATOM      1  N   UNL     1       3.868   5.693  18.107  0.00  0.00    +0.000 N 
ATOM      2  C   UNL     1       3.766   4.650  19.012  0.00  0.00    +0.000 A 
ATOM      3  C   UNL     1       4.364   3.378  19.027  0.00  0.00    +0.000 A 
ATOM      4  C   UNL     1       3.986   2.477  20.022  0.00  0.00    +0.000 A 
ATOM      5  C   UNL     1       3.066   2.842  20.996  0.00  0.00    +0.000 A 
ATOM      6  C   UNL     1       2.503   4.124  20.998  0.00  0.00    +0.000 A 
ATOM      7  C   UNL     1       2.851   5.049  19.986  0.00  0.00    +0.000 A 
ATOM      8  C   UNL     1       2.463   6.393  19.691  0.00  0.00    +0.000 A 
ATOM      9  C   UNL     1       1.593   7.315  20.313  0.00  0.00    +0.000 A 
ATOM     10  C   UNL     1       1.413   8.596  19.768  0.00  0.00    +0.000 A 
ATOM     11  C   UNL     1       2.082   8.969  18.605  0.00  0.00    +0.000 A 
ATOM     12  C   UNL     1       2.925   8.058  17.957  0.00  0.00    +0.000 A 
ATOM     13  C   UNL     1       3.117   6.780  18.520  0.00  0.00    +0.000 A 
ENDROOT
BRANCH   1  14
ATOM     14  C   UNL     1       4.579   5.596  16.841  0.00  0.00    +0.000 C 
BRANCH  14  15
ATOM     15  C   UNL     1       5.853   6.446  16.793  0.00  0.00    +0.000 C 
BRANCH  15  16
ATOM     16  C   UNL     1       7.038   5.775  17.489  0.00  0.00    +0.000 C 
BRANCH  16  17
ATOM     17  C   UNL     1       7.813   6.784  18.321  0.00  0.00    +0.000 C 
BRANCH  17  18
ATOM     18  C   UNL     1       7.777   8.163  17.672  0.00  0.00    +0.000 C 
BRANCH  18  19
ATOM     19  C   UNL     1       8.523   9.181  18.528  0.00  0.00    +0.000 C 
BRANCH  19  21
ATOM     20  C   UNL     1      10.032  11.142  18.105  0.00  0.00    +0.000 C 
ATOM     21  C   UNL     1       8.692  10.501  17.783  0.00  0.00    +0.000 C 
ENDBRANCH  19  21
ENDBRANCH  18  19
ENDBRANCH  17  18
ENDBRANCH  16  17
ENDBRANCH  15  16
ENDBRANCH  14  15
ENDBRANCH   1  14
BRANCH  11  22
ATOM     22  O   UNL     1       1.944  10.179  17.971  0.00  0.00    +0.000 OA
BRANCH  22  23
ATOM     23  C   UNL     1       1.351  11.222  18.752  0.00  0.00    +0.000 C 
BRANCH  23  24
ATOM     24  C   UNL     1       2.129  12.513  18.536  0.00  0.00    +0.000 C 
ATOM     25  O   UNL     1       2.345  13.335  19.415  0.00  0.00    +0.000 OA
BRANCH  24  26
ATOM     26  O   UNL     1       2.557  12.681  17.261  0.00  0.00    +0.000 OA
ATOM     27  H   UNL     1       1.990  13.344  16.809  0.00  0.00    +0.000 HD
ENDBRANCH  24  26
ENDBRANCH  23  24
ENDBRANCH  22  23
ENDBRANCH  11  22
TORSDOF 11
ENDMDL
MODEL 6
REMARK VINA RESULT:      -6.9      2.210      5.360
REMARK  Name = 
REMARK  12 active torsions:
REMARK  status: ('A' for Active; 'I' for Inactive)
REMARK    1  A    between atoms: C_1  and  C_2
REMARK    2  A    between atoms: C_2  and  C_3
REMARK    3  A    between atoms: C_3  and  C_4
REMARK    4  A    between atoms: C_4  and  C_5
REMARK    5  A    between atoms: C_5  and  C_6
REMARK    6  A    between atoms: C_6  and  C_7
REMARK    7  A    between atoms: C_7  and  C_8
REMARK    8  A    between atoms: C_8  and  N_9
REMARK    9  A    between atoms: C_19  and  O_20
REMARK   10  A    between atoms: O_20  and  C_21
REMARK   11  A    between atoms: C_21  and  C_22
REMARK   12  A    between atoms: C_22  and  O_24
REMARK                            x       y       z     vdW  Elec       q    Type
REMARK                         _______ _______ _______ _____ _____    ______ ____
ROOT
ATOM      1  N   UNL     1       3.405   5.298  18.393  0.00  0.00    +0.000 N 
ATOM      2  C   UNL     1       3.231   4.361  19.397  0.00  0.00    +0.000 A 
ATOM      3  C   UNL     1       3.665   3.028  19.502  0.00  0.00    +0.000 A 
ATOM      4  C   UNL     1       3.240   2.275  20.596  0.00  0.00    +0.000 A 
ATOM      5  C   UNL     1       2.437   2.841  21.578  0.00  0.00    +0.000 A 
ATOM      6  C   UNL     1       2.042   4.180  21.487  0.00  0.00    +0.000 A 
ATOM      7  C   UNL     1       2.437   4.960  20.375  0.00  0.00    +0.000 A 
ATOM      8  C   UNL     1       2.203   6.312  19.975  0.00  0.00    +0.000 A 
ATOM      9  C   UNL     1       1.498   7.391  20.550  0.00  0.00    +0.000 A 
ATOM     10  C   UNL     1       1.445   8.631  19.896  0.00  0.00    +0.000 A 
ATOM     11  C   UNL     1       2.080   8.810  18.670  0.00  0.00    +0.000 A 
ATOM     12  C   UNL     1       2.759   7.743  18.069  0.00  0.00    +0.000 A 
ATOM     13  C   UNL     1       2.825   6.506  18.739  0.00  0.00    +0.000 A 
ENDROOT
BRANCH   1  14
ATOM     14  C   UNL     1       4.016   4.998  17.107  0.00  0.00    +0.000 C 
BRANCH  14  15
ATOM     15  C   UNL     1       5.545   4.927  17.163  0.00  0.00    +0.000 C 
BRANCH  15  16
ATOM     16  C   UNL     1       6.217   5.740  16.055  0.00  0.00    +0.000 C 
BRANCH  16  17
ATOM     17  C   UNL     1       7.219   4.886  15.295  0.00  0.00    +0.000 C 
BRANCH  17  18
ATOM     18  C   UNL     1       6.864   4.823  13.813  0.00  0.00    +0.000 C 
BRANCH  18  19
ATOM     19  C   UNL     1       5.813   3.748  13.557  0.00  0.00    +0.000 C 
BRANCH  19  21
ATOM     20  C   UNL     1       4.461   3.164  11.524  0.00  0.00    +0.000 C 
ATOM     21  C   UNL     1       5.860   3.275  12.107  0.00  0.00    +0.000 C 
ENDBRANCH  19  21
ENDBRANCH  18  19
ENDBRANCH  17  18
ENDBRANCH  16  17
ENDBRANCH  15  16
ENDBRANCH  14  15
ENDBRANCH   1  14
BRANCH  11  22
ATOM     22  O   UNL     1       2.055   9.968  17.932  0.00  0.00    +0.000 OA
BRANCH  22  23
ATOM     23  C   UNL     1       1.183  10.993  18.419  0.00  0.00    +0.000 C 
BRANCH  23  24
ATOM     24  C   UNL     1       1.973  12.284  18.585  0.00  0.00    +0.000 C 
ATOM     25  O   UNL     1       2.201  12.810  19.666  0.00  0.00    +0.000 OA
BRANCH  24  26
ATOM     26  O   UNL     1       2.397  12.816  17.413  0.00  0.00    +0.000 OA
ATOM     27  H   UNL     1       2.179  13.774  17.390  0.00  0.00    +0.000 HD
ENDBRANCH  24  26
ENDBRANCH  23  24
ENDBRANCH  22  23
ENDBRANCH  11  22
TORSDOF 11
ENDMDL
MODEL 7
REMARK VINA RESULT:      -6.9      3.743      7.249
REMARK  Name = 
REMARK  12 active torsions:
REMARK  status: ('A' for Active; 'I' for Inactive)
REMARK    1  A    between atoms: C_1  and  C_2
REMARK    2  A    between atoms: C_2  and  C_3
REMARK    3  A    between atoms: C_3  and  C_4
REMARK    4  A    between atoms: C_4  and  C_5
REMARK    5  A    between atoms: C_5  and  C_6
REMARK    6  A    between atoms: C_6  and  C_7
REMARK    7  A    between atoms: C_7  and  C_8
REMARK    8  A    between atoms: C_8  and  N_9
REMARK    9  A    between atoms: C_19  and  O_20
REMARK   10  A    between atoms: O_20  and  C_21
REMARK   11  A    between atoms: C_21  and  C_22
REMARK   12  A    between atoms: C_22  and  O_24
REMARK                            x       y       z     vdW  Elec       q    Type
REMARK                         _______ _______ _______ _____ _____    ______ ____
ROOT
ATOM      1  N   UNL     1       3.096   6.000  18.340  0.00  0.00    +0.000 N 
ATOM      2  C   UNL     1       2.406   5.041  19.060  0.00  0.00    +0.000 A 
ATOM      3  C   UNL     1       1.439   5.164  20.073  0.00  0.00    +0.000 A 
ATOM      4  C   UNL     1       0.990   4.005  20.707  0.00  0.00    +0.000 A 
ATOM      5  C   UNL     1       1.461   2.758  20.322  0.00  0.00    +0.000 A 
ATOM      6  C   UNL     1       2.395   2.640  19.285  0.00  0.00    +0.000 A 
ATOM      7  C   UNL     1       2.886   3.800  18.642  0.00  0.00    +0.000 A 
ATOM      8  C   UNL     1       3.827   4.031  17.591  0.00  0.00    +0.000 A 
ATOM      9  C   UNL     1       4.614   3.182  16.783  0.00  0.00    +0.000 A 
ATOM     10  C   UNL     1       5.469   3.724  15.810  0.00  0.00    +0.000 A 
ATOM     11  C   UNL     1       5.557   5.103  15.637  0.00  0.00    +0.000 A 
ATOM     12  C   UNL     1       4.807   5.962  16.449  0.00  0.00    +0.000 A 
ATOM     13  C   UNL     1       3.936   5.412  17.411  0.00  0.00    +0.000 A 
ENDROOT
BRANCH   1  14
ATOM     14  C   UNL     1       3.022   7.427  18.619  0.00  0.00    +0.000 C 
BRANCH  14  15
ATOM     15  C   UNL     1       2.095   8.185  17.663  0.00  0.00    +0.000 C 
BRANCH  15  16
ATOM     16  C   UNL     1       1.720   9.575  18.180  0.00  0.00    +0.000 C 
BRANCH  16  17
ATOM     17  C   UNL     1       0.212   9.768  18.153  0.00  0.00    +0.000 C 
BRANCH  17  18
ATOM     18  C   UNL     1      -0.293  10.281  19.497  0.00  0.00    +0.000 C 
BRANCH  18  19
ATOM     19  C   UNL     1       0.595   9.782  20.632  0.00  0.00    +0.000 C 
BRANCH  19  21
ATOM     20  C   UNL     1      -0.015   9.404  23.037  0.00  0.00    +0.000 C 
ATOM     21  C   UNL     1      -0.199   8.921  21.608  0.00  0.00    +0.000 C 
ENDBRANCH  19  21
ENDBRANCH  18  19
ENDBRANCH  17  18
ENDBRANCH  16  17
ENDBRANCH  15  16
ENDBRANCH  14  15
ENDBRANCH   1  14
BRANCH  11  22
ATOM     22  O   UNL     1       6.389   5.732  14.744  0.00  0.00    +0.000 OA
BRANCH  22  23
ATOM     23  C   UNL     1       7.506   4.961  14.291  0.00  0.00    +0.000 C 
BRANCH  23  24
ATOM     24  C   UNL     1       7.624   5.092  12.778  0.00  0.00    +0.000 C 
ATOM     25  O   UNL     1       7.207   4.259  11.986  0.00  0.00    +0.000 OA
BRANCH  24  26
ATOM     26  O   UNL     1       8.253   6.225  12.380  0.00  0.00    +0.000 OA
ATOM     27  H   UNL     1       8.234   6.282  11.399  0.00  0.00    +0.000 HD
ENDBRANCH  24  26
ENDBRANCH  23  24
ENDBRANCH  22  23
ENDBRANCH  11  22
TORSDOF 11
ENDMDL
MODEL 8
REMARK VINA RESULT:      -6.8      4.030      6.655
REMARK  Name = 
REMARK  12 active torsions:
REMARK  status: ('A' for Active; 'I' for Inactive)
REMARK    1  A    between atoms: C_1  and  C_2
REMARK    2  A    between atoms: C_2  and  C_3
REMARK    3  A    between atoms: C_3  and  C_4
REMARK    4  A    between atoms: C_4  and  C_5
REMARK    5  A    between atoms: C_5  and  C_6
REMARK    6  A    between atoms: C_6  and  C_7
REMARK    7  A    between atoms: C_7  and  C_8
REMARK    8  A    between atoms: C_8  and  N_9
REMARK    9  A    between atoms: C_19  and  O_20
REMARK   10  A    between atoms: O_20  and  C_21
REMARK   11  A    between atoms: C_21  and  C_22
REMARK   12  A    between atoms: C_22  and  O_24
REMARK                            x       y       z     vdW  Elec       q    Type
REMARK                         _______ _______ _______ _____ _____    ______ ____
ROOT
ATOM      1  N   UNL     1       6.197   5.291  17.496  0.00  0.00    +0.000 N 
ATOM      2  C   UNL     1       6.401   4.912  16.180  0.00  0.00    +0.000 A 
ATOM      3  C   UNL     1       7.523   5.045  15.343  0.00  0.00    +0.000 A 
ATOM      4  C   UNL     1       7.404   4.665  14.006  0.00  0.00    +0.000 A 
ATOM      5  C   UNL     1       6.215   4.135  13.523  0.00  0.00    +0.000 A 
ATOM      6  C   UNL     1       5.114   3.969  14.372  0.00  0.00    +0.000 A 
ATOM      7  C   UNL     1       5.200   4.369  15.726  0.00  0.00    +0.000 A 
ATOM      8  C   UNL     1       4.287   4.354  16.826  0.00  0.00    +0.000 A 
ATOM      9  C   UNL     1       2.953   3.919  16.981  0.00  0.00    +0.000 A 
ATOM     10  C   UNL     1       2.307   4.044  18.221  0.00  0.00    +0.000 A 
ATOM     11  C   UNL     1       2.970   4.606  19.309  0.00  0.00    +0.000 A 
ATOM     12  C   UNL     1       4.284   5.072  19.166  0.00  0.00    +0.000 A 
ATOM     13  C   UNL     1       4.933   4.925  17.925  0.00  0.00    +0.000 A 
ENDROOT
BRANCH   1  14
ATOM     14  C   UNL     1       7.152   6.072  18.267  0.00  0.00    +0.000 C 
BRANCH  14  15
ATOM     15  C   UNL     1       7.334   7.499  17.741  0.00  0.00    +0.000 C 
BRANCH  15  16
ATOM     16  C   UNL     1       8.564   8.195  18.327  0.00  0.00    +0.000 C 
BRANCH  16  17
ATOM     17  C   UNL     1       8.457   9.703  18.163  0.00  0.00    +0.000 C 
BRANCH  17  18
ATOM     18  C   UNL     1       9.112  10.423  19.337  0.00  0.00    +0.000 C 
BRANCH  18  19
ATOM     19  C   UNL     1      10.418  11.081  18.904  0.00  0.00    +0.000 C 
BRANCH  19  21
ATOM     20  C   UNL     1      10.252  13.087  17.403  0.00  0.00    +0.000 C 
ATOM     21  C   UNL     1      10.269  12.598  18.842  0.00  0.00    +0.000 C 
ENDBRANCH  19  21
ENDBRANCH  18  19
ENDBRANCH  17  18
ENDBRANCH  16  17
ENDBRANCH  15  16
ENDBRANCH  14  15
ENDBRANCH   1  14
BRANCH  11  22
ATOM     22  O   UNL     1       2.417   4.810  20.549  0.00  0.00    +0.000 OA
BRANCH  22  23
ATOM     23  C   UNL     1       1.312   3.963  20.879  0.00  0.00    +0.000 C 
BRANCH  23  24
ATOM     24  C   UNL     1       1.792   2.850  21.801  0.00  0.00    +0.000 C 
ATOM     25  O   UNL     1       2.960   2.503  21.900  0.00  0.00    +0.000 OA
BRANCH  24  26
ATOM     26  O   UNL     1       0.794   2.260  22.503  0.00  0.00    +0.000 OA
ATOM     27  H   UNL     1       0.869   2.508  23.451  0.00  0.00    +0.000 HD
ENDBRANCH  24  26
ENDBRANCH  23  24
ENDBRANCH  22  23
ENDBRANCH  11  22
TORSDOF 11
ENDMDL
MODEL 9
REMARK VINA RESULT:      -6.8      3.988      6.527
REMARK  Name = 
REMARK  12 active torsions:
REMARK  status: ('A' for Active; 'I' for Inactive)
REMARK    1  A    between atoms: C_1  and  C_2
REMARK    2  A    between atoms: C_2  and  C_3
REMARK    3  A    between atoms: C_3  and  C_4
REMARK    4  A    between atoms: C_4  and  C_5
REMARK    5  A    between atoms: C_5  and  C_6
REMARK    6  A    between atoms: C_6  and  C_7
REMARK    7  A    between atoms: C_7  and  C_8
REMARK    8  A    between atoms: C_8  and  N_9
REMARK    9  A    between atoms: C_19  and  O_20
REMARK   10  A    between atoms: O_20  and  C_21
REMARK   11  A    between atoms: C_21  and  C_22
REMARK   12  A    between atoms: C_22  and  O_24
REMARK                            x       y       z     vdW  Elec       q    Type
REMARK                         _______ _______ _______ _____ _____    ______ ____
ROOT
ATOM      1  N   UNL     1       5.438   6.042  16.883  0.00  0.00    +0.000 N 
ATOM      2  C   UNL     1       5.968   5.398  15.779  0.00  0.00    +0.000 A 
ATOM      3  C   UNL     1       7.060   5.722  14.955  0.00  0.00    +0.000 A 
ATOM      4  C   UNL     1       7.300   4.935  13.829  0.00  0.00    +0.000 A 
ATOM      5  C   UNL     1       6.499   3.835  13.549  0.00  0.00    +0.000 A 
ATOM      6  C   UNL     1       5.438   3.495  14.396  0.00  0.00    +0.000 A 
ATOM      7  C   UNL     1       5.158   4.290  15.531  0.00  0.00    +0.000 A 
ATOM      8  C   UNL     1       4.170   4.236  16.563  0.00  0.00    +0.000 A 
ATOM      9  C   UNL     1       3.106   3.354  16.850  0.00  0.00    +0.000 A 
ATOM     10  C   UNL     1       2.285   3.574  17.967  0.00  0.00    +0.000 A 
ATOM     11  C   UNL     1       2.505   4.668  18.800  0.00  0.00    +0.000 A 
ATOM     12  C   UNL     1       3.537   5.571  18.515  0.00  0.00    +0.000 A 
ATOM     13  C   UNL     1       4.369   5.334  17.403  0.00  0.00    +0.000 A 
ENDROOT
BRANCH   1  14
ATOM     14  C   UNL     1       5.885   7.349  17.346  0.00  0.00    +0.000 C 
BRANCH  14  15
ATOM     15  C   UNL     1       7.320   7.344  17.880  0.00  0.00    +0.000 C 
BRANCH  15  16
ATOM     16  C   UNL     1       8.067   8.645  17.582  0.00  0.00    +0.000 C 
BRANCH  16  17
ATOM     17  C   UNL     1       8.892   9.079  18.783  0.00  0.00    +0.000 C 
BRANCH  17  18
ATOM     18  C   UNL     1       8.925  10.599  18.897  0.00  0.00    +0.000 C 
BRANCH  18  19
ATOM     19  C   UNL     1      10.225  11.153  18.323  0.00  0.00    +0.000 C 
BRANCH  19  21
ATOM     20  C   UNL     1      10.479  11.903  20.706  0.00  0.00    +0.000 C 
ATOM     21  C   UNL     1      11.209  11.497  19.437  0.00  0.00    +0.000 C 
ENDBRANCH  19  21
ENDBRANCH  18  19
ENDBRANCH  17  18
ENDBRANCH  16  17
ENDBRANCH  15  16
ENDBRANCH  14  15
ENDBRANCH   1  14
BRANCH  11  22
ATOM     22  O   UNL     1       1.738   4.994  19.891  0.00  0.00    +0.000 OA
BRANCH  22  23
ATOM     23  C   UNL     1       2.307   4.674  21.165  0.00  0.00    +0.000 C 
BRANCH  23  24
ATOM     24  C   UNL     1       1.969   3.231  21.516  0.00  0.00    +0.000 C 
ATOM     25  O   UNL     1       2.742   2.465  22.075  0.00  0.00    +0.000 OA
BRANCH  24  26
ATOM     26  O   UNL     1       0.721   2.859  21.138  0.00  0.00    +0.000 OA
ATOM     27  H   UNL     1       0.688   2.771  20.160  0.00  0.00    +0.000 HD
ENDBRANCH  24  26
ENDBRANCH  23  24
ENDBRANCH  22  23
ENDBRANCH  11  22
TORSDOF 11
ENDMDL
