MODEL 1
REMARK VINA RESULT:      -8.8      0.000      0.000
REMARK  Name = 
REMARK  10 active torsions:
REMARK  status: ('A' for Active; 'I' for Inactive)
REMARK    1  A    between atoms: C_1  and  C_2
REMARK    2  A    between atoms: C_2  and  C_3
REMARK    3  A    between atoms: C_2  and  C_4
REMARK    4  A    between atoms: C_4  and  C_5
REMARK    5  A    between atoms: C_5  and  N_6
REMARK    6  A    between atoms: C_5  and  C_7
REMARK    7  A    between atoms: C_13  and  N_14
REMARK    8  A    between atoms: C_16  and  C_17
REMARK    9  A    between atoms: C_20  and  O_21
REMARK   10  A    between atoms: O_21  and  C_22
REMARK                            x       y       z     vdW  Elec       q    Type
REMARK                         _______ _______ _______ _____ _____    ______ ____
ROOT
ATOM      1  N   UNL     1      -1.130  12.681  20.565  0.00  0.00    +0.000 N 
ATOM      2  N   UNL     1      -0.883  11.354  20.507  0.00  0.00    +0.000 NA
ATOM      3  C   UNL     1       0.255  11.253  19.793  0.00  0.00    +0.000 A 
ATOM      4  C   UNL     1       0.675  12.531  19.311  0.00  0.00    +0.000 A 
ATOM      5  C   UNL     1       1.694  13.084  18.514  0.00  0.00    +0.000 A 
ATOM      6  N   UNL     1       2.680  12.355  17.864  0.00  0.00    +0.000 N 
ATOM      7  N   UNL     1       1.734  14.418  18.343  0.00  0.00    +0.000 NA
ATOM      8  C   UNL     1       0.790  15.176  18.937  0.00  0.00    +0.000 A 
ATOM      9  N   UNL     1      -0.234  14.764  19.703  0.00  0.00    +0.000 NA
ATOM     10  C   UNL     1      -0.236  13.426  19.847  0.00  0.00    +0.000 A 
ATOM     11  H   UNL     1       2.405  11.439  17.547  0.00  0.00    +0.000 HD
ATOM     12  H   UNL     1       3.144  12.935  17.177  0.00  0.00    +0.000 HD
ENDROOT
BRANCH   1  19
ATOM     13  C   UNL     1      -5.730  14.048  21.235  0.00  0.00    +0.000 C 
ATOM     14  O   UNL     1      -6.506  14.552  22.052  0.00  0.00    +0.000 OA
ATOM     15  N   UNL     1      -4.703  13.195  21.646  0.00  0.00    +0.000 N 
ATOM     16  C   UNL     1      -4.612  12.812  23.053  0.00  0.00    +0.000 C 
ATOM     17  C   UNL     1      -3.299  13.291  23.666  0.00  0.00    +0.000 C 
ATOM     18  C   UNL     1      -2.093  12.815  22.850  0.00  0.00    +0.000 C 
ATOM     19  C   UNL     1      -2.243  13.184  21.360  0.00  0.00    +0.000 C 
ATOM     20  C   UNL     1      -3.596  12.695  20.814  0.00  0.00    +0.000 C 
BRANCH  13  21
ATOM     21  C   UNL     1      -5.933  14.284  19.708  0.00  0.00    +0.000 C 
BRANCH  21  22
ATOM     22  N   UNL     1      -5.699  15.702  19.368  0.00  0.00    +0.000 NA
ATOM     23  H   UNL     1      -6.078  16.290  20.111  0.00  0.00    +0.000 HD
ATOM     24  H   UNL     1      -6.235  15.930  18.531  0.00  0.00    +0.000 HD
ENDBRANCH  21  22
BRANCH  21  25
ATOM     25  C   UNL     1      -7.350  13.846  19.249  0.00  0.00    +0.000 C 
BRANCH  25  27
ATOM     26  C   UNL     1      -6.389  12.524  17.295  0.00  0.00    +0.000 C 
ATOM     27  C   UNL     1      -7.402  12.529  18.440  0.00  0.00    +0.000 C 
ATOM     28  C   UNL     1      -7.147  11.319  19.348  0.00  0.00    +0.000 C 
ENDBRANCH  25  27
ENDBRANCH  21  25
ENDBRANCH  13  21
ENDBRANCH   1  19
BRANCH   3  29
ATOM     29  C   UNL     1       0.895   9.946  19.623  0.00  0.00    +0.000 A 
ATOM     30  C   UNL     1       1.149   9.128  20.733  0.00  0.00    +0.000 A 
ATOM     31  C   UNL     1       1.803   7.901  20.579  0.00  0.00    +0.000 A 
ATOM     32  C   UNL     1       2.202   7.468  19.313  0.00  0.00    +0.000 A 
ATOM     33  C   UNL     1       1.984   8.290  18.207  0.00  0.00    +0.000 A 
ATOM     34  C   UNL     1       1.333   9.517  18.363  0.00  0.00    +0.000 A 
BRANCH  32  35
ATOM     35  O   UNL     1       2.878   6.271  19.275  0.00  0.00    +0.000 OA
BRANCH  35  36
ATOM     36  C   UNL     1       2.186   5.082  19.319  0.00  0.00    +0.000 A 
ATOM     37  C   UNL     1       2.019   4.426  18.097  0.00  0.00    +0.000 A 
ATOM     38  C   UNL     1       1.354   3.199  18.045  0.00  0.00    +0.000 A 
ATOM     39  C   UNL     1       0.854   2.628  19.214  0.00  0.00    +0.000 A 
ATOM     40  C   UNL     1       1.040   3.269  20.439  0.00  0.00    +0.000 A 
ATOM     41  C   UNL     1       1.730   4.482  20.493  0.00  0.00    +0.000 A 
ENDBRANCH  35  36
ENDBRANCH  32  35
ENDBRANCH   3  29
TORSDOF 8
ENDMDL
MODEL 2
REMARK VINA RESULT:      -8.7      0.889      1.280
REMARK  Name = 
REMARK  10 active torsions:
REMARK  status: ('A' for Active; 'I' for Inactive)
REMARK    1  A    between atoms: C_1  and  C_2
REMARK    2  A    between atoms: C_2  and  C_3
REMARK    3  A    between atoms: C_2  and  C_4
REMARK    4  A    between atoms: C_4  and  C_5
REMARK    5  A    between atoms: C_5  and  N_6
REMARK    6  A    between atoms: C_5  and  C_7
REMARK    7  A    between atoms: C_13  and  N_14
REMARK    8  A    between atoms: C_16  and  C_17
REMARK    9  A    between atoms: C_20  and  O_21
REMARK   10  A    between atoms: O_21  and  C_22
REMARK                            x       y       z     vdW  Elec       q    Type
REMARK                         _______ _______ _______ _____ _____    ______ ____
ROOT
ATOM      1  N   UNL     1      -1.121  12.739  20.734  0.00  0.00    +0.000 N 
ATOM      2  N   UNL     1      -0.856  11.414  20.719  0.00  0.00    +0.000 NA
ATOM      3  C   UNL     1       0.238  11.298  19.941  0.00  0.00    +0.000 A 
ATOM      4  C   UNL     1       0.606  12.559  19.379  0.00  0.00    +0.000 A 
ATOM      5  C   UNL     1       1.566  13.090  18.497  0.00  0.00    +0.000 A 
ATOM      6  N   UNL     1       2.523  12.347  17.820  0.00  0.00    +0.000 N 
ATOM      7  N   UNL     1       1.573  14.415  18.267  0.00  0.00    +0.000 NA
ATOM      8  C   UNL     1       0.656  15.186  18.884  0.00  0.00    +0.000 A 
ATOM      9  N   UNL     1      -0.313  14.794  19.729  0.00  0.00    +0.000 NA
ATOM     10  C   UNL     1      -0.285  13.464  19.930  0.00  0.00    +0.000 A 
ATOM     11  H   UNL     1       2.244  11.413  17.560  0.00  0.00    +0.000 HD
ATOM     12  H   UNL     1       2.935  12.902  17.081  0.00  0.00    +0.000 HD
ENDROOT
BRANCH   1  19
ATOM     13  C   UNL     1      -5.754  13.263  22.050  0.00  0.00    +0.000 C 
ATOM     14  O   UNL     1      -6.503  13.865  22.826  0.00  0.00    +0.000 OA
ATOM     15  N   UNL     1      -4.475  12.865  22.446  0.00  0.00    +0.000 N 
ATOM     16  C   UNL     1      -4.058  13.073  23.831  0.00  0.00    +0.000 C 
ATOM     17  C   UNL     1      -2.857  14.013  23.905  0.00  0.00    +0.000 C 
ATOM     18  C   UNL     1      -1.710  13.526  23.014  0.00  0.00    +0.000 C 
ATOM     19  C   UNL     1      -2.191  13.261  21.573  0.00  0.00    +0.000 C 
ATOM     20  C   UNL     1      -3.417  12.330  21.573  0.00  0.00    +0.000 C 
BRANCH  13  21
ATOM     21  C   UNL     1      -6.254  12.853  20.633  0.00  0.00    +0.000 C 
BRANCH  21  22
ATOM     22  N   UNL     1      -7.239  13.831  20.128  0.00  0.00    +0.000 NA
ATOM     23  H   UNL     1      -7.758  13.413  19.355  0.00  0.00    +0.000 HD
ATOM     24  H   UNL     1      -6.738  14.626  19.733  0.00  0.00    +0.000 HD
ENDBRANCH  21  22
BRANCH  21  25
ATOM     25  C   UNL     1      -6.865  11.426  20.636  0.00  0.00    +0.000 C 
BRANCH  25  27
ATOM     26  C   UNL     1      -5.641  11.013  18.440  0.00  0.00    +0.000 C 
ATOM     27  C   UNL     1      -6.897  10.720  19.260  0.00  0.00    +0.000 C 
ATOM     28  C   UNL     1      -7.049   9.203  19.428  0.00  0.00    +0.000 C 
ENDBRANCH  25  27
ENDBRANCH  21  25
ENDBRANCH  13  21
ENDBRANCH   1  19
BRANCH   3  29
ATOM     29  C   UNL     1       0.888   9.993  19.788  0.00  0.00    +0.000 A 
ATOM     30  C   UNL     1       1.120   9.178  20.906  0.00  0.00    +0.000 A 
ATOM     31  C   UNL     1       1.783   7.955  20.769  0.00  0.00    +0.000 A 
ATOM     32  C   UNL     1       2.214   7.521  19.514  0.00  0.00    +0.000 A 
ATOM     33  C   UNL     1       2.017   8.339  18.402  0.00  0.00    +0.000 A 
ATOM     34  C   UNL     1       1.357   9.564  18.539  0.00  0.00    +0.000 A 
BRANCH  32  35
ATOM     35  O   UNL     1       2.896   6.327  19.494  0.00  0.00    +0.000 OA
BRANCH  35  36
ATOM     36  C   UNL     1       2.213   5.140  19.363  0.00  0.00    +0.000 A 
ATOM     37  C   UNL     1       1.770   4.553  20.551  0.00  0.00    +0.000 A 
ATOM     38  C   UNL     1       1.043   3.361  20.515  0.00  0.00    +0.000 A 
ATOM     39  C   UNL     1       0.760   2.754  19.293  0.00  0.00    +0.000 A 
ATOM     40  C   UNL     1       1.179   3.350  18.104  0.00  0.00    +0.000 A 
ATOM     41  C   UNL     1       1.882   4.556  18.139  0.00  0.00    +0.000 A 
ENDBRANCH  35  36
ENDBRANCH  32  35
ENDBRANCH   3  29
TORSDOF 8
ENDMDL
MODEL 3
REMARK VINA RESULT:      -8.5      0.742      1.262
REMARK  Name = 
REMARK  10 active torsions:
REMARK  status: ('A' for Active; 'I' for Inactive)
REMARK    1  A    between atoms: C_1  and  C_2
REMARK    2  A    between atoms: C_2  and  C_3
REMARK    3  A    between atoms: C_2  and  C_4
REMARK    4  A    between atoms: C_4  and  C_5
REMARK    5  A    between atoms: C_5  and  N_6
REMARK    6  A    between atoms: C_5  and  C_7
REMARK    7  A    between atoms: C_13  and  N_14
REMARK    8  A    between atoms: C_16  and  C_17
REMARK    9  A    between atoms: C_20  and  O_21
REMARK   10  A    between atoms: O_21  and  C_22
REMARK                            x       y       z     vdW  Elec       q    Type
REMARK                         _______ _______ _______ _____ _____    ______ ____
ROOT
ATOM      1  N   UNL     1      -0.749  12.746  20.611  0.00  0.00    +0.000 N 
ATOM      2  N   UNL     1      -0.546  11.413  20.525  0.00  0.00    +0.000 NA
ATOM      3  C   UNL     1       0.536  11.288  19.732  0.00  0.00    +0.000 A 
ATOM      4  C   UNL     1       0.958  12.558  19.232  0.00  0.00    +0.000 A 
ATOM      5  C   UNL     1       1.936  13.091  18.371  0.00  0.00    +0.000 A 
ATOM      6  N   UNL     1       2.852  12.341  17.646  0.00  0.00    +0.000 N 
ATOM      7  N   UNL     1       2.002  14.425  18.209  0.00  0.00    +0.000 NA
ATOM      8  C   UNL     1       1.125  15.202  18.874  0.00  0.00    +0.000 A 
ATOM      9  N   UNL     1       0.145  14.812  19.707  0.00  0.00    +0.000 NA
ATOM     10  C   UNL     1       0.114  13.473  19.839  0.00  0.00    +0.000 A 
ATOM     11  H   UNL     1       2.529  11.436  17.341  0.00  0.00    +0.000 HD
ATOM     12  H   UNL     1       3.284  12.915  16.934  0.00  0.00    +0.000 HD
ENDROOT
BRANCH   1  19
ATOM     13  C   UNL     1      -5.338  13.742  21.805  0.00  0.00    +0.000 C 
ATOM     14  O   UNL     1      -6.043  14.307  22.646  0.00  0.00    +0.000 OA
ATOM     15  N   UNL     1      -4.160  13.087  22.174  0.00  0.00    +0.000 N 
ATOM     16  C   UNL     1      -3.816  12.980  23.590  0.00  0.00    +0.000 C 
ATOM     17  C   UNL     1      -2.499  13.694  23.887  0.00  0.00    +0.000 C 
ATOM     18  C   UNL     1      -1.376  13.200  22.971  0.00  0.00    +0.000 C 
ATOM     19  C   UNL     1      -1.788  13.272  21.487  0.00  0.00    +0.000 C 
ATOM     20  C   UNL     1      -3.133  12.557  21.263  0.00  0.00    +0.000 C 
BRANCH  13  21
ATOM     21  C   UNL     1      -5.791  13.672  20.316  0.00  0.00    +0.000 C 
BRANCH  21  22
ATOM     22  N   UNL     1      -6.564  14.877  19.952  0.00  0.00    +0.000 NA
ATOM     23  H   UNL     1      -7.104  15.184  20.762  0.00  0.00    +0.000 HD
ATOM     24  H   UNL     1      -7.247  14.624  19.239  0.00  0.00    +0.000 HD
ENDBRANCH  21  22
BRANCH  21  25
ATOM     25  C   UNL     1      -6.626  12.393  20.037  0.00  0.00    +0.000 C 
BRANCH  25  27
ATOM     26  C   UNL     1      -6.871  10.166  18.823  0.00  0.00    +0.000 C 
ATOM     27  C   UNL     1      -5.982  11.389  19.051  0.00  0.00    +0.000 C 
ATOM     28  C   UNL     1      -5.688  12.059  17.703  0.00  0.00    +0.000 C 
ENDBRANCH  25  27
ENDBRANCH  21  25
ENDBRANCH  13  21
ENDBRANCH   1  19
BRANCH   3  29
ATOM     29  C   UNL     1       1.125   9.964  19.505  0.00  0.00    +0.000 A 
ATOM     30  C   UNL     1       1.463   9.548  18.210  0.00  0.00    +0.000 A 
ATOM     31  C   UNL     1       1.981   8.269  17.985  0.00  0.00    +0.000 A 
ATOM     32  C   UNL     1       2.180   7.391  19.052  0.00  0.00    +0.000 A 
ATOM     33  C   UNL     1       1.816   7.784  20.340  0.00  0.00    +0.000 A 
ATOM     34  C   UNL     1       1.296   9.062  20.563  0.00  0.00    +0.000 A 
BRANCH  32  35
ATOM     35  O   UNL     1       2.650   6.141  18.720  0.00  0.00    +0.000 OA
BRANCH  35  36
ATOM     36  C   UNL     1       2.178   5.026  19.373  0.00  0.00    +0.000 A 
ATOM     37  C   UNL     1       1.496   4.097  18.584  0.00  0.00    +0.000 A 
ATOM     38  C   UNL     1       1.004   2.920  19.153  0.00  0.00    +0.000 A 
ATOM     39  C   UNL     1       1.191   2.673  20.512  0.00  0.00    +0.000 A 
ATOM     40  C   UNL     1       1.893   3.587  21.297  0.00  0.00    +0.000 A 
ATOM     41  C   UNL     1       2.409   4.750  20.722  0.00  0.00    +0.000 A 
ENDBRANCH  35  36
ENDBRANCH  32  35
ENDBRANCH   3  29
TORSDOF 8
ENDMDL
MODEL 4
REMARK VINA RESULT:      -8.3      1.655      2.345
REMARK  Name = 
REMARK  10 active torsions:
REMARK  status: ('A' for Active; 'I' for Inactive)
REMARK    1  A    between atoms: C_1  and  C_2
REMARK    2  A    between atoms: C_2  and  C_3
REMARK    3  A    between atoms: C_2  and  C_4
REMARK    4  A    between atoms: C_4  and  C_5
REMARK    5  A    between atoms: C_5  and  N_6
REMARK    6  A    between atoms: C_5  and  C_7
REMARK    7  A    between atoms: C_13  and  N_14
REMARK    8  A    between atoms: C_16  and  C_17
REMARK    9  A    between atoms: C_20  and  O_21
REMARK   10  A    between atoms: O_21  and  C_22
REMARK                            x       y       z     vdW  Elec       q    Type
REMARK                         _______ _______ _______ _____ _____    ______ ____
ROOT
ATOM      1  N   UNL     1      -0.672  12.575  20.504  0.00  0.00    +0.000 N 
ATOM      2  N   UNL     1      -0.464  11.248  20.359  0.00  0.00    +0.000 NA
ATOM      3  C   UNL     1       0.630  11.162  19.577  0.00  0.00    +0.000 A 
ATOM      4  C   UNL     1       1.056  12.455  19.143  0.00  0.00    +0.000 A 
ATOM      5  C   UNL     1       2.043  13.030  18.321  0.00  0.00    +0.000 A 
ATOM      6  N   UNL     1       2.973  12.316  17.576  0.00  0.00    +0.000 N 
ATOM      7  N   UNL     1       2.108  14.369  18.222  0.00  0.00    +0.000 NA
ATOM      8  C   UNL     1       1.219  15.114  18.910  0.00  0.00    +0.000 A 
ATOM      9  N   UNL     1       0.229  14.683  19.709  0.00  0.00    +0.000 NA
ATOM     10  C   UNL     1       0.199  13.339  19.778  0.00  0.00    +0.000 A 
ATOM     11  H   UNL     1       2.657  11.425  17.225  0.00  0.00    +0.000 HD
ATOM     12  H   UNL     1       3.413  12.924  16.898  0.00  0.00    +0.000 HD
ENDROOT
BRANCH   1  19
ATOM     13  C   UNL     1      -5.277  13.543  21.658  0.00  0.00    +0.000 C 
ATOM     14  O   UNL     1      -5.996  14.063  22.516  0.00  0.00    +0.000 OA
ATOM     15  N   UNL     1      -4.114  12.855  22.011  0.00  0.00    +0.000 N 
ATOM     16  C   UNL     1      -3.801  12.660  23.426  0.00  0.00    +0.000 C 
ATOM     17  C   UNL     1      -2.485  13.341  23.793  0.00  0.00    +0.000 C 
ATOM     18  C   UNL     1      -1.346  12.892  22.873  0.00  0.00    +0.000 C 
ATOM     19  C   UNL     1      -1.726  13.058  21.387  0.00  0.00    +0.000 C 
ATOM     20  C   UNL     1      -3.071  12.371  21.092  0.00  0.00    +0.000 C 
BRANCH  13  21
ATOM     21  C   UNL     1      -5.699  13.567  20.158  0.00  0.00    +0.000 C 
BRANCH  21  22
ATOM     22  N   UNL     1      -5.446  14.899  19.570  0.00  0.00    +0.000 NA
ATOM     23  H   UNL     1      -4.925  14.785  18.700  0.00  0.00    +0.000 HD
ATOM     24  H   UNL     1      -4.834  15.421  20.196  0.00  0.00    +0.000 HD
ENDBRANCH  21  22
BRANCH  21  25
ATOM     25  C   UNL     1      -7.190  13.175  19.982  0.00  0.00    +0.000 C 
BRANCH  25  27
ATOM     26  C   UNL     1      -6.334  11.336  18.441  0.00  0.00    +0.000 C 
ATOM     27  C   UNL     1      -7.436  11.758  19.413  0.00  0.00    +0.000 C 
ATOM     28  C   UNL     1      -7.538  10.725  20.542  0.00  0.00    +0.000 C 
ENDBRANCH  25  27
ENDBRANCH  21  25
ENDBRANCH  13  21
ENDBRANCH   1  19
BRANCH   3  29
ATOM     29  C   UNL     1       1.226   9.852  19.298  0.00  0.00    +0.000 A 
ATOM     30  C   UNL     1       1.576   9.494  17.989  0.00  0.00    +0.000 A 
ATOM     31  C   UNL     1       2.101   8.227  17.714  0.00  0.00    +0.000 A 
ATOM     32  C   UNL     1       2.296   7.305  18.744  0.00  0.00    +0.000 A 
ATOM     33  C   UNL     1       1.921   7.640  20.044  0.00  0.00    +0.000 A 
ATOM     34  C   UNL     1       1.394   8.906  20.318  0.00  0.00    +0.000 A 
BRANCH  32  35
ATOM     35  O   UNL     1       2.774   6.072  18.362  0.00  0.00    +0.000 OA
BRANCH  35  36
ATOM     36  C   UNL     1       4.114   5.898  18.103  0.00  0.00    +0.000 A 
ATOM     37  C   UNL     1       4.904   5.521  19.192  0.00  0.00    +0.000 A 
ATOM     38  C   UNL     1       6.271   5.293  19.021  0.00  0.00    +0.000 A 
ATOM     39  C   UNL     1       6.850   5.444  17.762  0.00  0.00    +0.000 A 
ATOM     40  C   UNL     1       6.060   5.796  16.668  0.00  0.00    +0.000 A 
ATOM     41  C   UNL     1       4.688   5.997  16.835  0.00  0.00    +0.000 A 
ENDBRANCH  35  36
ENDBRANCH  32  35
ENDBRANCH   3  29
TORSDOF 8
ENDMDL
MODEL 5
REMARK VINA RESULT:      -8.2      1.033      1.258
REMARK  Name = 
REMARK  10 active torsions:
REMARK  status: ('A' for Active; 'I' for Inactive)
REMARK    1  A    between atoms: C_1  and  C_2
REMARK    2  A    between atoms: C_2  and  C_3
REMARK    3  A    between atoms: C_2  and  C_4
REMARK    4  A    between atoms: C_4  and  C_5
REMARK    5  A    between atoms: C_5  and  N_6
REMARK    6  A    between atoms: C_5  and  C_7
REMARK    7  A    between atoms: C_13  and  N_14
REMARK    8  A    between atoms: C_16  and  C_17
REMARK    9  A    between atoms: C_20  and  O_21
REMARK   10  A    between atoms: O_21  and  C_22
REMARK                            x       y       z     vdW  Elec       q    Type
REMARK                         _______ _______ _______ _____ _____    ______ ____
ROOT
ATOM      1  N   UNL     1      -1.310  12.862  20.463  0.00  0.00    +0.000 N 
ATOM      2  N   UNL     1      -1.044  11.539  20.403  0.00  0.00    +0.000 NA
ATOM      3  C   UNL     1       0.102  11.457  19.700  0.00  0.00    +0.000 A 
ATOM      4  C   UNL     1       0.509  12.742  19.227  0.00  0.00    +0.000 A 
ATOM      5  C   UNL     1       1.528  13.313  18.442  0.00  0.00    +0.000 A 
ATOM      6  N   UNL     1       2.532  12.601  17.799  0.00  0.00    +0.000 N 
ATOM      7  N   UNL     1       1.551  14.648  18.276  0.00  0.00    +0.000 NA
ATOM      8  C   UNL     1       0.591  15.390  18.863  0.00  0.00    +0.000 A 
ATOM      9  N   UNL     1      -0.435  14.961  19.617  0.00  0.00    +0.000 NA
ATOM     10  C   UNL     1      -0.420  13.622  19.756  0.00  0.00    +0.000 A 
ATOM     11  H   UNL     1       2.272  11.681  17.476  0.00  0.00    +0.000 HD
ATOM     12  H   UNL     1       2.994  13.190  17.119  0.00  0.00    +0.000 HD
ENDROOT
BRANCH   1  19
ATOM     13  C   UNL     1      -5.977  12.979  21.760  0.00  0.00    +0.000 C 
ATOM     14  O   UNL     1      -6.795  13.573  22.469  0.00  0.00    +0.000 OA
ATOM     15  N   UNL     1      -4.661  12.784  22.184  0.00  0.00    +0.000 N 
ATOM     16  C   UNL     1      -4.276  13.199  23.533  0.00  0.00    +0.000 C 
ATOM     17  C   UNL     1      -3.196  14.277  23.485  0.00  0.00    +0.000 C 
ATOM     18  C   UNL     1      -1.996  13.830  22.644  0.00  0.00    +0.000 C 
ATOM     19  C   UNL     1      -2.438  13.347  21.248  0.00  0.00    +0.000 C 
ATOM     20  C   UNL     1      -3.543  12.282  21.368  0.00  0.00    +0.000 C 
BRANCH  13  21
ATOM     21  C   UNL     1      -6.420  12.353  20.404  0.00  0.00    +0.000 C 
BRANCH  21  22
ATOM     22  N   UNL     1      -6.606  10.894  20.543  0.00  0.00    +0.000 NA
ATOM     23  H   UNL     1      -5.870  10.521  21.144  0.00  0.00    +0.000 HD
ATOM     24  H   UNL     1      -6.470  10.459  19.631  0.00  0.00    +0.000 HD
ENDBRANCH  21  22
BRANCH  21  25
ATOM     25  C   UNL     1      -5.399  12.661  19.276  0.00  0.00    +0.000 C 
BRANCH  25  27
ATOM     26  C   UNL     1      -6.499  13.215  17.045  0.00  0.00    +0.000 C 
ATOM     27  C   UNL     1      -5.791  12.141  17.872  0.00  0.00    +0.000 C 
ATOM     28  C   UNL     1      -4.556  11.646  17.108  0.00  0.00    +0.000 C 
ENDBRANCH  25  27
ENDBRANCH  21  25
ENDBRANCH  13  21
ENDBRANCH   1  19
BRANCH   3  29
ATOM     29  C   UNL     1       0.763  10.159  19.531  0.00  0.00    +0.000 A 
ATOM     30  C   UNL     1       1.059   9.362  20.646  0.00  0.00    +0.000 A 
ATOM     31  C   UNL     1       1.732   8.145  20.492  0.00  0.00    +0.000 A 
ATOM     32  C   UNL     1       2.108   7.703  19.223  0.00  0.00    +0.000 A 
ATOM     33  C   UNL     1       1.848   8.504  18.112  0.00  0.00    +0.000 A 
ATOM     34  C   UNL     1       1.178   9.721  18.267  0.00  0.00    +0.000 A 
BRANCH  32  35
ATOM     35  O   UNL     1       2.806   6.517  19.185  0.00  0.00    +0.000 OA
BRANCH  35  36
ATOM     36  C   UNL     1       2.146   5.319  19.335  0.00  0.00    +0.000 A 
ATOM     37  C   UNL     1       1.921   4.592  18.163  0.00  0.00    +0.000 A 
ATOM     38  C   UNL     1       1.284   3.351  18.219  0.00  0.00    +0.000 A 
ATOM     39  C   UNL     1       0.868   2.837  19.446  0.00  0.00    +0.000 A 
ATOM     40  C   UNL     1       1.112   3.549  20.620  0.00  0.00    +0.000 A 
ATOM     41  C   UNL     1       1.775   4.777  20.566  0.00  0.00    +0.000 A 
ENDBRANCH  35  36
ENDBRANCH  32  35
ENDBRANCH   3  29
TORSDOF 8
ENDMDL
MODEL 6
REMARK VINA RESULT:      -8.2      1.423      3.355
REMARK  Name = 
REMARK  10 active torsions:
REMARK  status: ('A' for Active; 'I' for Inactive)
REMARK    1  A    between atoms: C_1  and  C_2
REMARK    2  A    between atoms: C_2  and  C_3
REMARK    3  A    between atoms: C_2  and  C_4
REMARK    4  A    between atoms: C_4  and  C_5
REMARK    5  A    between atoms: C_5  and  N_6
REMARK    6  A    between atoms: C_5  and  C_7
REMARK    7  A    between atoms: C_13  and  N_14
REMARK    8  A    between atoms: C_16  and  C_17
REMARK    9  A    between atoms: C_20  and  O_21
REMARK   10  A    between atoms: O_21  and  C_22
REMARK                            x       y       z     vdW  Elec       q    Type
REMARK                         _______ _______ _______ _____ _____    ______ ____
ROOT
ATOM      1  N   UNL     1      -1.642  11.701  19.508  0.00  0.00    +0.000 N 
ATOM      2  N   UNL     1      -1.172  10.438  19.409  0.00  0.00    +0.000 NA
ATOM      3  C   UNL     1       0.125  10.586  19.074  0.00  0.00    +0.000 A 
ATOM      4  C   UNL     1       0.448  11.962  18.863  0.00  0.00    +0.000 A 
ATOM      5  C   UNL     1       1.549  12.747  18.473  0.00  0.00    +0.000 A 
ATOM      6  N   UNL     1       2.789  12.250  18.095  0.00  0.00    +0.000 N 
ATOM      7  N   UNL     1       1.414  14.086  18.444  0.00  0.00    +0.000 NA
ATOM      8  C   UNL     1       0.227  14.625  18.784  0.00  0.00    +0.000 A 
ATOM      9  N   UNL     1      -0.892  13.982  19.156  0.00  0.00    +0.000 NA
ATOM     10  C   UNL     1      -0.714  12.648  19.170  0.00  0.00    +0.000 A 
ATOM     11  H   UNL     1       2.774  11.357  17.627  0.00  0.00    +0.000 HD
ATOM     12  H   UNL     1       3.329  12.974  17.640  0.00  0.00    +0.000 HD
ENDROOT
BRANCH   1  19
ATOM     13  C   UNL     1      -4.966  13.087  22.749  0.00  0.00    +0.000 C 
ATOM     14  O   UNL     1      -6.181  13.146  22.960  0.00  0.00    +0.000 OA
ATOM     15  N   UNL     1      -4.446  13.280  21.467  0.00  0.00    +0.000 N 
ATOM     16  C   UNL     1      -5.347  13.662  20.381  0.00  0.00    +0.000 C 
ATOM     17  C   UNL     1      -5.361  12.599  19.285  0.00  0.00    +0.000 C 
ATOM     18  C   UNL     1      -3.946  12.285  18.790  0.00  0.00    +0.000 C 
ATOM     19  C   UNL     1      -3.005  11.941  19.963  0.00  0.00    +0.000 C 
ATOM     20  C   UNL     1      -3.058  13.039  21.040  0.00  0.00    +0.000 C 
BRANCH  13  21
ATOM     21  C   UNL     1      -3.971  12.881  23.930  0.00  0.00    +0.000 C 
BRANCH  21  22
ATOM     22  N   UNL     1      -4.517  11.914  24.904  0.00  0.00    +0.000 NA
ATOM     23  H   UNL     1      -5.536  11.966  24.890  0.00  0.00    +0.000 HD
ATOM     24  H   UNL     1      -4.234  12.200  25.841  0.00  0.00    +0.000 HD
ENDBRANCH  21  22
BRANCH  21  25
ATOM     25  C   UNL     1      -3.638  14.224  24.633  0.00  0.00    +0.000 C 
BRANCH  25  27
ATOM     26  C   UNL     1      -2.362  15.957  23.268  0.00  0.00    +0.000 C 
ATOM     27  C   UNL     1      -2.253  14.823  24.288  0.00  0.00    +0.000 C 
ATOM     28  C   UNL     1      -1.553  15.342  25.550  0.00  0.00    +0.000 C 
ENDBRANCH  25  27
ENDBRANCH  21  25
ENDBRANCH  13  21
ENDBRANCH   1  19
BRANCH   3  29
ATOM     29  C   UNL     1       0.996   9.410  18.992  0.00  0.00    +0.000 A 
ATOM     30  C   UNL     1       1.231   8.618  20.126  0.00  0.00    +0.000 A 
ATOM     31  C   UNL     1       2.099   7.523  20.062  0.00  0.00    +0.000 A 
ATOM     32  C   UNL     1       2.734   7.195  18.862  0.00  0.00    +0.000 A 
ATOM     33  C   UNL     1       2.532   7.996  17.738  0.00  0.00    +0.000 A 
ATOM     34  C   UNL     1       1.667   9.092  17.804  0.00  0.00    +0.000 A 
BRANCH  32  35
ATOM     35  O   UNL     1       3.602   6.129  18.917  0.00  0.00    +0.000 OA
BRANCH  35  36
ATOM     36  C   UNL     1       3.120   4.841  18.908  0.00  0.00    +0.000 A 
ATOM     37  C   UNL     1       2.847   4.298  17.650  0.00  0.00    +0.000 A 
ATOM     38  C   UNL     1       2.380   2.986  17.539  0.00  0.00    +0.000 A 
ATOM     39  C   UNL     1       2.184   2.217  18.685  0.00  0.00    +0.000 A 
ATOM     40  C   UNL     1       2.479   2.749  19.940  0.00  0.00    +0.000 A 
ATOM     41  C   UNL     1       2.971   4.051  20.049  0.00  0.00    +0.000 A 
ENDBRANCH  35  36
ENDBRANCH  32  35
ENDBRANCH   3  29
TORSDOF 8
ENDMDL
MODEL 7
REMARK VINA RESULT:      -8.2      1.299      3.380
REMARK  Name = 
REMARK  10 active torsions:
REMARK  status: ('A' for Active; 'I' for Inactive)
REMARK    1  A    between atoms: C_1  and  C_2
REMARK    2  A    between atoms: C_2  and  C_3
REMARK    3  A    between atoms: C_2  and  C_4
REMARK    4  A    between atoms: C_4  and  C_5
REMARK    5  A    between atoms: C_5  and  N_6
REMARK    6  A    between atoms: C_5  and  C_7
REMARK    7  A    between atoms: C_13  and  N_14
REMARK    8  A    between atoms: C_16  and  C_17
REMARK    9  A    between atoms: C_20  and  O_21
REMARK   10  A    between atoms: O_21  and  C_22
REMARK                            x       y       z     vdW  Elec       q    Type
REMARK                         _______ _______ _______ _____ _____    ______ ____
ROOT
ATOM      1  N   UNL     1      -1.746  11.880  19.582  0.00  0.00    +0.000 N 
ATOM      2  N   UNL     1      -1.273  10.617  19.495  0.00  0.00    +0.000 NA
ATOM      3  C   UNL     1       0.030  10.766  19.189  0.00  0.00    +0.000 A 
ATOM      4  C   UNL     1       0.357  12.142  18.983  0.00  0.00    +0.000 A 
ATOM      5  C   UNL     1       1.465  12.929  18.616  0.00  0.00    +0.000 A 
ATOM      6  N   UNL     1       2.713  12.433  18.265  0.00  0.00    +0.000 N 
ATOM      7  N   UNL     1       1.329  14.267  18.583  0.00  0.00    +0.000 NA
ATOM      8  C   UNL     1       0.134  14.805  18.896  0.00  0.00    +0.000 A 
ATOM      9  N   UNL     1      -0.993  14.161  19.245  0.00  0.00    +0.000 NA
ATOM     10  C   UNL     1      -0.813  12.827  19.264  0.00  0.00    +0.000 A 
ATOM     11  H   UNL     1       2.709  11.539  17.798  0.00  0.00    +0.000 HD
ATOM     12  H   UNL     1       3.262  13.157  17.822  0.00  0.00    +0.000 HD
ENDROOT
BRANCH   1  19
ATOM     13  C   UNL     1      -5.136  13.403  22.692  0.00  0.00    +0.000 C 
ATOM     14  O   UNL     1      -6.354  13.448  22.887  0.00  0.00    +0.000 OA
ATOM     15  N   UNL     1      -4.606  13.522  21.404  0.00  0.00    +0.000 N 
ATOM     16  C   UNL     1      -5.504  13.809  20.287  0.00  0.00    +0.000 C 
ATOM     17  C   UNL     1      -5.482  12.675  19.265  0.00  0.00    +0.000 C 
ATOM     18  C   UNL     1      -4.056  12.361  18.806  0.00  0.00    +0.000 C 
ATOM     19  C   UNL     1      -3.120  12.118  20.007  0.00  0.00    +0.000 C 
ATOM     20  C   UNL     1      -3.208  13.284  21.008  0.00  0.00    +0.000 C 
BRANCH  13  21
ATOM     21  C   UNL     1      -4.150  13.299  23.893  0.00  0.00    +0.000 C 
BRANCH  21  22
ATOM     22  N   UNL     1      -4.632  12.306  24.875  0.00  0.00    +0.000 NA
ATOM     23  H   UNL     1      -3.829  11.860  25.319  0.00  0.00    +0.000 HD
ATOM     24  H   UNL     1      -5.123  11.565  24.376  0.00  0.00    +0.000 HD
ENDBRANCH  21  22
BRANCH  21  25
ATOM     25  C   UNL     1      -3.942  14.676  24.579  0.00  0.00    +0.000 C 
BRANCH  25  27
ATOM     26  C   UNL     1      -1.480  14.342  24.014  0.00  0.00    +0.000 C 
ATOM     27  C   UNL     1      -2.587  15.362  24.283  0.00  0.00    +0.000 C 
ATOM     28  C   UNL     1      -2.704  16.309  23.082  0.00  0.00    +0.000 C 
ENDBRANCH  25  27
ENDBRANCH  21  25
ENDBRANCH  13  21
ENDBRANCH   1  19
BRANCH   3  29
ATOM     29  C   UNL     1       0.904   9.591  19.127  0.00  0.00    +0.000 A 
ATOM     30  C   UNL     1       1.474   9.191  17.909  0.00  0.00    +0.000 A 
ATOM     31  C   UNL     1       2.269   8.043  17.839  0.00  0.00    +0.000 A 
ATOM     32  C   UNL     1       2.517   7.285  18.984  0.00  0.00    +0.000 A 
ATOM     33  C   UNL     1       1.928   7.655  20.193  0.00  0.00    +0.000 A 
ATOM     34  C   UNL     1       1.131   8.802  20.262  0.00  0.00    +0.000 A 
BRANCH  32  35
ATOM     35  O   UNL     1       3.273   6.150  18.799  0.00  0.00    +0.000 OA
BRANCH  35  36
ATOM     36  C   UNL     1       2.711   4.906  18.975  0.00  0.00    +0.000 A 
ATOM     37  C   UNL     1       3.050   4.242  20.157  0.00  0.00    +0.000 A 
ATOM     38  C   UNL     1       2.506   2.987  20.436  0.00  0.00    +0.000 A 
ATOM     39  C   UNL     1       1.625   2.392  19.534  0.00  0.00    +0.000 A 
ATOM     40  C   UNL     1       1.266   3.063  18.365  0.00  0.00    +0.000 A 
ATOM     41  C   UNL     1       1.788   4.331  18.100  0.00  0.00    +0.000 A 
ENDBRANCH  35  36
ENDBRANCH  32  35
ENDBRANCH   3  29
TORSDOF 8
ENDMDL
MODEL 8
REMARK VINA RESULT:      -8.1      1.551      2.134
REMARK  Name = 
REMARK  10 active torsions:
REMARK  status: ('A' for Active; 'I' for Inactive)
REMARK    1  A    between atoms: C_1  and  C_2
REMARK    2  A    between atoms: C_2  and  C_3
REMARK    3  A    between atoms: C_2  and  C_4
REMARK    4  A    between atoms: C_4  and  C_5
REMARK    5  A    between atoms: C_5  and  N_6
REMARK    6  A    between atoms: C_5  and  C_7
REMARK    7  A    between atoms: C_13  and  N_14
REMARK    8  A    between atoms: C_16  and  C_17
REMARK    9  A    between atoms: C_20  and  O_21
REMARK   10  A    between atoms: O_21  and  C_22
REMARK                            x       y       z     vdW  Elec       q    Type
REMARK                         _______ _______ _______ _____ _____    ______ ____
ROOT
ATOM      1  N   UNL     1      -0.848  12.603  20.625  0.00  0.00    +0.000 N 
ATOM      2  N   UNL     1      -0.658  11.268  20.530  0.00  0.00    +0.000 NA
ATOM      3  C   UNL     1       0.428  11.137  19.744  0.00  0.00    +0.000 A 
ATOM      4  C   UNL     1       0.867  12.407  19.257  0.00  0.00    +0.000 A 
ATOM      5  C   UNL     1       1.855  12.935  18.406  0.00  0.00    +0.000 A 
ATOM      6  N   UNL     1       2.770  12.181  17.683  0.00  0.00    +0.000 N 
ATOM      7  N   UNL     1       1.937  14.269  18.254  0.00  0.00    +0.000 NA
ATOM      8  C   UNL     1       1.063  15.052  18.919  0.00  0.00    +0.000 A 
ATOM      9  N   UNL     1       0.073  14.666  19.741  0.00  0.00    +0.000 NA
ATOM     10  C   UNL     1       0.027  13.326  19.864  0.00  0.00    +0.000 A 
ATOM     11  H   UNL     1       2.439  11.282  17.369  0.00  0.00    +0.000 HD
ATOM     12  H   UNL     1       3.212  12.756  16.978  0.00  0.00    +0.000 HD
ENDROOT
BRANCH   1  19
ATOM     13  C   UNL     1      -5.443  13.246  22.023  0.00  0.00    +0.000 C 
ATOM     14  O   UNL     1      -6.159  13.846  22.829  0.00  0.00    +0.000 OA
ATOM     15  N   UNL     1      -4.174  12.788  22.387  0.00  0.00    +0.000 N 
ATOM     16  C   UNL     1      -3.733  12.933  23.773  0.00  0.00    +0.000 C 
ATOM     17  C   UNL     1      -2.497  13.826  23.862  0.00  0.00    +0.000 C 
ATOM     18  C   UNL     1      -1.380  13.330  22.939  0.00  0.00    +0.000 C 
ATOM     19  C   UNL     1      -1.889  13.133  21.497  0.00  0.00    +0.000 C 
ATOM     20  C   UNL     1      -3.147  12.247  21.481  0.00  0.00    +0.000 C 
BRANCH  13  21
ATOM     21  C   UNL     1      -5.975  12.904  20.599  0.00  0.00    +0.000 C 
BRANCH  21  22
ATOM     22  N   UNL     1      -6.876  13.969  20.114  0.00  0.00    +0.000 NA
ATOM     23  H   UNL     1      -7.806  13.577  19.964  0.00  0.00    +0.000 HD
ATOM     24  H   UNL     1      -6.552  14.279  19.198  0.00  0.00    +0.000 HD
ENDBRANCH  21  22
BRANCH  21  25
ATOM     25  C   UNL     1      -6.702  11.533  20.578  0.00  0.00    +0.000 C 
BRANCH  25  27
ATOM     26  C   UNL     1      -5.479  11.058  18.394  0.00  0.00    +0.000 C 
ATOM     27  C   UNL     1      -6.762  10.840  19.197  0.00  0.00    +0.000 C 
ATOM     28  C   UNL     1      -7.013   9.334  19.351  0.00  0.00    +0.000 C 
ENDBRANCH  25  27
ENDBRANCH  21  25
ENDBRANCH  13  21
ENDBRANCH   1  19
BRANCH   3  29
ATOM     29  C   UNL     1       1.005   9.810  19.513  0.00  0.00    +0.000 A 
ATOM     30  C   UNL     1       1.249   8.943  20.588  0.00  0.00    +0.000 A 
ATOM     31  C   UNL     1       1.844   7.695  20.375  0.00  0.00    +0.000 A 
ATOM     32  C   UNL     1       2.190   7.290  19.085  0.00  0.00    +0.000 A 
ATOM     33  C   UNL     1       1.982   8.158  18.013  0.00  0.00    +0.000 A 
ATOM     34  C   UNL     1       1.390   9.406  18.228  0.00  0.00    +0.000 A 
BRANCH  32  35
ATOM     35  O   UNL     1       2.811   6.065  18.988  0.00  0.00    +0.000 OA
BRANCH  35  36
ATOM     36  C   UNL     1       3.630   5.785  17.919  0.00  0.00    +0.000 A 
ATOM     37  C   UNL     1       4.468   6.822  17.501  0.00  0.00    +0.000 A 
ATOM     38  C   UNL     1       5.355   6.622  16.441  0.00  0.00    +0.000 A 
ATOM     39  C   UNL     1       5.404   5.387  15.797  0.00  0.00    +0.000 A 
ATOM     40  C   UNL     1       4.586   4.343  16.228  0.00  0.00    +0.000 A 
ATOM     41  C   UNL     1       3.719   4.535  17.305  0.00  0.00    +0.000 A 
ENDBRANCH  35  36
ENDBRANCH  32  35
ENDBRANCH   3  29
TORSDOF 8
ENDMDL
MODEL 9
REMARK VINA RESULT:      -8.1      1.346      3.360
REMARK  Name = 
REMARK  10 active torsions:
REMARK  status: ('A' for Active; 'I' for Inactive)
REMARK    1  A    between atoms: C_1  and  C_2
REMARK    2  A    between atoms: C_2  and  C_3
REMARK    3  A    between atoms: C_2  and  C_4
REMARK    4  A    between atoms: C_4  and  C_5
REMARK    5  A    between atoms: C_5  and  N_6
REMARK    6  A    between atoms: C_5  and  C_7
REMARK    7  A    between atoms: C_13  and  N_14
REMARK    8  A    between atoms: C_16  and  C_17
REMARK    9  A    between atoms: C_20  and  O_21
REMARK   10  A    between atoms: O_21  and  C_22
REMARK                            x       y       z     vdW  Elec       q    Type
REMARK                         _______ _______ _______ _____ _____    ______ ____
ROOT
ATOM      1  N   UNL     1      -1.722  11.594  19.243  0.00  0.00    +0.000 N 
ATOM      2  N   UNL     1      -1.193  10.352  19.185  0.00  0.00    +0.000 NA
ATOM      3  C   UNL     1       0.123  10.555  18.979  0.00  0.00    +0.000 A 
ATOM      4  C   UNL     1       0.408  11.945  18.806  0.00  0.00    +0.000 A 
ATOM      5  C   UNL     1       1.508  12.778  18.528  0.00  0.00    +0.000 A 
ATOM      6  N   UNL     1       2.798  12.335  18.270  0.00  0.00    +0.000 N 
ATOM      7  N   UNL     1       1.321  14.110  18.492  0.00  0.00    +0.000 NA
ATOM      8  C   UNL     1       0.085  14.598  18.717  0.00  0.00    +0.000 A 
ATOM      9  N   UNL     1      -1.038  13.906  18.976  0.00  0.00    +0.000 NA
ATOM     10  C   UNL     1      -0.806  12.580  19.002  0.00  0.00    +0.000 A 
ATOM     11  H   UNL     1       2.866  11.446  17.799  0.00  0.00    +0.000 HD
ATOM     12  H   UNL     1       3.349  13.084  17.874  0.00  0.00    +0.000 HD
ENDROOT
BRANCH   1  19
ATOM     13  C   UNL     1      -5.392  13.091  22.029  0.00  0.00    +0.000 C 
ATOM     14  O   UNL     1      -6.621  13.075  22.144  0.00  0.00    +0.000 OA
ATOM     15  N   UNL     1      -4.785  13.166  20.773  0.00  0.00    +0.000 N 
ATOM     16  C   UNL     1      -5.621  13.332  19.585  0.00  0.00    +0.000 C 
ATOM     17  C   UNL     1      -5.467  12.143  18.640  0.00  0.00    +0.000 C 
ATOM     18  C   UNL     1      -3.997  11.889  18.293  0.00  0.00    +0.000 C 
ATOM     19  C   UNL     1      -3.132  11.774  19.564  0.00  0.00    +0.000 C 
ATOM     20  C   UNL     1      -3.353  12.989  20.482  0.00  0.00    +0.000 C 
BRANCH  13  21
ATOM     21  C   UNL     1      -4.485  13.118  23.295  0.00  0.00    +0.000 C 
BRANCH  21  22
ATOM     22  N   UNL     1      -5.054  12.266  24.359  0.00  0.00    +0.000 NA
ATOM     23  H   UNL     1      -5.825  11.720  23.973  0.00  0.00    +0.000 HD
ATOM     24  H   UNL     1      -5.467  12.867  25.073  0.00  0.00    +0.000 HD
ENDBRANCH  21  22
BRANCH  21  25
ATOM     25  C   UNL     1      -4.279  14.566  23.816  0.00  0.00    +0.000 C 
BRANCH  25  27
ATOM     26  C   UNL     1      -2.623  15.112  25.674  0.00  0.00    +0.000 C 
ATOM     27  C   UNL     1      -2.819  14.938  24.167  0.00  0.00    +0.000 C 
ATOM     28  C   UNL     1      -1.843  13.874  23.649  0.00  0.00    +0.000 C 
ENDBRANCH  25  27
ENDBRANCH  21  25
ENDBRANCH  13  21
ENDBRANCH   1  19
BRANCH   3  29
ATOM     29  C   UNL     1       1.045   9.416  18.977  0.00  0.00    +0.000 A 
ATOM     30  C   UNL     1       1.707   9.039  17.800  0.00  0.00    +0.000 A 
ATOM     31  C   UNL     1       2.551   7.924  17.784  0.00  0.00    +0.000 A 
ATOM     32  C   UNL     1       2.756   7.177  18.945  0.00  0.00    +0.000 A 
ATOM     33  C   UNL     1       2.076   7.525  20.113  0.00  0.00    +0.000 A 
ATOM     34  C   UNL     1       1.231   8.638  20.127  0.00  0.00    +0.000 A 
BRANCH  32  35
ATOM     35  O   UNL     1       3.567   6.073  18.813  0.00  0.00    +0.000 OA
BRANCH  35  36
ATOM     36  C   UNL     1       3.024   4.809  18.823  0.00  0.00    +0.000 A 
ATOM     37  C   UNL     1       2.858   4.204  17.575  0.00  0.00    +0.000 A 
ATOM     38  C   UNL     1       2.341   2.910  17.487  0.00  0.00    +0.000 A 
ATOM     39  C   UNL     1       1.987   2.220  18.645  0.00  0.00    +0.000 A 
ATOM     40  C   UNL     1       2.175   2.812  19.894  0.00  0.00    +0.000 A 
ATOM     41  C   UNL     1       2.718   4.096  19.983  0.00  0.00    +0.000 A 
ENDBRANCH  35  36
ENDBRANCH  32  35
ENDBRANCH   3  29
TORSDOF 8
ENDMDL
