MODEL 1
REMARK VINA RESULT:      -7.2      0.000      0.000
REMARK  Name = 
REMARK  8 active torsions:
REMARK  status: ('A' for Active; 'I' for Inactive)
REMARK    1  A    between atoms: C_1  and  O_2
REMARK    2  A    between atoms: O_2  and  C_3
REMARK    3  A    between atoms: C_7  and  C_8
REMARK    4  A    between atoms: C_9  and  C_10
REMARK    5  A    between atoms: C_10  and  O_12
REMARK    6  A    between atoms: N_13  and  C_14
REMARK    7  A    between atoms: C_26  and  O_27
REMARK    8  A    between atoms: O_27  and  C_28
REMARK                            x       y       z     vdW  Elec       q    Type
REMARK                         _______ _______ _______ _____ _____    ______ ____
ROOT
ATOM      1  C   UNL     1      -1.562  10.720  19.320  0.00  0.00    +0.000 A 
ATOM      2  C   UNL     1      -1.694  12.125  19.261  0.00  0.00    +0.000 A 
ATOM      3  N   UNL     1      -3.048  12.121  19.013  0.00  0.00    +0.000 N 
ATOM      4  C   UNL     1      -3.108  11.492  17.816  0.00  0.00    +0.000 A 
ATOM      5  C   UNL     1      -3.991  11.789  16.792  0.00  0.00    +0.000 A 
ATOM      6  C   UNL     1      -3.791  11.105  15.634  0.00  0.00    +0.000 A 
ATOM      7  C   UNL     1      -2.792  10.130  15.532  0.00  0.00    +0.000 A 
ATOM      8  C   UNL     1      -1.955   9.770  16.651  0.00  0.00    +0.000 A 
ATOM      9  C   UNL     1      -2.083  10.507  17.892  0.00  0.00    +0.000 A 
ENDROOT
BRANCH   3  10
ATOM     10  C   UNL     1      -4.167  12.340  19.848  0.00  0.00    +0.000 A 
ATOM     11  C   UNL     1      -5.380  11.645  19.561  0.00  0.00    +0.000 A 
ATOM     12  C   UNL     1      -6.455  11.676  20.440  0.00  0.00    +0.000 A 
ATOM     13  C   UNL     1      -6.239  12.353  21.613  0.00  0.00    +0.000 A 
ATOM     14  C   UNL     1      -5.072  13.044  21.875  0.00  0.00    +0.000 A 
ATOM     15  C   UNL     1      -4.013  13.093  21.003  0.00  0.00    +0.000 A 
ATOM     16  O   UNL     1      -5.052  13.535  23.147  0.00  0.00    +0.000 OA
ATOM     17  C   UNL     1      -6.095  12.707  23.699  0.00  0.00    +0.000 C 
ATOM     18  O   UNL     1      -7.059  12.315  22.702  0.00  0.00    +0.000 OA
ENDBRANCH   3  10
BRANCH   1  23
ATOM     19  C   UNL     1       0.993   8.691  21.365  0.00  0.00    +0.000 A 
ATOM     20  C   UNL     1       0.824   9.162  22.654  0.00  0.00    +0.000 A 
ATOM     21  C   UNL     1      -0.076  10.214  22.890  0.00  0.00    +0.000 A 
ATOM     22  C   UNL     1      -0.861  10.795  21.844  0.00  0.00    +0.000 A 
ATOM     23  C   UNL     1      -0.743  10.337  20.536  0.00  0.00    +0.000 A 
ATOM     24  C   UNL     1       0.266   9.311  20.337  0.00  0.00    +0.000 A 
BRANCH  19  26
ATOM     25  C   UNL     1       2.163   7.215  19.889  0.00  0.00    +0.000 C 
ATOM     26  O   UNL     1       1.899   7.676  21.214  0.00  0.00    +0.000 OA
ENDBRANCH  19  26
ENDBRANCH   1  23
BRANCH   2  27
ATOM     27  C   UNL     1      -0.619  12.928  18.683  0.00  0.00    +0.000 C 
ATOM     28  O   UNL     1       0.458  12.496  18.308  0.00  0.00    +0.000 OA
BRANCH  27  29
ATOM     29  O   UNL     1      -0.974  14.218  18.481  0.00  0.00    +0.000 OA
ATOM     30  H   UNL     1      -0.480  14.654  17.766  0.00  0.00    +0.000 HD
ENDBRANCH  27  29
ENDBRANCH   2  27
BRANCH   7  31
ATOM     31  O   UNL     1      -2.893   9.661  14.256  0.00  0.00    +0.000 OA
ATOM     32  C   UNL     1      -3.911   9.972  13.343  0.00  0.00    +0.000 C 
ENDBRANCH   7  31
TORSDOF 6
ENDMDL
MODEL 2
REMARK VINA RESULT:      -7.2      3.086      6.984
REMARK  Name = 
REMARK  8 active torsions:
REMARK  status: ('A' for Active; 'I' for Inactive)
REMARK    1  A    between atoms: C_1  and  O_2
REMARK    2  A    between atoms: O_2  and  C_3
REMARK    3  A    between atoms: C_7  and  C_8
REMARK    4  A    between atoms: C_9  and  C_10
REMARK    5  A    between atoms: C_10  and  O_12
REMARK    6  A    between atoms: N_13  and  C_14
REMARK    7  A    between atoms: C_26  and  O_27
REMARK    8  A    between atoms: O_27  and  C_28
REMARK                            x       y       z     vdW  Elec       q    Type
REMARK                         _______ _______ _______ _____ _____    ______ ____
ROOT
ATOM      1  C   UNL     1       0.425  10.811  20.064  0.00  0.00    +0.000 A 
ATOM      2  C   UNL     1       0.055  11.793  19.118  0.00  0.00    +0.000 A 
ATOM      3  N   UNL     1       0.503  12.864  19.858  0.00  0.00    +0.000 N 
ATOM      4  C   UNL     1      -0.291  12.797  20.951  0.00  0.00    +0.000 A 
ATOM      5  C   UNL     1      -0.799  13.881  21.648  0.00  0.00    +0.000 A 
ATOM      6  C   UNL     1      -1.671  13.577  22.644  0.00  0.00    +0.000 A 
ATOM      7  C   UNL     1      -1.971  12.247  22.963  0.00  0.00    +0.000 A 
ATOM      8  C   UNL     1      -1.346  11.136  22.286  0.00  0.00    +0.000 A 
ATOM      9  C   UNL     1      -0.454  11.401  21.175  0.00  0.00    +0.000 A 
ENDROOT
BRANCH   3  10
ATOM     10  C   UNL     1       1.678  13.646  19.781  0.00  0.00    +0.000 A 
ATOM     11  C   UNL     1       2.540  13.697  20.917  0.00  0.00    +0.000 A 
ATOM     12  C   UNL     1       3.792  14.296  20.847  0.00  0.00    +0.000 A 
ATOM     13  C   UNL     1       4.155  14.761  19.609  0.00  0.00    +0.000 A 
ATOM     14  C   UNL     1       3.307  14.730  18.519  0.00  0.00    +0.000 A 
ATOM     15  C   UNL     1       2.039  14.207  18.565  0.00  0.00    +0.000 A 
ATOM     16  O   UNL     1       3.935  15.142  17.381  0.00  0.00    +0.000 OA
ATOM     17  C   UNL     1       5.294  14.994  17.836  0.00  0.00    +0.000 C 
ATOM     18  O   UNL     1       5.410  15.167  19.262  0.00  0.00    +0.000 OA
ENDBRANCH   3  10
BRANCH   1  23
ATOM     19  C   UNL     1       2.088   7.355  19.722  0.00  0.00    +0.000 A 
ATOM     20  C   UNL     1       2.680   7.402  18.473  0.00  0.00    +0.000 A 
ATOM     21  C   UNL     1       2.493   8.536  17.666  0.00  0.00    +0.000 A 
ATOM     22  C   UNL     1       1.739   9.669  18.105  0.00  0.00    +0.000 A 
ATOM     23  C   UNL     1       1.146   9.678  19.362  0.00  0.00    +0.000 A 
ATOM     24  C   UNL     1       1.298   8.445  20.117  0.00  0.00    +0.000 A 
BRANCH  19  26
ATOM     25  C   UNL     1       3.090   5.185  19.836  0.00  0.00    +0.000 C 
ATOM     26  O   UNL     1       2.304   6.211  20.443  0.00  0.00    +0.000 OA
ENDBRANCH  19  26
ENDBRANCH   1  23
BRANCH   2  27
ATOM     27  C   UNL     1      -1.164  11.617  18.333  0.00  0.00    +0.000 C 
ATOM     28  O   UNL     1      -2.001  10.748  18.517  0.00  0.00    +0.000 OA
BRANCH  27  29
ATOM     29  O   UNL     1      -1.357  12.605  17.429  0.00  0.00    +0.000 OA
ATOM     30  H   UNL     1      -2.065  12.420  16.790  0.00  0.00    +0.000 HD
ENDBRANCH  27  29
ENDBRANCH   2  27
BRANCH   7  31
ATOM     31  O   UNL     1      -2.856  12.328  23.997  0.00  0.00    +0.000 OA
ATOM     32  C   UNL     1      -4.183  12.773  23.912  0.00  0.00    +0.000 C 
ENDBRANCH   7  31
TORSDOF 6
ENDMDL
MODEL 3
REMARK VINA RESULT:      -7.1      2.303      5.704
REMARK  Name = 
REMARK  8 active torsions:
REMARK  status: ('A' for Active; 'I' for Inactive)
REMARK    1  A    between atoms: C_1  and  O_2
REMARK    2  A    between atoms: O_2  and  C_3
REMARK    3  A    between atoms: C_7  and  C_8
REMARK    4  A    between atoms: C_9  and  C_10
REMARK    5  A    between atoms: C_10  and  O_12
REMARK    6  A    between atoms: N_13  and  C_14
REMARK    7  A    between atoms: C_26  and  O_27
REMARK    8  A    between atoms: O_27  and  C_28
REMARK                            x       y       z     vdW  Elec       q    Type
REMARK                         _______ _______ _______ _____ _____    ______ ____
ROOT
ATOM      1  C   UNL     1      -1.064  12.103  18.875  0.00  0.00    +0.000 A 
ATOM      2  C   UNL     1      -0.876  11.255  19.989  0.00  0.00    +0.000 A 
ATOM      3  N   UNL     1      -0.725  12.271  20.905  0.00  0.00    +0.000 N 
ATOM      4  C   UNL     1       0.395  12.883  20.459  0.00  0.00    +0.000 A 
ATOM      5  C   UNL     1       1.379  13.446  21.253  0.00  0.00    +0.000 A 
ATOM      6  C   UNL     1       2.474  13.902  20.591  0.00  0.00    +0.000 A 
ATOM      7  C   UNL     1       2.549  13.848  19.194  0.00  0.00    +0.000 A 
ATOM      8  C   UNL     1       1.463  13.351  18.386  0.00  0.00    +0.000 A 
ATOM      9  C   UNL     1       0.295  12.796  19.041  0.00  0.00    +0.000 A 
ENDROOT
BRANCH   3  10
ATOM     10  C   UNL     1      -1.612  12.835  21.851  0.00  0.00    +0.000 A 
ATOM     11  C   UNL     1      -2.002  14.199  21.691  0.00  0.00    +0.000 A 
ATOM     12  C   UNL     1      -3.003  14.760  22.474  0.00  0.00    +0.000 A 
ATOM     13  C   UNL     1      -3.623  13.900  23.345  0.00  0.00    +0.000 A 
ATOM     14  C   UNL     1      -3.225  12.588  23.512  0.00  0.00    +0.000 A 
ATOM     15  C   UNL     1      -2.196  12.016  22.804  0.00  0.00    +0.000 A 
ATOM     16  O   UNL     1      -4.065  11.909  24.344  0.00  0.00    +0.000 OA
ATOM     17  C   UNL     1      -5.184  12.814  24.283  0.00  0.00    +0.000 C 
ATOM     18  O   UNL     1      -4.769  14.171  24.032  0.00  0.00    +0.000 OA
ENDBRANCH   3  10
BRANCH   1  23
ATOM     19  C   UNL     1      -2.923  10.768  15.778  0.00  0.00    +0.000 A 
ATOM     20  C   UNL     1      -4.256  10.857  16.137  0.00  0.00    +0.000 A 
ATOM     21  C   UNL     1      -4.593  11.283  17.432  0.00  0.00    +0.000 A 
ATOM     22  C   UNL     1      -3.603  11.670  18.389  0.00  0.00    +0.000 A 
ATOM     23  C   UNL     1      -2.252  11.622  18.066  0.00  0.00    +0.000 A 
ATOM     24  C   UNL     1      -1.959  11.089  16.746  0.00  0.00    +0.000 A 
BRANCH  19  26
ATOM     25  C   UNL     1      -3.797   9.985  13.694  0.00  0.00    +0.000 C 
ATOM     26  O   UNL     1      -2.675  10.330  14.505  0.00  0.00    +0.000 OA
ENDBRANCH  19  26
ENDBRANCH   1  23
BRANCH   2  27
ATOM     27  C   UNL     1      -0.146   9.999  19.826  0.00  0.00    +0.000 C 
ATOM     28  O   UNL     1       0.495   9.682  18.838  0.00  0.00    +0.000 OA
BRANCH  27  29
ATOM     29  O   UNL     1      -0.142   9.243  20.947  0.00  0.00    +0.000 OA
ATOM     30  H   UNL     1       0.015   9.749  21.762  0.00  0.00    +0.000 HD
ENDBRANCH  27  29
ENDBRANCH   2  27
BRANCH   7  31
ATOM     31  O   UNL     1       3.763  14.392  18.889  0.00  0.00    +0.000 OA
ATOM     32  C   UNL     1       4.337  15.516  19.500  0.00  0.00    +0.000 C 
ENDBRANCH   7  31
TORSDOF 6
ENDMDL
MODEL 4
REMARK VINA RESULT:      -7.0      3.221      6.871
REMARK  Name = 
REMARK  8 active torsions:
REMARK  status: ('A' for Active; 'I' for Inactive)
REMARK    1  A    between atoms: C_1  and  O_2
REMARK    2  A    between atoms: O_2  and  C_3
REMARK    3  A    between atoms: C_7  and  C_8
REMARK    4  A    between atoms: C_9  and  C_10
REMARK    5  A    between atoms: C_10  and  O_12
REMARK    6  A    between atoms: N_13  and  C_14
REMARK    7  A    between atoms: C_26  and  O_27
REMARK    8  A    between atoms: O_27  and  C_28
REMARK                            x       y       z     vdW  Elec       q    Type
REMARK                         _______ _______ _______ _____ _____    ______ ____
ROOT
ATOM      1  C   UNL     1       0.663  10.486  19.945  0.00  0.00    +0.000 A 
ATOM      2  C   UNL     1       0.298  11.457  18.986  0.00  0.00    +0.000 A 
ATOM      3  N   UNL     1       0.784  12.532  19.695  0.00  0.00    +0.000 N 
ATOM      4  C   UNL     1       0.010  12.506  20.804  0.00  0.00    +0.000 A 
ATOM      5  C   UNL     1      -0.459  13.615  21.488  0.00  0.00    +0.000 A 
ATOM      6  C   UNL     1      -1.318  13.351  22.507  0.00  0.00    +0.000 A 
ATOM      7  C   UNL     1      -1.642  12.036  22.858  0.00  0.00    +0.000 A 
ATOM      8  C   UNL     1      -1.056  10.897  22.193  0.00  0.00    +0.000 A 
ATOM      9  C   UNL     1      -0.180  11.118  21.061  0.00  0.00    +0.000 A 
ENDROOT
BRANCH   3  10
ATOM     10  C   UNL     1       1.975  13.285  19.579  0.00  0.00    +0.000 A 
ATOM     11  C   UNL     1       2.292  13.871  18.317  0.00  0.00    +0.000 A 
ATOM     12  C   UNL     1       3.346  14.766  18.181  0.00  0.00    +0.000 A 
ATOM     13  C   UNL     1       3.998  15.091  19.343  0.00  0.00    +0.000 A 
ATOM     14  C   UNL     1       3.701  14.503  20.557  0.00  0.00    +0.000 A 
ATOM     15  C   UNL     1       2.712  13.565  20.720  0.00  0.00    +0.000 A 
ATOM     16  O   UNL     1       4.404  15.073  21.577  0.00  0.00    +0.000 OA
ATOM     17  C   UNL     1       4.783  16.290  20.905  0.00  0.00    +0.000 C 
ATOM     18  O   UNL     1       4.895  16.109  19.480  0.00  0.00    +0.000 OA
ENDBRANCH   3  10
BRANCH   1  23
ATOM     19  C   UNL     1       2.293   7.009  19.657  0.00  0.00    +0.000 A 
ATOM     20  C   UNL     1       2.825   7.005  18.380  0.00  0.00    +0.000 A 
ATOM     21  C   UNL     1       2.604   8.108  17.539  0.00  0.00    +0.000 A 
ATOM     22  C   UNL     1       1.877   9.262  17.970  0.00  0.00    +0.000 A 
ATOM     23  C   UNL     1       1.345   9.322  19.254  0.00  0.00    +0.000 A 
ATOM     24  C   UNL     1       1.528   8.118  20.047  0.00  0.00    +0.000 A 
BRANCH  19  26
ATOM     25  C   UNL     1       1.493   4.928  20.523  0.00  0.00    +0.000 C 
ATOM     26  O   UNL     1       2.539   5.892  20.409  0.00  0.00    +0.000 OA
ENDBRANCH  19  26
ENDBRANCH   1  23
BRANCH   2  27
ATOM     27  C   UNL     1      -0.940  11.293  18.228  0.00  0.00    +0.000 C 
ATOM     28  O   UNL     1      -1.661  10.310  18.262  0.00  0.00    +0.000 OA
BRANCH  27  29
ATOM     29  O   UNL     1      -1.297  12.410  17.553  0.00  0.00    +0.000 OA
ATOM     30  H   UNL     1      -2.257  12.513  17.443  0.00  0.00    +0.000 HD
ENDBRANCH  27  29
ENDBRANCH   2  27
BRANCH   7  31
ATOM     31  O   UNL     1      -2.505  12.158  23.908  0.00  0.00    +0.000 OA
ATOM     32  C   UNL     1      -3.650  12.967  23.941  0.00  0.00    +0.000 C 
ENDBRANCH   7  31
TORSDOF 6
ENDMDL
MODEL 5
REMARK VINA RESULT:      -6.9      0.809      1.490
REMARK  Name = 
REMARK  8 active torsions:
REMARK  status: ('A' for Active; 'I' for Inactive)
REMARK    1  A    between atoms: C_1  and  O_2
REMARK    2  A    between atoms: O_2  and  C_3
REMARK    3  A    between atoms: C_7  and  C_8
REMARK    4  A    between atoms: C_9  and  C_10
REMARK    5  A    between atoms: C_10  and  O_12
REMARK    6  A    between atoms: N_13  and  C_14
REMARK    7  A    between atoms: C_26  and  O_27
REMARK    8  A    between atoms: O_27  and  C_28
REMARK                            x       y       z     vdW  Elec       q    Type
REMARK                         _______ _______ _______ _____ _____    ______ ____
ROOT
ATOM      1  C   UNL     1      -1.409  10.583  19.059  0.00  0.00    +0.000 A 
ATOM      2  C   UNL     1      -1.549  11.989  19.071  0.00  0.00    +0.000 A 
ATOM      3  N   UNL     1      -2.916  11.987  18.908  0.00  0.00    +0.000 N 
ATOM      4  C   UNL     1      -3.049  11.410  17.691  0.00  0.00    +0.000 A 
ATOM      5  C   UNL     1      -3.996  11.745  16.739  0.00  0.00    +0.000 A 
ATOM      6  C   UNL     1      -3.868  11.114  15.542  0.00  0.00    +0.000 A 
ATOM      7  C   UNL     1      -2.874  10.150  15.335  0.00  0.00    +0.000 A 
ATOM      8  C   UNL     1      -1.966   9.747  16.382  0.00  0.00    +0.000 A 
ATOM      9  C   UNL     1      -2.018  10.429  17.659  0.00  0.00    +0.000 A 
ENDROOT
BRANCH   3  10
ATOM     10  C   UNL     1      -3.980  12.163  19.821  0.00  0.00    +0.000 A 
ATOM     11  C   UNL     1      -3.684  12.648  21.130  0.00  0.00    +0.000 A 
ATOM     12  C   UNL     1      -4.695  13.012  22.011  0.00  0.00    +0.000 A 
ATOM     13  C   UNL     1      -5.969  12.939  21.510  0.00  0.00    +0.000 A 
ATOM     14  C   UNL     1      -6.251  12.447  20.250  0.00  0.00    +0.000 A 
ATOM     15  C   UNL     1      -5.285  12.015  19.375  0.00  0.00    +0.000 A 
ATOM     16  O   UNL     1      -7.572  12.583  19.940  0.00  0.00    +0.000 OA
ATOM     17  C   UNL     1      -7.913  13.566  20.937  0.00  0.00    +0.000 C 
ATOM     18  O   UNL     1      -7.078  13.461  22.108  0.00  0.00    +0.000 OA
ENDBRANCH   3  10
BRANCH   1  23
ATOM     19  C   UNL     1       1.272   8.479  20.851  0.00  0.00    +0.000 A 
ATOM     20  C   UNL     1       1.187   8.898  22.167  0.00  0.00    +0.000 A 
ATOM     21  C   UNL     1       0.305   9.937  22.503  0.00  0.00    +0.000 A 
ATOM     22  C   UNL     1      -0.545  10.558  21.534  0.00  0.00    +0.000 A 
ATOM     23  C   UNL     1      -0.513  10.154  20.204  0.00  0.00    +0.000 A 
ATOM     24  C   UNL     1       0.481   9.139  19.899  0.00  0.00    +0.000 A 
BRANCH  19  26
ATOM     25  C   UNL     1       2.440   7.154  19.238  0.00  0.00    +0.000 C 
ATOM     26  O   UNL     1       2.167   7.473  20.602  0.00  0.00    +0.000 OA
ENDBRANCH  19  26
ENDBRANCH   1  23
BRANCH   2  27
ATOM     27  C   UNL     1      -0.515  12.823  18.462  0.00  0.00    +0.000 C 
ATOM     28  O   UNL     1      -0.531  14.042  18.417  0.00  0.00    +0.000 OA
BRANCH  27  29
ATOM     29  O   UNL     1       0.557  12.112  18.043  0.00  0.00    +0.000 OA
ATOM     30  H   UNL     1       0.901  12.394  17.178  0.00  0.00    +0.000 HD
ENDBRANCH  27  29
ENDBRANCH   2  27
BRANCH   7  31
ATOM     31  O   UNL     1      -3.053   9.735  14.048  0.00  0.00    +0.000 OA
ATOM     32  C   UNL     1      -4.223   9.889  13.291  0.00  0.00    +0.000 C 
ENDBRANCH   7  31
TORSDOF 6
ENDMDL
MODEL 6
REMARK VINA RESULT:      -6.9      2.855      5.676
REMARK  Name = 
REMARK  8 active torsions:
REMARK  status: ('A' for Active; 'I' for Inactive)
REMARK    1  A    between atoms: C_1  and  O_2
REMARK    2  A    between atoms: O_2  and  C_3
REMARK    3  A    between atoms: C_7  and  C_8
REMARK    4  A    between atoms: C_9  and  C_10
REMARK    5  A    between atoms: C_10  and  O_12
REMARK    6  A    between atoms: N_13  and  C_14
REMARK    7  A    between atoms: C_26  and  O_27
REMARK    8  A    between atoms: O_27  and  C_28
REMARK                            x       y       z     vdW  Elec       q    Type
REMARK                         _______ _______ _______ _____ _____    ______ ____
ROOT
ATOM      1  C   UNL     1       1.247  10.355  19.027  0.00  0.00    +0.000 A 
ATOM      2  C   UNL     1       0.160  10.311  19.927  0.00  0.00    +0.000 A 
ATOM      3  N   UNL     1      -0.661  11.128  19.183  0.00  0.00    +0.000 N 
ATOM      4  C   UNL     1       0.031  12.290  19.182  0.00  0.00    +0.000 A 
ATOM      5  C   UNL     1      -0.520  13.559  19.236  0.00  0.00    +0.000 A 
ATOM      6  C   UNL     1       0.372  14.578  19.343  0.00  0.00    +0.000 A 
ATOM      7  C   UNL     1       1.751  14.337  19.335  0.00  0.00    +0.000 A 
ATOM      8  C   UNL     1       2.297  13.012  19.173  0.00  0.00    +0.000 A 
ATOM      9  C   UNL     1       1.393  11.880  19.115  0.00  0.00    +0.000 A 
ENDROOT
BRANCH   3  10
ATOM     10  C   UNL     1      -1.742  10.850  18.316  0.00  0.00    +0.000 A 
ATOM     11  C   UNL     1      -2.965  11.562  18.500  0.00  0.00    +0.000 A 
ATOM     12  C   UNL     1      -4.001  11.470  17.578  0.00  0.00    +0.000 A 
ATOM     13  C   UNL     1      -3.733  10.715  16.465  0.00  0.00    +0.000 A 
ATOM     14  C   UNL     1      -2.557  10.010  16.303  0.00  0.00    +0.000 A 
ATOM     15  C   UNL     1      -1.538  10.022  17.223  0.00  0.00    +0.000 A 
ATOM     16  O   UNL     1      -2.481   9.433  15.070  0.00  0.00    +0.000 OA
ATOM     17  C   UNL     1      -3.496  10.220  14.417  0.00  0.00    +0.000 C 
ATOM     18  O   UNL     1      -4.504  10.678  15.340  0.00  0.00    +0.000 OA
ENDBRANCH   3  10
BRANCH   1  23
ATOM     19  C   UNL     1       2.061   6.698  19.917  0.00  0.00    +0.000 A 
ATOM     20  C   UNL     1       2.836   6.270  18.854  0.00  0.00    +0.000 A 
ATOM     21  C   UNL     1       3.056   7.136  17.771  0.00  0.00    +0.000 A 
ATOM     22  C   UNL     1       2.538   8.469  17.743  0.00  0.00    +0.000 A 
ATOM     23  C   UNL     1       1.775   8.952  18.800  0.00  0.00    +0.000 A 
ATOM     24  C   UNL     1       1.505   7.984  19.850  0.00  0.00    +0.000 A 
BRANCH  19  26
ATOM     25  C   UNL     1       1.426   4.486  20.570  0.00  0.00    +0.000 C 
ATOM     26  O   UNL     1       1.880   5.791  20.927  0.00  0.00    +0.000 OA
ENDBRANCH  19  26
ENDBRANCH   1  23
BRANCH   2  27
ATOM     27  C   UNL     1       0.413  10.266  21.366  0.00  0.00    +0.000 C 
ATOM     28  O   UNL     1       1.452  10.608  21.908  0.00  0.00    +0.000 OA
BRANCH  27  29
ATOM     29  O   UNL     1      -0.678   9.915  22.083  0.00  0.00    +0.000 OA
ATOM     30  H   UNL     1      -0.753   8.959  22.243  0.00  0.00    +0.000 HD
ENDBRANCH  27  29
ENDBRANCH   2  27
BRANCH   7  31
ATOM     31  O   UNL     1       2.321  15.571  19.449  0.00  0.00    +0.000 OA
ATOM     32  C   UNL     1       2.172  16.632  18.544  0.00  0.00    +0.000 C 
ENDBRANCH   7  31
TORSDOF 6
ENDMDL
MODEL 7
REMARK VINA RESULT:      -6.9      2.628      5.810
REMARK  Name = 
REMARK  8 active torsions:
REMARK  status: ('A' for Active; 'I' for Inactive)
REMARK    1  A    between atoms: C_1  and  O_2
REMARK    2  A    between atoms: O_2  and  C_3
REMARK    3  A    between atoms: C_7  and  C_8
REMARK    4  A    between atoms: C_9  and  C_10
REMARK    5  A    between atoms: C_10  and  O_12
REMARK    6  A    between atoms: N_13  and  C_14
REMARK    7  A    between atoms: C_26  and  O_27
REMARK    8  A    between atoms: O_27  and  C_28
REMARK                            x       y       z     vdW  Elec       q    Type
REMARK                         _______ _______ _______ _____ _____    ______ ____
ROOT
ATOM      1  C   UNL     1      -0.555  11.873  18.839  0.00  0.00    +0.000 A 
ATOM      2  C   UNL     1      -0.269  11.087  19.978  0.00  0.00    +0.000 A 
ATOM      3  N   UNL     1      -0.123  12.150  20.839  0.00  0.00    +0.000 N 
ATOM      4  C   UNL     1       0.942  12.794  20.308  0.00  0.00    +0.000 A 
ATOM      5  C   UNL     1       1.935  13.439  21.025  0.00  0.00    +0.000 A 
ATOM      6  C   UNL     1       2.972  13.915  20.286  0.00  0.00    +0.000 A 
ATOM      7  C   UNL     1       2.979  13.800  18.891  0.00  0.00    +0.000 A 
ATOM      8  C   UNL     1       1.879  13.215  18.163  0.00  0.00    +0.000 A 
ATOM      9  C   UNL     1       0.775  12.636  18.903  0.00  0.00    +0.000 A 
ENDROOT
BRANCH   3  10
ATOM     10  C   UNL     1      -0.988  12.716  21.804  0.00  0.00    +0.000 A 
ATOM     11  C   UNL     1      -1.226  14.123  21.767  0.00  0.00    +0.000 A 
ATOM     12  C   UNL     1      -2.198  14.712  22.566  0.00  0.00    +0.000 A 
ATOM     13  C   UNL     1      -2.943  13.846  23.324  0.00  0.00    +0.000 A 
ATOM     14  C   UNL     1      -2.693  12.488  23.374  0.00  0.00    +0.000 A 
ATOM     15  C   UNL     1      -1.698  11.878  22.650  0.00  0.00    +0.000 A 
ATOM     16  O   UNL     1      -3.636  11.829  24.104  0.00  0.00    +0.000 OA
ATOM     17  C   UNL     1      -4.651  12.852  24.094  0.00  0.00    +0.000 C 
ATOM     18  O   UNL     1      -4.085  14.174  23.994  0.00  0.00    +0.000 OA
ENDBRANCH   3  10
BRANCH   1  23
ATOM     19  C   UNL     1      -4.288  11.260  18.120  0.00  0.00    +0.000 A 
ATOM     20  C   UNL     1      -4.274  10.261  17.164  0.00  0.00    +0.000 A 
ATOM     21  C   UNL     1      -3.044   9.804  16.663  0.00  0.00    +0.000 A 
ATOM     22  C   UNL     1      -1.793  10.311  17.137  0.00  0.00    +0.000 A 
ATOM     23  C   UNL     1      -1.756  11.298  18.115  0.00  0.00    +0.000 A 
ATOM     24  C   UNL     1      -3.057  11.795  18.531  0.00  0.00    +0.000 A 
BRANCH  19  26
ATOM     25  C   UNL     1      -6.552  10.673  18.622  0.00  0.00    +0.000 C 
ATOM     26  O   UNL     1      -5.525  11.661  18.546  0.00  0.00    +0.000 OA
ENDBRANCH  19  26
ENDBRANCH   1  23
BRANCH   2  27
ATOM     27  C   UNL     1       0.513   9.861  19.832  0.00  0.00    +0.000 C 
ATOM     28  O   UNL     1       1.127   9.533  18.830  0.00  0.00    +0.000 OA
BRANCH  27  29
ATOM     29  O   UNL     1       0.602   9.153  20.981  0.00  0.00    +0.000 OA
ATOM     30  H   UNL     1       0.103   8.319  20.968  0.00  0.00    +0.000 HD
ENDBRANCH  27  29
ENDBRANCH   2  27
BRANCH   7  31
ATOM     31  O   UNL     1       4.147  14.386  18.500  0.00  0.00    +0.000 OA
ATOM     32  C   UNL     1       4.370  15.763  18.362  0.00  0.00    +0.000 C 
ENDBRANCH   7  31
TORSDOF 6
ENDMDL
MODEL 8
REMARK VINA RESULT:      -6.9      2.636      5.525
REMARK  Name = 
REMARK  8 active torsions:
REMARK  status: ('A' for Active; 'I' for Inactive)
REMARK    1  A    between atoms: C_1  and  O_2
REMARK    2  A    between atoms: O_2  and  C_3
REMARK    3  A    between atoms: C_7  and  C_8
REMARK    4  A    between atoms: C_9  and  C_10
REMARK    5  A    between atoms: C_10  and  O_12
REMARK    6  A    between atoms: N_13  and  C_14
REMARK    7  A    between atoms: C_26  and  O_27
REMARK    8  A    between atoms: O_27  and  C_28
REMARK                            x       y       z     vdW  Elec       q    Type
REMARK                         _______ _______ _______ _____ _____    ______ ____
ROOT
ATOM      1  C   UNL     1       0.832  10.438  19.900  0.00  0.00    +0.000 A 
ATOM      2  C   UNL     1      -0.391  10.602  20.588  0.00  0.00    +0.000 A 
ATOM      3  N   UNL     1      -1.011  11.317  19.589  0.00  0.00    +0.000 N 
ATOM      4  C   UNL     1      -0.240  12.427  19.524  0.00  0.00    +0.000 A 
ATOM      5  C   UNL     1      -0.693  13.711  19.275  0.00  0.00    +0.000 A 
ATOM      6  C   UNL     1       0.244  14.690  19.373  0.00  0.00    +0.000 A 
ATOM      7  C   UNL     1       1.582  14.385  19.649  0.00  0.00    +0.000 A 
ATOM      8  C   UNL     1       2.044  13.027  19.801  0.00  0.00    +0.000 A 
ATOM      9  C   UNL     1       1.078  11.947  19.766  0.00  0.00    +0.000 A 
ENDROOT
BRANCH   3  10
ATOM     10  C   UNL     1      -1.950  10.948  18.600  0.00  0.00    +0.000 A 
ATOM     11  C   UNL     1      -3.245  11.548  18.629  0.00  0.00    +0.000 A 
ATOM     12  C   UNL     1      -4.149  11.367  17.589  0.00  0.00    +0.000 A 
ATOM     13  C   UNL     1      -3.683  10.641  16.523  0.00  0.00    +0.000 A 
ATOM     14  C   UNL     1      -2.438  10.043  16.510  0.00  0.00    +0.000 A 
ATOM     15  C   UNL     1      -1.543  10.143  17.546  0.00  0.00    +0.000 A 
ATOM     16  O   UNL     1      -2.163   9.479  15.299  0.00  0.00    +0.000 OA
ATOM     17  C   UNL     1      -3.157  10.175  14.522  0.00  0.00    +0.000 C 
ATOM     18  O   UNL     1      -4.305  10.539  15.313  0.00  0.00    +0.000 OA
ENDBRANCH   3  10
BRANCH   1  23
ATOM     19  C   UNL     1       2.435   7.146  18.708  0.00  0.00    +0.000 A 
ATOM     20  C   UNL     1       2.093   6.243  19.698  0.00  0.00    +0.000 A 
ATOM     21  C   UNL     1       1.393   6.693  20.829  0.00  0.00    +0.000 A 
ATOM     22  C   UNL     1       0.981   8.054  20.979  0.00  0.00    +0.000 A 
ATOM     23  C   UNL     1       1.280   8.994  19.998  0.00  0.00    +0.000 A 
ATOM     24  C   UNL     1       2.082   8.491  18.895  0.00  0.00    +0.000 A 
BRANCH  19  26
ATOM     25  C   UNL     1       3.542   5.269  17.721  0.00  0.00    +0.000 C 
ATOM     26  O   UNL     1       3.130   6.634  17.646  0.00  0.00    +0.000 OA
ENDBRANCH  19  26
ENDBRANCH   1  23
BRANCH   2  27
ATOM     27  C   UNL     1      -0.385  10.792  22.037  0.00  0.00    +0.000 C 
ATOM     28  O   UNL     1       0.548  10.526  22.777  0.00  0.00    +0.000 OA
BRANCH  27  29
ATOM     29  O   UNL     1      -1.493  11.422  22.491  0.00  0.00    +0.000 OA
ATOM     30  H   UNL     1      -1.635  12.299  22.098  0.00  0.00    +0.000 HD
ENDBRANCH  27  29
ENDBRANCH   2  27
BRANCH   7  31
ATOM     31  O   UNL     1       2.219  15.592  19.662  0.00  0.00    +0.000 OA
ATOM     32  C   UNL     1       2.014  16.639  18.752  0.00  0.00    +0.000 C 
ENDBRANCH   7  31
TORSDOF 6
ENDMDL
MODEL 9
REMARK VINA RESULT:      -6.9      2.822      6.640
REMARK  Name = 
REMARK  8 active torsions:
REMARK  status: ('A' for Active; 'I' for Inactive)
REMARK    1  A    between atoms: C_1  and  O_2
REMARK    2  A    between atoms: O_2  and  C_3
REMARK    3  A    between atoms: C_7  and  C_8
REMARK    4  A    between atoms: C_9  and  C_10
REMARK    5  A    between atoms: C_10  and  O_12
REMARK    6  A    between atoms: N_13  and  C_14
REMARK    7  A    between atoms: C_26  and  O_27
REMARK    8  A    between atoms: O_27  and  C_28
REMARK                            x       y       z     vdW  Elec       q    Type
REMARK                         _______ _______ _______ _____ _____    ______ ____
ROOT
ATOM      1  C   UNL     1       0.191  10.789  19.905  0.00  0.00    +0.000 A 
ATOM      2  C   UNL     1      -0.364  11.583  18.877  0.00  0.00    +0.000 A 
ATOM      3  N   UNL     1       0.003  12.789  19.428  0.00  0.00    +0.000 N 
ATOM      4  C   UNL     1      -0.694  12.787  20.588  0.00  0.00    +0.000 A 
ATOM      5  C   UNL     1      -1.278  13.894  21.181  0.00  0.00    +0.000 A 
ATOM      6  C   UNL     1      -2.030  13.636  22.283  0.00  0.00    +0.000 A 
ATOM      7  C   UNL     1      -2.141  12.339  22.796  0.00  0.00    +0.000 A 
ATOM      8  C   UNL     1      -1.437  11.221  22.216  0.00  0.00    +0.000 A 
ATOM      9  C   UNL     1      -0.668  11.426  21.005  0.00  0.00    +0.000 A 
ENDROOT
BRANCH   3  10
ATOM     10  C   UNL     1       1.064  13.678  19.145  0.00  0.00    +0.000 A 
ATOM     11  C   UNL     1       2.356  13.135  18.875  0.00  0.00    +0.000 A 
ATOM     12  C   UNL     1       3.395  13.936  18.416  0.00  0.00    +0.000 A 
ATOM     13  C   UNL     1       3.069  15.247  18.180  0.00  0.00    +0.000 A 
ATOM     14  C   UNL     1       1.823  15.772  18.466  0.00  0.00    +0.000 A 
ATOM     15  C   UNL     1       0.792  15.028  18.983  0.00  0.00    +0.000 A 
ATOM     16  O   UNL     1       1.710  17.061  18.037  0.00  0.00    +0.000 OA
ATOM     17  C   UNL     1       2.823  17.068  17.122  0.00  0.00    +0.000 C 
ATOM     18  O   UNL     1       3.855  16.143  17.517  0.00  0.00    +0.000 OA
ENDBRANCH   3  10
BRANCH   1  23
ATOM     19  C   UNL     1       2.025   7.404  19.816  0.00  0.00    +0.000 A 
ATOM     20  C   UNL     1       2.664   7.413  18.589  0.00  0.00    +0.000 A 
ATOM     21  C   UNL     1       2.457   8.492  17.714  0.00  0.00    +0.000 A 
ATOM     22  C   UNL     1       1.635   9.609  18.062  0.00  0.00    +0.000 A 
ATOM     23  C   UNL     1       0.992   9.656  19.294  0.00  0.00    +0.000 A 
ATOM     24  C   UNL     1       1.170   8.473  20.120  0.00  0.00    +0.000 A 
BRANCH  19  26
ATOM     25  C   UNL     1       2.001   5.023  20.050  0.00  0.00    +0.000 C 
ATOM     26  O   UNL     1       2.265   6.311  20.605  0.00  0.00    +0.000 OA
ENDBRANCH  19  26
ENDBRANCH   1  23
BRANCH   2  27
ATOM     27  C   UNL     1      -1.608  11.165  18.233  0.00  0.00    +0.000 C 
ATOM     28  O   UNL     1      -2.109  10.056  18.323  0.00  0.00    +0.000 OA
BRANCH  27  29
ATOM     29  O   UNL     1      -2.243  12.180  17.604  0.00  0.00    +0.000 OA
ATOM     30  H   UNL     1      -1.703  12.623  16.928  0.00  0.00    +0.000 HD
ENDBRANCH  27  29
ENDBRANCH   2  27
BRANCH   7  31
ATOM     31  O   UNL     1      -2.951  12.464  23.886  0.00  0.00    +0.000 OA
ATOM     32  C   UNL     1      -3.572  13.644  24.319  0.00  0.00    +0.000 C 
ENDBRANCH   7  31
TORSDOF 6
ENDMDL
