MODEL 1
REMARK VINA RESULT:      -7.2      0.000      0.000
REMARK  Name = 
REMARK  5 active torsions:
REMARK  status: ('A' for Active; 'I' for Inactive)
REMARK    1  A    between atoms: C_1  and  O_2
REMARK    2  A    between atoms: O_2  and  C_3
REMARK    3  A    between atoms: C_6  and  S_7
REMARK    4  A    between atoms: S_7  and  C_10
REMARK    5  A    between atoms: C_11  and  C_12
REMARK                            x       y       z     vdW  Elec       q    Type
REMARK                         _______ _______ _______ _____ _____    ______ ____
ROOT
ATOM      1  S   UNL     1       4.218   3.608  18.731  0.00  0.00    +0.000 S 
ATOM      2  O   UNL     1       3.237   2.716  18.134  0.00  0.00    +0.000 OA
ATOM      3  O   UNL     1       5.086   3.134  19.791  0.00  0.00    +0.000 OA
ENDROOT
BRANCH   1   7
ATOM      4  C   UNL     1       6.951   4.988  15.332  0.00  0.00    +0.000 A 
ATOM      5  C   UNL     1       7.310   5.224  16.664  0.00  0.00    +0.000 A 
ATOM      6  C   UNL     1       6.484   4.805  17.710  0.00  0.00    +0.000 A 
ATOM      7  C   UNL     1       5.276   4.168  17.411  0.00  0.00    +0.000 A 
ATOM      8  C   UNL     1       4.916   3.914  16.085  0.00  0.00    +0.000 A 
ATOM      9  C   UNL     1       5.751   4.335  15.046  0.00  0.00    +0.000 A 
BRANCH   4  11
ATOM     10  C   UNL     1       7.598   5.056  13.056  0.00  0.00    +0.000 C 
ATOM     11  O   UNL     1       7.830   5.466  14.400  0.00  0.00    +0.000 OA
ENDBRANCH   4  11
ENDBRANCH   1   7
BRANCH   1  12
ATOM     12  C   UNL     1       3.431   5.052  19.260  0.00  0.00    +0.000 C 
ATOM     13  C   UNL     1       3.042   5.991  18.381  0.00  0.00    +0.000 C 
BRANCH  13  14
ATOM     14  C   UNL     1       2.366   7.224  18.803  0.00  0.00    +0.000 A 
ATOM     15  C   UNL     1       2.141   8.263  17.902  0.00  0.00    +0.000 A 
ATOM     16  C   UNL     1       1.517   9.428  18.356  0.00  0.00    +0.000 A 
ATOM     17  C   UNL     1       1.131   9.517  19.687  0.00  0.00    +0.000 A 
ATOM     18 CL   UNL     1       0.371  10.933  20.289  0.00  0.00    +0.000 Cl
ATOM     19  C   UNL     1       1.379   8.435  20.514  0.00  0.00    +0.000 A 
ATOM     20  N   UNL     1       1.990   7.297  20.102  0.00  0.00    +0.000 NA
ENDBRANCH  13  14
ENDBRANCH   1  12
TORSDOF 4
ENDMDL
MODEL 2
REMARK VINA RESULT:      -7.1      0.331      1.117
REMARK  Name = 
REMARK  5 active torsions:
REMARK  status: ('A' for Active; 'I' for Inactive)
REMARK    1  A    between atoms: C_1  and  O_2
REMARK    2  A    between atoms: O_2  and  C_3
REMARK    3  A    between atoms: C_6  and  S_7
REMARK    4  A    between atoms: S_7  and  C_10
REMARK    5  A    between atoms: C_11  and  C_12
REMARK                            x       y       z     vdW  Elec       q    Type
REMARK                         _______ _______ _______ _____ _____    ______ ____
ROOT
ATOM      1  S   UNL     1       4.032   3.412  18.516  0.00  0.00    +0.000 S 
ATOM      2  O   UNL     1       3.251   2.368  17.873  0.00  0.00    +0.000 OA
ATOM      3  O   UNL     1       4.800   3.119  19.711  0.00  0.00    +0.000 OA
ENDROOT
BRANCH   1   7
ATOM      4  C   UNL     1       6.982   5.023  15.414  0.00  0.00    +0.000 A 
ATOM      5  C   UNL     1       5.704   4.611  15.022  0.00  0.00    +0.000 A 
ATOM      6  C   UNL     1       4.794   4.120  15.962  0.00  0.00    +0.000 A 
ATOM      7  C   UNL     1       5.185   4.018  17.299  0.00  0.00    +0.000 A 
ATOM      8  C   UNL     1       6.454   4.441  17.703  0.00  0.00    +0.000 A 
ATOM      9  C   UNL     1       7.355   4.934  16.756  0.00  0.00    +0.000 A 
BRANCH   4  11
ATOM     10  C   UNL     1       7.493   4.953  13.103  0.00  0.00    +0.000 C 
ATOM     11  O   UNL     1       7.788   5.463  14.400  0.00  0.00    +0.000 OA
ENDBRANCH   4  11
ENDBRANCH   1   7
BRANCH   1  12
ATOM     12  C   UNL     1       3.018   4.775  18.827  0.00  0.00    +0.000 C 
ATOM     13  C   UNL     1       3.449   6.027  18.595  0.00  0.00    +0.000 C 
BRANCH  13  14
ATOM     14  C   UNL     1       2.605   7.203  18.844  0.00  0.00    +0.000 A 
ATOM     15  C   UNL     1       2.332   8.117  17.829  0.00  0.00    +0.000 A 
ATOM     16  C   UNL     1       1.546   9.236  18.120  0.00  0.00    +0.000 A 
ATOM     17  C   UNL     1       1.053   9.402  19.407  0.00  0.00    +0.000 A 
ATOM     18 CL   UNL     1       0.092  10.765  19.811  0.00  0.00    +0.000 Cl
ATOM     19  C   UNL     1       1.359   8.441  20.356  0.00  0.00    +0.000 A 
ATOM     20  N   UNL     1       2.126   7.352  20.102  0.00  0.00    +0.000 NA
ENDBRANCH  13  14
ENDBRANCH   1  12
TORSDOF 4
ENDMDL
MODEL 3
REMARK VINA RESULT:      -6.9      0.679      1.589
REMARK  Name = 
REMARK  5 active torsions:
REMARK  status: ('A' for Active; 'I' for Inactive)
REMARK    1  A    between atoms: C_1  and  O_2
REMARK    2  A    between atoms: O_2  and  C_3
REMARK    3  A    between atoms: C_6  and  S_7
REMARK    4  A    between atoms: S_7  and  C_10
REMARK    5  A    between atoms: C_11  and  C_12
REMARK                            x       y       z     vdW  Elec       q    Type
REMARK                         _______ _______ _______ _____ _____    ______ ____
ROOT
ATOM      1  S   UNL     1       4.141   3.479  18.975  0.00  0.00    +0.000 S 
ATOM      2  O   UNL     1       3.106   2.695  18.320  0.00  0.00    +0.000 OA
ATOM      3  O   UNL     1       4.987   2.873  19.985  0.00  0.00    +0.000 OA
ENDROOT
BRANCH   1   7
ATOM      4  C   UNL     1       6.904   5.078  15.698  0.00  0.00    +0.000 A 
ATOM      5  C   UNL     1       5.647   4.560  15.368  0.00  0.00    +0.000 A 
ATOM      6  C   UNL     1       4.794   4.071  16.361  0.00  0.00    +0.000 A 
ATOM      7  C   UNL     1       5.222   4.080  17.691  0.00  0.00    +0.000 A 
ATOM      8  C   UNL     1       6.469   4.610  18.033  0.00  0.00    +0.000 A 
ATOM      9  C   UNL     1       7.314   5.099  17.033  0.00  0.00    +0.000 A 
BRANCH   4  11
ATOM     10  C   UNL     1       7.404   4.854  13.395  0.00  0.00    +0.000 C 
ATOM     11  O   UNL     1       7.654   5.504  14.637  0.00  0.00    +0.000 OA
ENDBRANCH   4  11
ENDBRANCH   1   7
BRANCH   1  12
ATOM     12  C   UNL     1       3.444   4.920  19.624  0.00  0.00    +0.000 C 
ATOM     13  C   UNL     1       2.805   5.798  18.834  0.00  0.00    +0.000 C 
BRANCH  13  14
ATOM     14  C   UNL     1       2.197   7.026  19.361  0.00  0.00    +0.000 A 
ATOM     15  C   UNL     1       1.745   7.095  20.676  0.00  0.00    +0.000 A 
ATOM     16  C   UNL     1       1.150   8.277  21.126  0.00  0.00    +0.000 A 
ATOM     17  C   UNL     1       1.031   9.351  20.253  0.00  0.00    +0.000 A 
ATOM     18 CL   UNL     1       0.297  10.817  20.760  0.00  0.00    +0.000 Cl
ATOM     19  C   UNL     1       1.516   9.206  18.965  0.00  0.00    +0.000 A 
ATOM     20  N   UNL     1       2.091   8.068  18.502  0.00  0.00    +0.000 NA
ENDBRANCH  13  14
ENDBRANCH   1  12
TORSDOF 4
ENDMDL
MODEL 4
REMARK VINA RESULT:      -6.9      1.164      1.623
REMARK  Name = 
REMARK  5 active torsions:
REMARK  status: ('A' for Active; 'I' for Inactive)
REMARK    1  A    between atoms: C_1  and  O_2
REMARK    2  A    between atoms: O_2  and  C_3
REMARK    3  A    between atoms: C_6  and  S_7
REMARK    4  A    between atoms: S_7  and  C_10
REMARK    5  A    between atoms: C_11  and  C_12
REMARK                            x       y       z     vdW  Elec       q    Type
REMARK                         _______ _______ _______ _____ _____    ______ ____
ROOT
ATOM      1  S   UNL     1       5.275   4.803  18.888  0.00  0.00    +0.000 S 
ATOM      2  O   UNL     1       4.402   3.682  19.193  0.00  0.00    +0.000 OA
ATOM      3  O   UNL     1       6.481   5.022  19.663  0.00  0.00    +0.000 OA
ENDROOT
BRANCH   1   7
ATOM      4  C   UNL     1       6.577   4.377  14.523  0.00  0.00    +0.000 A 
ATOM      5  C   UNL     1       5.269   4.060  14.901  0.00  0.00    +0.000 A 
ATOM      6  C   UNL     1       4.859   4.189  16.231  0.00  0.00    +0.000 A 
ATOM      7  C   UNL     1       5.783   4.614  17.190  0.00  0.00    +0.000 A 
ATOM      8  C   UNL     1       7.088   4.948  16.820  0.00  0.00    +0.000 A 
ATOM      9  C   UNL     1       7.487   4.818  15.486  0.00  0.00    +0.000 A 
BRANCH   4  11
ATOM     10  C   UNL     1       5.915   3.425  12.460  0.00  0.00    +0.000 C 
ATOM     11  O   UNL     1       6.863   4.188  13.199  0.00  0.00    +0.000 OA
ENDBRANCH   4  11
ENDBRANCH   1   7
BRANCH   1  12
ATOM     12  C   UNL     1       4.350   6.262  18.873  0.00  0.00    +0.000 C 
ATOM     13  C   UNL     1       3.055   6.265  19.230  0.00  0.00    +0.000 C 
BRANCH  13  14
ATOM     14  C   UNL     1       2.247   7.491  19.233  0.00  0.00    +0.000 A 
ATOM     15  C   UNL     1       2.075   8.239  18.071  0.00  0.00    +0.000 A 
ATOM     16  C   UNL     1       1.319   9.413  18.129  0.00  0.00    +0.000 A 
ATOM     17  C   UNL     1       0.757   9.799  19.338  0.00  0.00    +0.000 A 
ATOM     18 CL   UNL     1      -0.169  11.239  19.456  0.00  0.00    +0.000 Cl
ATOM     19  C   UNL     1       0.965   8.994  20.444  0.00  0.00    +0.000 A 
ATOM     20  N   UNL     1       1.700   7.855  20.417  0.00  0.00    +0.000 NA
ENDBRANCH  13  14
ENDBRANCH   1  12
TORSDOF 4
ENDMDL
MODEL 5
REMARK VINA RESULT:      -6.7      1.206      1.897
REMARK  Name = 
REMARK  5 active torsions:
REMARK  status: ('A' for Active; 'I' for Inactive)
REMARK    1  A    between atoms: C_1  and  O_2
REMARK    2  A    between atoms: O_2  and  C_3
REMARK    3  A    between atoms: C_6  and  S_7
REMARK    4  A    between atoms: S_7  and  C_10
REMARK    5  A    between atoms: C_11  and  C_12
REMARK                            x       y       z     vdW  Elec       q    Type
REMARK                         _______ _______ _______ _____ _____    ______ ____
ROOT
ATOM      1  S   UNL     1       5.076   4.697  18.851  0.00  0.00    +0.000 S 
ATOM      2  O   UNL     1       4.191   3.566  19.077  0.00  0.00    +0.000 OA
ATOM      3  O   UNL     1       6.242   4.891  19.691  0.00  0.00    +0.000 OA
ENDROOT
BRANCH   1   7
ATOM      4  C   UNL     1       6.591   4.414  14.544  0.00  0.00    +0.000 A 
ATOM      5  C   UNL     1       5.271   4.067  14.850  0.00  0.00    +0.000 A 
ATOM      6  C   UNL     1       4.797   4.153  16.162  0.00  0.00    +0.000 A 
ATOM      7  C   UNL     1       5.667   4.563  17.175  0.00  0.00    +0.000 A 
ATOM      8  C   UNL     1       6.983   4.926  16.878  0.00  0.00    +0.000 A 
ATOM      9  C   UNL     1       7.447   4.839  15.562  0.00  0.00    +0.000 A 
BRANCH   4  11
ATOM     10  C   UNL     1       6.063   3.477  12.435  0.00  0.00    +0.000 C 
ATOM     11  O   UNL     1       6.942   4.266  13.230  0.00  0.00    +0.000 OA
ENDBRANCH   4  11
ENDBRANCH   1   7
BRANCH   1  12
ATOM     12  C   UNL     1       4.150   6.155  18.838  0.00  0.00    +0.000 C 
ATOM     13  C   UNL     1       3.004   6.255  19.534  0.00  0.00    +0.000 C 
BRANCH  13  14
ATOM     14  C   UNL     1       2.202   7.484  19.546  0.00  0.00    +0.000 A 
ATOM     15  C   UNL     1       1.520   7.884  20.693  0.00  0.00    +0.000 A 
ATOM     16  C   UNL     1       0.747   9.048  20.648  0.00  0.00    +0.000 A 
ATOM     17  C   UNL     1       0.684   9.776  19.468  0.00  0.00    +0.000 A 
ATOM     18 CL   UNL     1      -0.261  11.204  19.366  0.00  0.00    +0.000 Cl
ATOM     19  C   UNL     1       1.401   9.318  18.376  0.00  0.00    +0.000 A 
ATOM     20  N   UNL     1       2.152   8.188  18.390  0.00  0.00    +0.000 NA
ENDBRANCH  13  14
ENDBRANCH   1  12
TORSDOF 4
ENDMDL
MODEL 6
REMARK VINA RESULT:      -6.7      4.748      6.540
REMARK  Name = 
REMARK  5 active torsions:
REMARK  status: ('A' for Active; 'I' for Inactive)
REMARK    1  A    between atoms: C_1  and  O_2
REMARK    2  A    between atoms: O_2  and  C_3
REMARK    3  A    between atoms: C_6  and  S_7
REMARK    4  A    between atoms: S_7  and  C_10
REMARK    5  A    between atoms: C_11  and  C_12
REMARK                            x       y       z     vdW  Elec       q    Type
REMARK                         _______ _______ _______ _____ _____    ______ ____
ROOT
ATOM      1  S   UNL     1       7.152   5.985  17.301  0.00  0.00    +0.000 S 
ATOM      2  O   UNL     1       7.838   4.778  17.733  0.00  0.00    +0.000 OA
ATOM      3  O   UNL     1       6.972   6.256  15.888  0.00  0.00    +0.000 OA
ENDROOT
BRANCH   1   7
ATOM      4  C   UNL     1       2.988   5.928  19.194  0.00  0.00    +0.000 A 
ATOM      5  C   UNL     1       3.998   5.098  19.691  0.00  0.00    +0.000 A 
ATOM      6  C   UNL     1       5.275   5.109  19.122  0.00  0.00    +0.000 A 
ATOM      7  C   UNL     1       5.526   5.942  18.029  0.00  0.00    +0.000 A 
ATOM      8  C   UNL     1       4.527   6.786  17.534  0.00  0.00    +0.000 A 
ATOM      9  C   UNL     1       3.255   6.769  18.112  0.00  0.00    +0.000 A 
BRANCH   4  11
ATOM     10  C   UNL     1       1.490   4.535  20.385  0.00  0.00    +0.000 C 
ATOM     11  O   UNL     1       1.777   5.810  19.820  0.00  0.00    +0.000 OA
ENDBRANCH   4  11
ENDBRANCH   1   7
BRANCH   1  12
ATOM     12  C   UNL     1       7.890   7.359  18.042  0.00  0.00    +0.000 C 
ATOM     13  C   UNL     1       7.819   8.575  17.475  0.00  0.00    +0.000 C 
BRANCH  13  14
ATOM     14  C   UNL     1       8.431   9.761  18.087  0.00  0.00    +0.000 A 
ATOM     15  C   UNL     1       9.230   9.650  19.223  0.00  0.00    +0.000 A 
ATOM     16  C   UNL     1       9.770  10.810  19.786  0.00  0.00    +0.000 A 
ATOM     17  C   UNL     1       9.503  12.038  19.196  0.00  0.00    +0.000 A 
ATOM     18 CL   UNL     1      10.136  13.488  19.859  0.00  0.00    +0.000 Cl
ATOM     19  C   UNL     1       8.710  12.062  18.061  0.00  0.00    +0.000 A 
ATOM     20  N   UNL     1       8.167  10.953  17.500  0.00  0.00    +0.000 NA
ENDBRANCH  13  14
ENDBRANCH   1  12
TORSDOF 4
ENDMDL
MODEL 7
REMARK VINA RESULT:      -6.6      1.269      1.457
REMARK  Name = 
REMARK  5 active torsions:
REMARK  status: ('A' for Active; 'I' for Inactive)
REMARK    1  A    between atoms: C_1  and  O_2
REMARK    2  A    between atoms: O_2  and  C_3
REMARK    3  A    between atoms: C_6  and  S_7
REMARK    4  A    between atoms: S_7  and  C_10
REMARK    5  A    between atoms: C_11  and  C_12
REMARK                            x       y       z     vdW  Elec       q    Type
REMARK                         _______ _______ _______ _____ _____    ______ ____
ROOT
ATOM      1  S   UNL     1       5.773   4.693  18.776  0.00  0.00    +0.000 S 
ATOM      2  O   UNL     1       5.019   3.534  19.227  0.00  0.00    +0.000 OA
ATOM      3  O   UNL     1       7.075   4.983  19.345  0.00  0.00    +0.000 OA
ENDROOT
BRANCH   1   7
ATOM      4  C   UNL     1       6.399   4.144  14.278  0.00  0.00    +0.000 A 
ATOM      5  C   UNL     1       7.321   4.877  15.033  0.00  0.00    +0.000 A 
ATOM      6  C   UNL     1       7.141   5.049  16.408  0.00  0.00    +0.000 A 
ATOM      7  C   UNL     1       6.011   4.502  17.020  0.00  0.00    +0.000 A 
ATOM      8  C   UNL     1       5.091   3.755  16.278  0.00  0.00    +0.000 A 
ATOM      9  C   UNL     1       5.282   3.587  14.904  0.00  0.00    +0.000 A 
BRANCH   4  11
ATOM     10  C   UNL     1       5.819   3.220  12.177  0.00  0.00    +0.000 C 
ATOM     11  O   UNL     1       6.673   4.066  12.940  0.00  0.00    +0.000 OA
ENDBRANCH   4  11
ENDBRANCH   1   7
BRANCH   1  12
ATOM     12  C   UNL     1       4.784   6.103  18.900  0.00  0.00    +0.000 C 
ATOM     13  C   UNL     1       3.447   6.006  18.988  0.00  0.00    +0.000 C 
BRANCH  13  14
ATOM     14  C   UNL     1       2.583   7.188  19.101  0.00  0.00    +0.000 A 
ATOM     15  C   UNL     1       2.385   8.038  18.016  0.00  0.00    +0.000 A 
ATOM     16  C   UNL     1       1.576   9.166  18.179  0.00  0.00    +0.000 A 
ATOM     17  C   UNL     1       0.986   9.405  19.412  0.00  0.00    +0.000 A 
ATOM     18 CL   UNL     1      -0.007  10.782  19.660  0.00  0.00    +0.000 Cl
ATOM     19  C   UNL     1       1.222   8.505  20.437  0.00  0.00    +0.000 A 
ATOM     20  N   UNL     1       2.009   7.408  20.308  0.00  0.00    +0.000 NA
ENDBRANCH  13  14
ENDBRANCH   1  12
TORSDOF 4
ENDMDL
MODEL 8
REMARK VINA RESULT:      -6.6      1.183      1.929
REMARK  Name = 
REMARK  5 active torsions:
REMARK  status: ('A' for Active; 'I' for Inactive)
REMARK    1  A    between atoms: C_1  and  O_2
REMARK    2  A    between atoms: O_2  and  C_3
REMARK    3  A    between atoms: C_6  and  S_7
REMARK    4  A    between atoms: S_7  and  C_10
REMARK    5  A    between atoms: C_11  and  C_12
REMARK                            x       y       z     vdW  Elec       q    Type
REMARK                         _______ _______ _______ _____ _____    ______ ____
ROOT
ATOM      1  S   UNL     1       2.934   3.563  19.365  0.00  0.00    +0.000 S 
ATOM      2  O   UNL     1       1.975   2.856  18.531  0.00  0.00    +0.000 OA
ATOM      3  O   UNL     1       3.472   2.932  20.555  0.00  0.00    +0.000 OA
ENDROOT
BRANCH   1   7
ATOM      4  C   UNL     1       6.489   4.661  16.704  0.00  0.00    +0.000 A 
ATOM      5  C   UNL     1       5.294   4.212  16.132  0.00  0.00    +0.000 A 
ATOM      6  C   UNL     1       4.200   3.877  16.935  0.00  0.00    +0.000 A 
ATOM      7  C   UNL     1       4.323   3.968  18.324  0.00  0.00    +0.000 A 
ATOM      8  C   UNL     1       5.507   4.429  18.905  0.00  0.00    +0.000 A 
ATOM      9  C   UNL     1       6.594   4.764  18.092  0.00  0.00    +0.000 A 
BRANCH   4  11
ATOM     10  C   UNL     1       7.139   4.871  14.438  0.00  0.00    +0.000 C 
ATOM     11  O   UNL     1       7.492   4.936  15.815  0.00  0.00    +0.000 OA
ENDBRANCH   4  11
ENDBRANCH   1   7
BRANCH   1  12
ATOM     12  C   UNL     1       2.288   5.106  19.797  0.00  0.00    +0.000 C 
ATOM     13  C   UNL     1       2.521   6.191  19.039  0.00  0.00    +0.000 C 
BRANCH  13  14
ATOM     14  C   UNL     1       1.979   7.513  19.379  0.00  0.00    +0.000 A 
ATOM     15  C   UNL     1       1.515   7.789  20.663  0.00  0.00    +0.000 A 
ATOM     16  C   UNL     1       0.983   9.053  20.933  0.00  0.00    +0.000 A 
ATOM     17  C   UNL     1       0.938  10.000  19.919  0.00  0.00    +0.000 A 
ATOM     18 CL   UNL     1       0.283  11.561  20.203  0.00  0.00    +0.000 Cl
ATOM     19  C   UNL     1       1.430   9.651  18.673  0.00  0.00    +0.000 A 
ATOM     20  N   UNL     1       1.944   8.430  18.383  0.00  0.00    +0.000 NA
ENDBRANCH  13  14
ENDBRANCH   1  12
TORSDOF 4
ENDMDL
MODEL 9
REMARK VINA RESULT:      -6.6      4.684      6.406
REMARK  Name = 
REMARK  5 active torsions:
REMARK  status: ('A' for Active; 'I' for Inactive)
REMARK    1  A    between atoms: C_1  and  O_2
REMARK    2  A    between atoms: O_2  and  C_3
REMARK    3  A    between atoms: C_6  and  S_7
REMARK    4  A    between atoms: S_7  and  C_10
REMARK    5  A    between atoms: C_11  and  C_12
REMARK                            x       y       z     vdW  Elec       q    Type
REMARK                         _______ _______ _______ _____ _____    ______ ____
ROOT
ATOM      1  S   UNL     1       7.359   5.761  17.497  0.00  0.00    +0.000 S 
ATOM      2  O   UNL     1       8.087   4.615  18.019  0.00  0.00    +0.000 OA
ATOM      3  O   UNL     1       7.297   5.998  16.068  0.00  0.00    +0.000 OA
ENDROOT
BRANCH   1   7
ATOM      4  C   UNL     1       3.037   5.309  18.925  0.00  0.00    +0.000 A 
ATOM      5  C   UNL     1       3.364   6.274  17.967  0.00  0.00    +0.000 A 
ATOM      6  C   UNL     1       4.681   6.419  17.521  0.00  0.00    +0.000 A 
ATOM      7  C   UNL     1       5.678   5.605  18.066  0.00  0.00    +0.000 A 
ATOM      8  C   UNL     1       5.359   4.629  19.014  0.00  0.00    +0.000 A 
ATOM      9  C   UNL     1       4.038   4.490  19.450  0.00  0.00    +0.000 A 
BRANCH   4  11
ATOM     10  C   UNL     1       1.447   4.737  20.583  0.00  0.00    +0.000 C 
ATOM     11  O   UNL     1       1.721   5.281  19.296  0.00  0.00    +0.000 OA
ENDBRANCH   4  11
ENDBRANCH   1   7
BRANCH   1  12
ATOM     12  C   UNL     1       7.919   7.197  18.276  0.00  0.00    +0.000 C 
ATOM     13  C   UNL     1       8.054   8.347  17.596  0.00  0.00    +0.000 C 
BRANCH  13  14
ATOM     14  C   UNL     1       8.521   9.584  18.235  0.00  0.00    +0.000 A 
ATOM     15  C   UNL     1       8.453  10.805  17.569  0.00  0.00    +0.000 A 
ATOM     16  C   UNL     1       8.934  11.952  18.207  0.00  0.00    +0.000 A 
ATOM     17  C   UNL     1       9.459  11.845  19.488  0.00  0.00    +0.000 A 
ATOM     18 CL   UNL     1      10.071  13.224  20.305  0.00  0.00    +0.000 Cl
ATOM     19  C   UNL     1       9.480  10.597  20.086  0.00  0.00    +0.000 A 
ATOM     20  N   UNL     1       9.027   9.468  19.486  0.00  0.00    +0.000 NA
ENDBRANCH  13  14
ENDBRANCH   1  12
TORSDOF 4
ENDMDL
