MODEL 1
REMARK VINA RESULT:      -8.9      0.000      0.000
REMARK  Name = 
REMARK  10 active torsions:
REMARK  status: ('A' for Active; 'I' for Inactive)
REMARK    1  A    between atoms: C_1  and  O_2
REMARK    2  A    between atoms: O_2  and  C_3
REMARK    3  A    between atoms: C_5  and  C_6
REMARK    4  A    between atoms: C_10  and  O_11
REMARK    5  A    between atoms: O_11  and  C_12
REMARK    6  A    between atoms: C_12  and  C_13
REMARK    7  A    between atoms: N_15  and  C_16
REMARK    8  A    between atoms: N_19  and  C_20
REMARK    9  A    between atoms: C_26  and  C_27
REMARK   10  A    between atoms: C_28  and  C_29
REMARK                            x       y       z     vdW  Elec       q    Type
REMARK                         _______ _______ _______ _____ _____    ______ ____
ROOT
ATOM      1  C   UNL     1       6.762   5.141  17.626  0.00  0.00    +0.000 C 
ATOM      2  C   UNL     1       5.855   4.616  18.719  0.00  0.00    +0.000 C 
ATOM      3  O   UNL     1       6.016   4.375  19.894  0.00  0.00    +0.000 OA
ATOM      4  N   UNL     1       4.830   4.368  17.861  0.00  0.00    +0.000 N 
ATOM      5  C   UNL     1       5.496   5.029  16.709  0.00  0.00    +0.000 C 
ENDROOT
BRANCH   4   6
ATOM      6  C   UNL     1       3.946   3.204  17.875  0.00  0.00    +0.000 C 
ATOM      7  C   UNL     1       3.580   2.637  19.270  0.00  0.00    +0.000 C 
ATOM      8  C   UNL     1       2.434   3.336  20.007  0.00  0.00    +0.000 C 
ATOM      9  C   UNL     1       1.237   3.644  19.116  0.00  0.00    +0.000 C 
ATOM     10  C   UNL     1       1.670   4.334  17.832  0.00  0.00    +0.000 C 
ATOM     11  C   UNL     1       2.664   3.462  17.071  0.00  0.00    +0.000 C 
ENDBRANCH   4   6
BRANCH   1  14
ATOM     12  C   UNL     1       8.243   8.296  18.281  0.00  0.00    +0.000 A 
ATOM     13  C   UNL     1       8.131   6.967  18.627  0.00  0.00    +0.000 A 
ATOM     14  N   UNL     1       7.252   6.469  17.715  0.00  0.00    +0.000 N 
ATOM     15  N   UNL     1       6.835   7.422  16.862  0.00  0.00    +0.000 NA
ATOM     16  N   UNL     1       7.431   8.552  17.202  0.00  0.00    +0.000 NA
BRANCH  12  17
ATOM     17  C   UNL     1       9.023   9.374  18.935  0.00  0.00    +0.000 C 
BRANCH  17  18
ATOM     18  O   UNL     1       9.158  10.514  18.091  0.00  0.00    +0.000 OA
BRANCH  18  24
ATOM     19  C   UNL     1       8.906  12.975  18.434  0.00  0.00    +0.000 A 
ATOM     20  C   UNL     1       9.331  14.077  19.184  0.00  0.00    +0.000 A 
ATOM     21  C   UNL     1      10.376  13.950  20.096  0.00  0.00    +0.000 A 
ATOM     22  C   UNL     1      10.957  12.706  20.337  0.00  0.00    +0.000 A 
ATOM     23  C   UNL     1      10.485  11.590  19.643  0.00  0.00    +0.000 A 
ATOM     24  C   UNL     1       9.465  11.710  18.686  0.00  0.00    +0.000 A 
BRANCH  19  26
ATOM     25  C   UNL     1       7.052  14.240  17.691  0.00  0.00    +0.000 C 
ATOM     26  O   UNL     1       7.925  13.125  17.491  0.00  0.00    +0.000 OA
ENDBRANCH  19  26
BRANCH  21  27
ATOM     27  C   UNL     1      10.886  15.151  20.786  0.00  0.00    +0.000 C 
ATOM     28  O   UNL     1      10.134  15.941  21.344  0.00  0.00    +0.000 OA
ENDBRANCH  21  27
ENDBRANCH  18  24
ENDBRANCH  17  18
ENDBRANCH  12  17
ENDBRANCH   1  14
BRANCH   5  29
ATOM     29  C   UNL     1       5.810   4.241  15.489  0.00  0.00    +0.000 C 
ATOM     30  C   UNL     1       5.452   4.562  14.238  0.00  0.00    +0.000 C 
BRANCH  30  31
ATOM     31  C   UNL     1       5.808   3.700  13.091  0.00  0.00    +0.000 A 
ATOM     32  C   UNL     1       4.827   3.014  12.355  0.00  0.00    +0.000 A 
ATOM     33  C   UNL     1       5.166   2.236  11.248  0.00  0.00    +0.000 A 
ATOM     34  C   UNL     1       6.493   2.147  10.844  0.00  0.00    +0.000 A 
ATOM     35  C   UNL     1       7.479   2.830  11.554  0.00  0.00    +0.000 A 
ATOM     36  C   UNL     1       7.141   3.603  12.671  0.00  0.00    +0.000 A 
ENDBRANCH  30  31
ENDBRANCH   5  29
TORSDOF 9
ENDMDL
MODEL 2
REMARK VINA RESULT:      -8.7      1.285      1.449
REMARK  Name = 
REMARK  10 active torsions:
REMARK  status: ('A' for Active; 'I' for Inactive)
REMARK    1  A    between atoms: C_1  and  O_2
REMARK    2  A    between atoms: O_2  and  C_3
REMARK    3  A    between atoms: C_5  and  C_6
REMARK    4  A    between atoms: C_10  and  O_11
REMARK    5  A    between atoms: O_11  and  C_12
REMARK    6  A    between atoms: C_12  and  C_13
REMARK    7  A    between atoms: N_15  and  C_16
REMARK    8  A    between atoms: N_19  and  C_20
REMARK    9  A    between atoms: C_26  and  C_27
REMARK   10  A    between atoms: C_28  and  C_29
REMARK                            x       y       z     vdW  Elec       q    Type
REMARK                         _______ _______ _______ _____ _____    ______ ____
ROOT
ATOM      1  C   UNL     1       6.978   5.490  17.736  0.00  0.00    +0.000 C 
ATOM      2  C   UNL     1       6.140   4.964  18.882  0.00  0.00    +0.000 C 
ATOM      3  O   UNL     1       6.367   4.740  20.049  0.00  0.00    +0.000 OA
ATOM      4  N   UNL     1       5.075   4.687  18.083  0.00  0.00    +0.000 N 
ATOM      5  C   UNL     1       5.667   5.345  16.889  0.00  0.00    +0.000 C 
ENDROOT
BRANCH   4   6
ATOM      6  C   UNL     1       4.214   3.509  18.158  0.00  0.00    +0.000 C 
ATOM      7  C   UNL     1       3.815   3.040  19.580  0.00  0.00    +0.000 C 
ATOM      8  C   UNL     1       2.633   3.768  20.227  0.00  0.00    +0.000 C 
ATOM      9  C   UNL     1       1.458   3.982  19.280  0.00  0.00    +0.000 C 
ATOM     10  C   UNL     1       1.918   4.583  17.961  0.00  0.00    +0.000 C 
ATOM     11  C   UNL     1       2.953   3.679  17.298  0.00  0.00    +0.000 C 
ENDBRANCH   4   6
BRANCH   1  14
ATOM     12  C   UNL     1       8.399   8.689  18.299  0.00  0.00    +0.000 A 
ATOM     13  C   UNL     1       8.295   7.375  18.697  0.00  0.00    +0.000 A 
ATOM     14  N   UNL     1       7.449   6.827  17.783  0.00  0.00    +0.000 N 
ATOM     15  N   UNL     1       7.044   7.738  16.878  0.00  0.00    +0.000 NA
ATOM     16  N   UNL     1       7.616   8.889  17.187  0.00  0.00    +0.000 NA
BRANCH  12  17
ATOM     17  C   UNL     1       9.147   9.804  18.929  0.00  0.00    +0.000 C 
BRANCH  17  18
ATOM     18  O   UNL     1       8.618  11.073  18.554  0.00  0.00    +0.000 OA
BRANCH  18  24
ATOM     19  C   UNL     1       9.661  13.147  19.475  0.00  0.00    +0.000 A 
ATOM     20  C   UNL     1      10.635  14.130  19.267  0.00  0.00    +0.000 A 
ATOM     21  C   UNL     1      11.349  14.174  18.072  0.00  0.00    +0.000 A 
ATOM     22  C   UNL     1      11.165  13.191  17.101  0.00  0.00    +0.000 A 
ATOM     23  C   UNL     1      10.245  12.167  17.337  0.00  0.00    +0.000 A 
ATOM     24  C   UNL     1       9.484  12.135  18.516  0.00  0.00    +0.000 A 
BRANCH  19  26
ATOM     25  C   UNL     1       8.082  14.299  20.805  0.00  0.00    +0.000 C 
ATOM     26  O   UNL     1       8.917  13.152  20.624  0.00  0.00    +0.000 OA
ENDBRANCH  19  26
BRANCH  21  27
ATOM     27  C   UNL     1      12.284  15.290  17.827  0.00  0.00    +0.000 C 
ATOM     28  O   UNL     1      12.160  16.370  18.392  0.00  0.00    +0.000 OA
ENDBRANCH  21  27
ENDBRANCH  18  24
ENDBRANCH  17  18
ENDBRANCH  12  17
ENDBRANCH   1  14
BRANCH   5  29
ATOM     29  C   UNL     1       5.929   4.546  15.664  0.00  0.00    +0.000 C 
ATOM     30  C   UNL     1       5.471   4.826  14.436  0.00  0.00    +0.000 C 
BRANCH  30  31
ATOM     31  C   UNL     1       5.783   3.958  13.282  0.00  0.00    +0.000 A 
ATOM     32  C   UNL     1       4.775   3.267  12.587  0.00  0.00    +0.000 A 
ATOM     33  C   UNL     1       5.072   2.482  11.473  0.00  0.00    +0.000 A 
ATOM     34  C   UNL     1       6.383   2.391  11.020  0.00  0.00    +0.000 A 
ATOM     35  C   UNL     1       7.396   3.079  11.687  0.00  0.00    +0.000 A 
ATOM     36  C   UNL     1       7.099   3.859  12.812  0.00  0.00    +0.000 A 
ENDBRANCH  30  31
ENDBRANCH   5  29
TORSDOF 9
ENDMDL
MODEL 3
REMARK VINA RESULT:      -8.6      1.038      1.506
REMARK  Name = 
REMARK  10 active torsions:
REMARK  status: ('A' for Active; 'I' for Inactive)
REMARK    1  A    between atoms: C_1  and  O_2
REMARK    2  A    between atoms: O_2  and  C_3
REMARK    3  A    between atoms: C_5  and  C_6
REMARK    4  A    between atoms: C_10  and  O_11
REMARK    5  A    between atoms: O_11  and  C_12
REMARK    6  A    between atoms: C_12  and  C_13
REMARK    7  A    between atoms: N_15  and  C_16
REMARK    8  A    between atoms: N_19  and  C_20
REMARK    9  A    between atoms: C_26  and  C_27
REMARK   10  A    between atoms: C_28  and  C_29
REMARK                            x       y       z     vdW  Elec       q    Type
REMARK                         _______ _______ _______ _____ _____    ______ ____
ROOT
ATOM      1  C   UNL     1       7.009   5.491  17.680  0.00  0.00    +0.000 C 
ATOM      2  C   UNL     1       6.129   4.930  18.777  0.00  0.00    +0.000 C 
ATOM      3  O   UNL     1       6.316   4.657  19.941  0.00  0.00    +0.000 OA
ATOM      4  N   UNL     1       5.087   4.699  17.934  0.00  0.00    +0.000 N 
ATOM      5  C   UNL     1       5.724   5.397  16.787  0.00  0.00    +0.000 C 
ENDROOT
BRANCH   4   6
ATOM      6  C   UNL     1       4.210   3.530  17.934  0.00  0.00    +0.000 C 
ATOM      7  C   UNL     1       3.852   2.940  19.322  0.00  0.00    +0.000 C 
ATOM      8  C   UNL     1       2.704   3.622  20.072  0.00  0.00    +0.000 C 
ATOM      9  C   UNL     1       1.502   3.935  19.190  0.00  0.00    +0.000 C 
ATOM     10  C   UNL     1       1.927   4.646  17.914  0.00  0.00    +0.000 C 
ATOM     11  C   UNL     1       2.924   3.791  17.137  0.00  0.00    +0.000 C 
ENDBRANCH   4   6
BRANCH   1  14
ATOM     12  C   UNL     1       8.436   8.651  18.424  0.00  0.00    +0.000 A 
ATOM     13  C   UNL     1       8.293   7.326  18.774  0.00  0.00    +0.000 A 
ATOM     14  N   UNL     1       7.493   6.819  17.796  0.00  0.00    +0.000 N 
ATOM     15  N   UNL     1       7.151   7.764  16.901  0.00  0.00    +0.000 NA
ATOM     16  N   UNL     1       7.719   8.897  17.277  0.00  0.00    +0.000 NA
BRANCH  12  17
ATOM     17  C   UNL     1       9.161   9.735  19.130  0.00  0.00    +0.000 C 
BRANCH  17  18
ATOM     18  O   UNL     1       9.283  10.902  18.322  0.00  0.00    +0.000 OA
BRANCH  18  24
ATOM     19  C   UNL     1      10.848  12.839  18.519  0.00  0.00    +0.000 A 
ATOM     20  C   UNL     1      11.157  13.994  19.245  0.00  0.00    +0.000 A 
ATOM     21  C   UNL     1      10.468  14.295  20.418  0.00  0.00    +0.000 A 
ATOM     22  C   UNL     1       9.406  13.496  20.840  0.00  0.00    +0.000 A 
ATOM     23  C   UNL     1       9.049  12.382  20.076  0.00  0.00    +0.000 A 
ATOM     24  C   UNL     1       9.763  12.039  18.918  0.00  0.00    +0.000 A 
BRANCH  19  26
ATOM     25  C   UNL     1      11.701  13.558  16.434  0.00  0.00    +0.000 C 
ATOM     26  O   UNL     1      11.576  12.516  17.405  0.00  0.00    +0.000 OA
ENDBRANCH  19  26
BRANCH  21  27
ATOM     27  C   UNL     1      10.891  15.452  21.231  0.00  0.00    +0.000 C 
ATOM     28  O   UNL     1      11.780  16.209  20.860  0.00  0.00    +0.000 OA
ENDBRANCH  21  27
ENDBRANCH  18  24
ENDBRANCH  17  18
ENDBRANCH  12  17
ENDBRANCH   1  14
BRANCH   5  29
ATOM     29  C   UNL     1       6.016   4.645  15.539  0.00  0.00    +0.000 C 
ATOM     30  C   UNL     1       5.313   4.716  14.401  0.00  0.00    +0.000 C 
BRANCH  30  31
ATOM     31  C   UNL     1       5.684   3.916  13.216  0.00  0.00    +0.000 A 
ATOM     32  C   UNL     1       7.023   3.773  12.815  0.00  0.00    +0.000 A 
ATOM     33  C   UNL     1       7.370   2.982  11.719  0.00  0.00    +0.000 A 
ATOM     34  C   UNL     1       6.383   2.302  11.016  0.00  0.00    +0.000 A 
ATOM     35  C   UNL     1       5.049   2.421  11.406  0.00  0.00    +0.000 A 
ATOM     36  C   UNL     1       4.700   3.222  12.500  0.00  0.00    +0.000 A 
ENDBRANCH  30  31
ENDBRANCH   5  29
TORSDOF 9
ENDMDL
MODEL 4
REMARK VINA RESULT:      -8.5      3.056      5.453
REMARK  Name = 
REMARK  10 active torsions:
REMARK  status: ('A' for Active; 'I' for Inactive)
REMARK    1  A    between atoms: C_1  and  O_2
REMARK    2  A    between atoms: O_2  and  C_3
REMARK    3  A    between atoms: C_5  and  C_6
REMARK    4  A    between atoms: C_10  and  O_11
REMARK    5  A    between atoms: O_11  and  C_12
REMARK    6  A    between atoms: C_12  and  C_13
REMARK    7  A    between atoms: N_15  and  C_16
REMARK    8  A    between atoms: N_19  and  C_20
REMARK    9  A    between atoms: C_26  and  C_27
REMARK   10  A    between atoms: C_28  and  C_29
REMARK                            x       y       z     vdW  Elec       q    Type
REMARK                         _______ _______ _______ _____ _____    ______ ____
ROOT
ATOM      1  C   UNL     1       4.121   6.152  17.167  0.00  0.00    +0.000 C 
ATOM      2  C   UNL     1       3.894   4.667  17.356  0.00  0.00    +0.000 C 
ATOM      3  O   UNL     1       4.163   3.690  16.694  0.00  0.00    +0.000 OA
ATOM      4  N   UNL     1       3.139   4.842  18.473  0.00  0.00    +0.000 N 
ATOM      5  C   UNL     1       3.419   6.299  18.561  0.00  0.00    +0.000 C 
ENDROOT
BRANCH   4   6
ATOM      6  C   UNL     1       1.924   4.111  18.825  0.00  0.00    +0.000 C 
ATOM      7  C   UNL     1       2.043   2.566  18.877  0.00  0.00    +0.000 C 
ATOM      8  C   UNL     1       2.603   1.973  20.173  0.00  0.00    +0.000 C 
ATOM      9  C   UNL     1       2.021   2.605  21.432  0.00  0.00    +0.000 C 
ATOM     10  C   UNL     1       2.078   4.123  21.362  0.00  0.00    +0.000 C 
ATOM     11  C   UNL     1       1.318   4.626  20.138  0.00  0.00    +0.000 C 
ENDBRANCH   4   6
BRANCH   1  14
ATOM     12  C   UNL     1       7.263   7.752  17.541  0.00  0.00    +0.000 A 
ATOM     13  C   UNL     1       5.953   7.646  17.954  0.00  0.00    +0.000 A 
ATOM     14  N   UNL     1       5.448   6.653  17.172  0.00  0.00    +0.000 N 
ATOM     15  N   UNL     1       6.375   6.176  16.322  0.00  0.00    +0.000 NA
ATOM     16  N   UNL     1       7.495   6.846  16.533  0.00  0.00    +0.000 NA
BRANCH  12  17
ATOM     17  C   UNL     1       8.317   8.694  17.990  0.00  0.00    +0.000 C 
BRANCH  17  18
ATOM     18  O   UNL     1       8.030  10.033  17.596  0.00  0.00    +0.000 OA
BRANCH  18  24
ATOM     19  C   UNL     1       8.741  12.412  17.870  0.00  0.00    +0.000 A 
ATOM     20  C   UNL     1       9.632  13.274  18.519  0.00  0.00    +0.000 A 
ATOM     21  C   UNL     1      10.666  12.763  19.301  0.00  0.00    +0.000 A 
ATOM     22  C   UNL     1      10.777  11.391  19.517  0.00  0.00    +0.000 A 
ATOM     23  C   UNL     1       9.845  10.532  18.930  0.00  0.00    +0.000 A 
ATOM     24  C   UNL     1       8.826  11.028  18.101  0.00  0.00    +0.000 A 
BRANCH  19  26
ATOM     25  C   UNL     1       7.128  14.105  17.526  0.00  0.00    +0.000 C 
ATOM     26  O   UNL     1       7.771  12.920  17.050  0.00  0.00    +0.000 OA
ENDBRANCH  19  26
BRANCH  21  27
ATOM     27  C   UNL     1      11.663  13.686  19.876  0.00  0.00    +0.000 C 
ATOM     28  O   UNL     1      11.667  14.881  19.605  0.00  0.00    +0.000 OA
ENDBRANCH  21  27
ENDBRANCH  18  24
ENDBRANCH  17  18
ENDBRANCH  12  17
ENDBRANCH   1  14
BRANCH   5  29
ATOM     29  C   UNL     1       2.297   7.269  18.474  0.00  0.00    +0.000 C 
ATOM     30  C   UNL     1       2.138   8.350  19.250  0.00  0.00    +0.000 C 
BRANCH  30  31
ATOM     31  C   UNL     1       0.977   9.250  19.087  0.00  0.00    +0.000 A 
ATOM     32  C   UNL     1       0.405   9.492  17.826  0.00  0.00    +0.000 A 
ATOM     33  C   UNL     1      -0.716  10.310  17.686  0.00  0.00    +0.000 A 
ATOM     34  C   UNL     1      -1.300  10.884  18.809  0.00  0.00    +0.000 A 
ATOM     35  C   UNL     1      -0.756  10.645  20.070  0.00  0.00    +0.000 A 
ATOM     36  C   UNL     1       0.376   9.833  20.211  0.00  0.00    +0.000 A 
ENDBRANCH  30  31
ENDBRANCH   5  29
TORSDOF 9
ENDMDL
MODEL 5
REMARK VINA RESULT:      -8.3      3.344      5.601
REMARK  Name = 
REMARK  10 active torsions:
REMARK  status: ('A' for Active; 'I' for Inactive)
REMARK    1  A    between atoms: C_1  and  O_2
REMARK    2  A    between atoms: O_2  and  C_3
REMARK    3  A    between atoms: C_5  and  C_6
REMARK    4  A    between atoms: C_10  and  O_11
REMARK    5  A    between atoms: O_11  and  C_12
REMARK    6  A    between atoms: C_12  and  C_13
REMARK    7  A    between atoms: N_15  and  C_16
REMARK    8  A    between atoms: N_19  and  C_20
REMARK    9  A    between atoms: C_26  and  C_27
REMARK   10  A    between atoms: C_28  and  C_29
REMARK                            x       y       z     vdW  Elec       q    Type
REMARK                         _______ _______ _______ _____ _____    ______ ____
ROOT
ATOM      1  C   UNL     1       4.096   6.262  17.170  0.00  0.00    +0.000 C 
ATOM      2  C   UNL     1       3.787   4.808  17.458  0.00  0.00    +0.000 C 
ATOM      3  O   UNL     1       4.038   3.772  16.885  0.00  0.00    +0.000 OA
ATOM      4  N   UNL     1       2.991   5.102  18.520  0.00  0.00    +0.000 N 
ATOM      5  C   UNL     1       3.338   6.547  18.513  0.00  0.00    +0.000 C 
ENDROOT
BRANCH   4   6
ATOM      6  C   UNL     1       1.726   4.457  18.864  0.00  0.00    +0.000 C 
ATOM      7  C   UNL     1       1.640   2.931  18.603  0.00  0.00    +0.000 C 
ATOM      8  C   UNL     1       2.233   2.024  19.686  0.00  0.00    +0.000 C 
ATOM      9  C   UNL     1       1.860   2.445  21.102  0.00  0.00    +0.000 C 
ATOM     10  C   UNL     1       2.113   3.928  21.320  0.00  0.00    +0.000 C 
ATOM     11  C   UNL     1       1.318   4.756  20.314  0.00  0.00    +0.000 C 
ENDBRANCH   4   6
BRANCH   1  14
ATOM     12  C   UNL     1       7.266   7.837  17.367  0.00  0.00    +0.000 A 
ATOM     13  C   UNL     1       5.900   7.946  17.509  0.00  0.00    +0.000 A 
ATOM     14  N   UNL     1       5.444   6.701  17.204  0.00  0.00    +0.000 N 
ATOM     15  N   UNL     1       6.454   5.870  16.886  0.00  0.00    +0.000 NA
ATOM     16  N   UNL     1       7.580   6.557  16.976  0.00  0.00    +0.000 NA
BRANCH  12  17
ATOM     17  C   UNL     1       8.313   8.877  17.519  0.00  0.00    +0.000 C 
BRANCH  17  18
ATOM     18  O   UNL     1       8.332   9.418  18.837  0.00  0.00    +0.000 OA
BRANCH  18  24
ATOM     19  C   UNL     1       9.545  10.994  20.348  0.00  0.00    +0.000 A 
ATOM     20  C   UNL     1      10.584  11.927  20.436  0.00  0.00    +0.000 A 
ATOM     21  C   UNL     1      11.275  12.324  19.293  0.00  0.00    +0.000 A 
ATOM     22  C   UNL     1      10.998  11.736  18.060  0.00  0.00    +0.000 A 
ATOM     23  C   UNL     1      10.010  10.751  17.983  0.00  0.00    +0.000 A 
ATOM     24  C   UNL     1       9.273  10.375  19.116  0.00  0.00    +0.000 A 
BRANCH  19  26
ATOM     25  C   UNL     1       8.429  11.763  22.286  0.00  0.00    +0.000 C 
ATOM     26  O   UNL     1       8.827  10.661  21.466  0.00  0.00    +0.000 OA
ENDBRANCH  19  26
BRANCH  21  27
ATOM     27  C   UNL     1      12.284  13.395  19.392  0.00  0.00    +0.000 C 
ATOM     28  O   UNL     1      11.965  14.573  19.505  0.00  0.00    +0.000 OA
ENDBRANCH  21  27
ENDBRANCH  18  24
ENDBRANCH  17  18
ENDBRANCH  12  17
ENDBRANCH   1  14
BRANCH   5  29
ATOM     29  C   UNL     1       2.271   7.559  18.298  0.00  0.00    +0.000 C 
ATOM     30  C   UNL     1       2.294   8.824  18.741  0.00  0.00    +0.000 C 
BRANCH  30  31
ATOM     31  C   UNL     1       1.172   9.750  18.481  0.00  0.00    +0.000 A 
ATOM     32  C   UNL     1      -0.017   9.312  17.873  0.00  0.00    +0.000 A 
ATOM     33  C   UNL     1      -1.088  10.183  17.668  0.00  0.00    +0.000 A 
ATOM     34  C   UNL     1      -0.996  11.505  18.088  0.00  0.00    +0.000 A 
ATOM     35  C   UNL     1       0.171  11.955  18.704  0.00  0.00    +0.000 A 
ATOM     36  C   UNL     1       1.250  11.084  18.901  0.00  0.00    +0.000 A 
ENDBRANCH  30  31
ENDBRANCH   5  29
TORSDOF 9
ENDMDL
MODEL 6
REMARK VINA RESULT:      -8.3      1.380      1.747
REMARK  Name = 
REMARK  10 active torsions:
REMARK  status: ('A' for Active; 'I' for Inactive)
REMARK    1  A    between atoms: C_1  and  O_2
REMARK    2  A    between atoms: O_2  and  C_3
REMARK    3  A    between atoms: C_5  and  C_6
REMARK    4  A    between atoms: C_10  and  O_11
REMARK    5  A    between atoms: O_11  and  C_12
REMARK    6  A    between atoms: C_12  and  C_13
REMARK    7  A    between atoms: N_15  and  C_16
REMARK    8  A    between atoms: N_19  and  C_20
REMARK    9  A    between atoms: C_26  and  C_27
REMARK   10  A    between atoms: C_28  and  C_29
REMARK                            x       y       z     vdW  Elec       q    Type
REMARK                         _______ _______ _______ _____ _____    ______ ____
ROOT
ATOM      1  C   UNL     1       6.381   5.390  17.664  0.00  0.00    +0.000 C 
ATOM      2  C   UNL     1       5.460   4.986  18.795  0.00  0.00    +0.000 C 
ATOM      3  O   UNL     1       5.637   4.724  19.963  0.00  0.00    +0.000 OA
ATOM      4  N   UNL     1       4.376   4.876  17.982  0.00  0.00    +0.000 N 
ATOM      5  C   UNL     1       5.074   5.447  16.800  0.00  0.00    +0.000 C 
ENDROOT
BRANCH   4   6
ATOM      6  C   UNL     1       3.349   3.838  18.036  0.00  0.00    +0.000 C 
ATOM      7  C   UNL     1       3.690   2.579  18.873  0.00  0.00    +0.000 C 
ATOM      8  C   UNL     1       3.459   2.686  20.384  0.00  0.00    +0.000 C 
ATOM      9  C   UNL     1       2.138   3.349  20.751  0.00  0.00    +0.000 C 
ATOM     10  C   UNL     1       1.949   4.655  19.994  0.00  0.00    +0.000 C 
ATOM     11  C   UNL     1       1.997   4.407  18.489  0.00  0.00    +0.000 C 
ENDBRANCH   4   6
BRANCH   1  14
ATOM     12  C   UNL     1       8.263   8.335  18.264  0.00  0.00    +0.000 A 
ATOM     13  C   UNL     1       7.969   7.043  18.641  0.00  0.00    +0.000 A 
ATOM     14  N   UNL     1       7.044   6.643  17.727  0.00  0.00    +0.000 N 
ATOM     15  N   UNL     1       6.769   7.620  16.844  0.00  0.00    +0.000 NA
ATOM     16  N   UNL     1       7.507   8.669  17.165  0.00  0.00    +0.000 NA
BRANCH  12  17
ATOM     17  C   UNL     1       9.172   9.317  18.904  0.00  0.00    +0.000 C 
BRANCH  17  18
ATOM     18  O   UNL     1       8.612  10.627  18.914  0.00  0.00    +0.000 OA
BRANCH  18  24
ATOM     19  C   UNL     1       9.393  12.981  19.208  0.00  0.00    +0.000 A 
ATOM     20  C   UNL     1      10.385  13.910  18.874  0.00  0.00    +0.000 A 
ATOM     21  C   UNL     1      11.369  13.587  17.943  0.00  0.00    +0.000 A 
ATOM     22  C   UNL     1      11.430  12.308  17.392  0.00  0.00    +0.000 A 
ATOM     23  C   UNL     1      10.484  11.356  17.779  0.00  0.00    +0.000 A 
ATOM     24  C   UNL     1       9.458  11.680  18.680  0.00  0.00    +0.000 A 
BRANCH  19  26
ATOM     25  C   UNL     1       7.884  14.658  19.916  0.00  0.00    +0.000 C 
ATOM     26  O   UNL     1       8.391  13.330  20.073  0.00  0.00    +0.000 OA
ENDBRANCH  19  26
BRANCH  21  27
ATOM     27  C   UNL     1      12.332  14.622  17.518  0.00  0.00    +0.000 C 
ATOM     28  O   UNL     1      11.963  15.705  17.082  0.00  0.00    +0.000 OA
ENDBRANCH  21  27
ENDBRANCH  18  24
ENDBRANCH  17  18
ENDBRANCH  12  17
ENDBRANCH   1  14
BRANCH   5  29
ATOM     29  C   UNL     1       5.231   4.627  15.571  0.00  0.00    +0.000 C 
ATOM     30  C   UNL     1       5.901   4.992  14.469  0.00  0.00    +0.000 C 
BRANCH  30  31
ATOM     31  C   UNL     1       5.988   4.102  13.293  0.00  0.00    +0.000 A 
ATOM     32  C   UNL     1       7.222   3.797  12.691  0.00  0.00    +0.000 A 
ATOM     33  C   UNL     1       7.301   2.924  11.607  0.00  0.00    +0.000 A 
ATOM     34  C   UNL     1       6.149   2.322  11.116  0.00  0.00    +0.000 A 
ATOM     35  C   UNL     1       4.917   2.601  11.707  0.00  0.00    +0.000 A 
ATOM     36  C   UNL     1       4.835   3.485  12.790  0.00  0.00    +0.000 A 
ENDBRANCH  30  31
ENDBRANCH   5  29
TORSDOF 9
ENDMDL
MODEL 7
REMARK VINA RESULT:      -8.2      1.885      2.329
REMARK  Name = 
REMARK  10 active torsions:
REMARK  status: ('A' for Active; 'I' for Inactive)
REMARK    1  A    between atoms: C_1  and  O_2
REMARK    2  A    between atoms: O_2  and  C_3
REMARK    3  A    between atoms: C_5  and  C_6
REMARK    4  A    between atoms: C_10  and  O_11
REMARK    5  A    between atoms: O_11  and  C_12
REMARK    6  A    between atoms: C_12  and  C_13
REMARK    7  A    between atoms: N_15  and  C_16
REMARK    8  A    between atoms: N_19  and  C_20
REMARK    9  A    between atoms: C_26  and  C_27
REMARK   10  A    between atoms: C_28  and  C_29
REMARK                            x       y       z     vdW  Elec       q    Type
REMARK                         _______ _______ _______ _____ _____    ______ ____
ROOT
ATOM      1  C   UNL     1       7.357   6.007  17.908  0.00  0.00    +0.000 C 
ATOM      2  C   UNL     1       6.594   5.396  19.064  0.00  0.00    +0.000 C 
ATOM      3  O   UNL     1       6.880   5.139  20.211  0.00  0.00    +0.000 OA
ATOM      4  N   UNL     1       5.510   5.100  18.298  0.00  0.00    +0.000 N 
ATOM      5  C   UNL     1       6.020   5.831  17.109  0.00  0.00    +0.000 C 
ENDROOT
BRANCH   4   6
ATOM      6  C   UNL     1       4.710   3.878  18.358  0.00  0.00    +0.000 C 
ATOM      7  C   UNL     1       4.183   3.472  19.758  0.00  0.00    +0.000 C 
ATOM      8  C   UNL     1       2.901   4.165  20.228  0.00  0.00    +0.000 C 
ATOM      9  C   UNL     1       1.827   4.252  19.150  0.00  0.00    +0.000 C 
ATOM     10  C   UNL     1       2.396   4.800  17.851  0.00  0.00    +0.000 C 
ATOM     11  C   UNL     1       3.543   3.921  17.361  0.00  0.00    +0.000 C 
ENDBRANCH   4   6
BRANCH   1  14
ATOM     12  C   UNL     1       8.640   9.250  18.550  0.00  0.00    +0.000 A 
ATOM     13  C   UNL     1       8.607   7.919  18.904  0.00  0.00    +0.000 A 
ATOM     14  N   UNL     1       7.766   7.363  17.990  0.00  0.00    +0.000 N 
ATOM     15  N   UNL     1       7.297   8.283  17.128  0.00  0.00    +0.000 NA
ATOM     16  N   UNL     1       7.822   9.449  17.463  0.00  0.00    +0.000 NA
BRANCH  12  17
ATOM     17  C   UNL     1       9.350  10.378  19.201  0.00  0.00    +0.000 C 
BRANCH  17  18
ATOM     18  O   UNL     1       9.055  10.454  20.593  0.00  0.00    +0.000 OA
BRANCH  18  24
ATOM     19  C   UNL     1       8.689  12.076  22.457  0.00  0.00    +0.000 A 
ATOM     20  C   UNL     1       8.961  13.367  22.922  0.00  0.00    +0.000 A 
ATOM     21  C   UNL     1       9.618  14.287  22.108  0.00  0.00    +0.000 A 
ATOM     22  C   UNL     1      10.088  13.910  20.852  0.00  0.00    +0.000 A 
ATOM     23  C   UNL     1       9.882  12.600  20.414  0.00  0.00    +0.000 A 
ATOM     24  C   UNL     1       9.180  11.675  21.202  0.00  0.00    +0.000 A 
BRANCH  19  26
ATOM     25  C   UNL     1       7.015  11.799  24.103  0.00  0.00    +0.000 C 
ATOM     26  O   UNL     1       7.983  11.201  23.237  0.00  0.00    +0.000 OA
ENDBRANCH  19  26
BRANCH  21  27
ATOM     27  C   UNL     1       9.786  15.677  22.575  0.00  0.00    +0.000 C 
ATOM     28  O   UNL     1       9.629  15.986  23.750  0.00  0.00    +0.000 OA
ENDBRANCH  21  27
ENDBRANCH  18  24
ENDBRANCH  17  18
ENDBRANCH  12  17
ENDBRANCH   1  14
BRANCH   5  29
ATOM     29  C   UNL     1       6.268   5.095  15.842  0.00  0.00    +0.000 C 
ATOM     30  C   UNL     1       5.463   5.089  14.771  0.00  0.00    +0.000 C 
BRANCH  30  31
ATOM     31  C   UNL     1       5.799   4.312  13.560  0.00  0.00    +0.000 A 
ATOM     32  C   UNL     1       7.107   4.281  13.046  0.00  0.00    +0.000 A 
ATOM     33  C   UNL     1       7.426   3.512  11.926  0.00  0.00    +0.000 A 
ATOM     34  C   UNL     1       6.445   2.743  11.312  0.00  0.00    +0.000 A 
ATOM     35  C   UNL     1       5.144   2.751  11.814  0.00  0.00    +0.000 A 
ATOM     36  C   UNL     1       4.821   3.530  12.932  0.00  0.00    +0.000 A 
ENDBRANCH  30  31
ENDBRANCH   5  29
TORSDOF 9
ENDMDL
MODEL 8
REMARK VINA RESULT:      -8.2      1.744      2.216
REMARK  Name = 
REMARK  10 active torsions:
REMARK  status: ('A' for Active; 'I' for Inactive)
REMARK    1  A    between atoms: C_1  and  O_2
REMARK    2  A    between atoms: O_2  and  C_3
REMARK    3  A    between atoms: C_5  and  C_6
REMARK    4  A    between atoms: C_10  and  O_11
REMARK    5  A    between atoms: O_11  and  C_12
REMARK    6  A    between atoms: C_12  and  C_13
REMARK    7  A    between atoms: N_15  and  C_16
REMARK    8  A    between atoms: N_19  and  C_20
REMARK    9  A    between atoms: C_26  and  C_27
REMARK   10  A    between atoms: C_28  and  C_29
REMARK                            x       y       z     vdW  Elec       q    Type
REMARK                         _______ _______ _______ _____ _____    ______ ____
ROOT
ATOM      1  C   UNL     1       7.365   6.389  17.841  0.00  0.00    +0.000 C 
ATOM      2  C   UNL     1       6.768   5.612  18.994  0.00  0.00    +0.000 C 
ATOM      3  O   UNL     1       7.220   5.168  20.025  0.00  0.00    +0.000 OA
ATOM      4  N   UNL     1       5.566   5.460  18.376  0.00  0.00    +0.000 N 
ATOM      5  C   UNL     1       5.913   6.367  17.251  0.00  0.00    +0.000 C 
ENDROOT
BRANCH   4   6
ATOM      6  C   UNL     1       4.735   4.258  18.373  0.00  0.00    +0.000 C 
ATOM      7  C   UNL     1       4.245   3.759  19.757  0.00  0.00    +0.000 C 
ATOM      8  C   UNL     1       2.999   4.446  20.323  0.00  0.00    +0.000 C 
ATOM      9  C   UNL     1       1.892   4.642  19.295  0.00  0.00    +0.000 C 
ATOM     10  C   UNL     1       2.431   5.274  18.021  0.00  0.00    +0.000 C 
ATOM     11  C   UNL     1       3.536   4.406  17.425  0.00  0.00    +0.000 C 
ENDBRANCH   4   6
BRANCH   1  14
ATOM     12  C   UNL     1       8.778   9.484  18.840  0.00  0.00    +0.000 A 
ATOM     13  C   UNL     1       8.659   8.130  19.067  0.00  0.00    +0.000 A 
ATOM     14  N   UNL     1       7.838   7.707  18.068  0.00  0.00    +0.000 N 
ATOM     15  N   UNL     1       7.461   8.727  17.275  0.00  0.00    +0.000 NA
ATOM     16  N   UNL     1       8.027   9.827  17.741  0.00  0.00    +0.000 NA
BRANCH  12  17
ATOM     17  C   UNL     1       9.511  10.507  19.625  0.00  0.00    +0.000 C 
BRANCH  17  18
ATOM     18  O   UNL     1      10.733  10.881  18.995  0.00  0.00    +0.000 OA
BRANCH  18  24
ATOM     19  C   UNL     1      10.959  13.297  19.586  0.00  0.00    +0.000 A 
ATOM     20  C   UNL     1      11.197  14.582  19.086  0.00  0.00    +0.000 A 
ATOM     21  C   UNL     1      11.279  14.801  17.713  0.00  0.00    +0.000 A 
ATOM     22  C   UNL     1      11.210  13.732  16.821  0.00  0.00    +0.000 A 
ATOM     23  C   UNL     1      11.046  12.438  17.322  0.00  0.00    +0.000 A 
ATOM     24  C   UNL     1      10.914  12.207  18.700  0.00  0.00    +0.000 A 
BRANCH  19  26
ATOM     25  C   UNL     1       9.892  13.985  21.581  0.00  0.00    +0.000 C 
ATOM     26  O   UNL     1      10.812  13.103  20.933  0.00  0.00    +0.000 OA
ENDBRANCH  19  26
BRANCH  21  27
ATOM     27  C   UNL     1      11.409  16.180  17.205  0.00  0.00    +0.000 C 
ATOM     28  O   UNL     1      10.556  16.686  16.487  0.00  0.00    +0.000 OA
ENDBRANCH  21  27
ENDBRANCH  18  24
ENDBRANCH  17  18
ENDBRANCH  12  17
ENDBRANCH   1  14
BRANCH   5  29
ATOM     29  C   UNL     1       5.928   5.841  15.861  0.00  0.00    +0.000 C 
ATOM     30  C   UNL     1       6.710   4.851  15.409  0.00  0.00    +0.000 C 
BRANCH  30  31
ATOM     31  C   UNL     1       6.654   4.409  14.000  0.00  0.00    +0.000 A 
ATOM     32  C   UNL     1       5.671   3.511  13.549  0.00  0.00    +0.000 A 
ATOM     33  C   UNL     1       5.598   3.130  12.209  0.00  0.00    +0.000 A 
ATOM     34  C   UNL     1       6.497   3.658  11.290  0.00  0.00    +0.000 A 
ATOM     35  C   UNL     1       7.471   4.560  11.714  0.00  0.00    +0.000 A 
ATOM     36  C   UNL     1       7.551   4.935  13.061  0.00  0.00    +0.000 A 
ENDBRANCH  30  31
ENDBRANCH   5  29
TORSDOF 9
ENDMDL
MODEL 9
REMARK VINA RESULT:      -8.0      6.839     11.601
REMARK  Name = 
REMARK  10 active torsions:
REMARK  status: ('A' for Active; 'I' for Inactive)
REMARK    1  A    between atoms: C_1  and  O_2
REMARK    2  A    between atoms: O_2  and  C_3
REMARK    3  A    between atoms: C_5  and  C_6
REMARK    4  A    between atoms: C_10  and  O_11
REMARK    5  A    between atoms: O_11  and  C_12
REMARK    6  A    between atoms: C_12  and  C_13
REMARK    7  A    between atoms: N_15  and  C_16
REMARK    8  A    between atoms: N_19  and  C_20
REMARK    9  A    between atoms: C_26  and  C_27
REMARK   10  A    between atoms: C_28  and  C_29
REMARK                            x       y       z     vdW  Elec       q    Type
REMARK                         _______ _______ _______ _____ _____    ______ ____
ROOT
ATOM      1  C   UNL     1       0.187  11.072  20.203  0.00  0.00    +0.000 C 
ATOM      2  C   UNL     1       0.968  12.354  20.396  0.00  0.00    +0.000 C 
ATOM      3  O   UNL     1       1.896  12.667  21.106  0.00  0.00    +0.000 OA
ATOM      4  N   UNL     1       0.145  13.073  19.587  0.00  0.00    +0.000 N 
ATOM      5  C   UNL     1      -0.615  11.882  19.127  0.00  0.00    +0.000 C 
ENDROOT
BRANCH   4   6
ATOM      6  C   UNL     1      -0.324  14.438  19.815  0.00  0.00    +0.000 C 
ATOM      7  C   UNL     1      -0.277  14.944  21.279  0.00  0.00    +0.000 C 
ATOM      8  C   UNL     1       1.072  15.478  21.769  0.00  0.00    +0.000 C 
ATOM      9  C   UNL     1       1.766  16.389  20.764  0.00  0.00    +0.000 C 
ATOM     10  C   UNL     1       1.808  15.753  19.384  0.00  0.00    +0.000 C 
ATOM     11  C   UNL     1       0.395  15.440  18.900  0.00  0.00    +0.000 C 
ENDBRANCH   4   6
BRANCH   1  14
ATOM     12  C   UNL     1       1.859   8.070  19.328  0.00  0.00    +0.000 A 
ATOM     13  C   UNL     1       1.284   8.837  20.317  0.00  0.00    +0.000 A 
ATOM     14  N   UNL     1       0.842   9.940  19.653  0.00  0.00    +0.000 N 
ATOM     15  N   UNL     1       1.128   9.873  18.340  0.00  0.00    +0.000 NA
ATOM     16  N   UNL     1       1.759   8.731  18.126  0.00  0.00    +0.000 NA
BRANCH  12  17
ATOM     17  C   UNL     1       2.559   6.767  19.437  0.00  0.00    +0.000 C 
BRANCH  17  18
ATOM     18  O   UNL     1       2.325   5.945  18.297  0.00  0.00    +0.000 OA
BRANCH  18  24
ATOM     19  C   UNL     1       3.698   4.174  17.194  0.00  0.00    +0.000 A 
ATOM     20  C   UNL     1       4.861   3.916  16.460  0.00  0.00    +0.000 A 
ATOM     21  C   UNL     1       5.792   4.927  16.235  0.00  0.00    +0.000 A 
ATOM     22  C   UNL     1       5.539   6.229  16.664  0.00  0.00    +0.000 A 
ATOM     23  C   UNL     1       4.344   6.505  17.333  0.00  0.00    +0.000 A 
ATOM     24  C   UNL     1       3.419   5.487  17.610  0.00  0.00    +0.000 A 
BRANCH  19  26
ATOM     25  C   UNL     1       3.396   2.010  18.099  0.00  0.00    +0.000 C 
ATOM     26  O   UNL     1       2.822   3.158  17.469  0.00  0.00    +0.000 OA
ENDBRANCH  19  26
BRANCH  21  27
ATOM     27  C   UNL     1       7.065   4.604  15.563  0.00  0.00    +0.000 C 
ATOM     28  O   UNL     1       7.528   5.317  14.681  0.00  0.00    +0.000 OA
ENDBRANCH  21  27
ENDBRANCH  18  24
ENDBRANCH  17  18
ENDBRANCH  12  17
ENDBRANCH   1  14
BRANCH   5  29
ATOM     29  C   UNL     1      -2.074  11.792  19.394  0.00  0.00    +0.000 C 
ATOM     30  C   UNL     1      -3.039  11.785  18.464  0.00  0.00    +0.000 C 
BRANCH  30  31
ATOM     31  C   UNL     1      -4.467  11.702  18.838  0.00  0.00    +0.000 A 
ATOM     32  C   UNL     1      -4.990  12.443  19.912  0.00  0.00    +0.000 A 
ATOM     33  C   UNL     1      -6.346  12.391  20.233  0.00  0.00    +0.000 A 
ATOM     34  C   UNL     1      -7.210  11.613  19.471  0.00  0.00    +0.000 A 
ATOM     35  C   UNL     1      -6.712  10.881  18.393  0.00  0.00    +0.000 A 
ATOM     36  C   UNL     1      -5.349  10.925  18.077  0.00  0.00    +0.000 A 
ENDBRANCH  30  31
ENDBRANCH   5  29
TORSDOF 9
ENDMDL
