MODEL 1
REMARK VINA RESULT:      -7.8      0.000      0.000
REMARK  Name = 
REMARK  3 active torsions:
REMARK  status: ('A' for Active; 'I' for Inactive)
REMARK    1  A    between atoms: C_6  and  C_7
REMARK    2  A    between atoms: C_11  and  C_12
REMARK    3  A    between atoms: C_17  and  C_18
REMARK                            x       y       z     vdW  Elec       q    Type
REMARK                         _______ _______ _______ _____ _____    ______ ____
ROOT
ATOM      1  C   UNL     1       1.889   6.529  19.474  0.00  0.00    +0.000 A 
ATOM      2  C   UNL     1       1.042   7.448  20.147  0.00  0.00    +0.000 A 
ATOM      3  C   UNL     1       1.030   8.818  19.892  0.00  0.00    +0.000 A 
ATOM      4  N   UNL     1       0.253   9.637  20.629  0.00  0.00    +0.000 NA
ATOM      5  C   UNL     1       0.342  10.977  20.373  0.00  0.00    +0.000 A 
ATOM      6  C   UNL     1       1.208  11.473  19.401  0.00  0.00    +0.000 A 
ATOM      7  N   UNL     1       1.943  10.642  18.615  0.00  0.00    +0.000 NA
ATOM      8  C   UNL     1       1.860   9.326  18.874  0.00  0.00    +0.000 A 
ATOM      9  C   UNL     1       2.648   8.449  18.153  0.00  0.00    +0.000 A 
ATOM     10  C   UNL     1       2.696   7.079  18.456  0.00  0.00    +0.000 A 
ATOM     11 BR   UNL     1       4.009   6.109  17.469  0.00  0.00    +0.000 Br
ENDROOT
BRANCH   1  17
ATOM     12  F   UNL     1       1.099   1.768  18.606  0.00  0.00    +0.000 F 
ATOM     13  C   UNL     1       1.479   2.726  19.462  0.00  0.00    +0.000 A 
ATOM     14  C   UNL     1       1.857   2.373  20.747  0.00  0.00    +0.000 A 
ATOM     15  C   UNL     1       2.289   3.366  21.617  0.00  0.00    +0.000 A 
ATOM     16  C   UNL     1       2.347   4.702  21.190  0.00  0.00    +0.000 A 
ATOM     17  C   UNL     1       1.908   5.100  19.911  0.00  0.00    +0.000 A 
ATOM     18  C   UNL     1       1.486   4.062  19.055  0.00  0.00    +0.000 A 
ATOM     19  F   UNL     1       1.071   4.335  17.808  0.00  0.00    +0.000 F 
ENDBRANCH   1  17
BRANCH   5  20
ATOM     20  C   UNL     1      -0.574  11.788  21.161  0.00  0.00    +0.000 A 
ATOM     21  C   UNL     1      -1.823  12.331  20.931  0.00  0.00    +0.000 A 
ATOM     22  C   UNL     1      -2.169  13.056  22.100  0.00  0.00    +0.000 A 
ATOM     23  C   UNL     1      -1.104  12.930  22.958  0.00  0.00    +0.000 A 
ATOM     24  O   UNL     1      -0.127  12.177  22.393  0.00  0.00    +0.000 OA
ENDBRANCH   5  20
BRANCH   6  25
ATOM     25  C   UNL     1       1.505  12.881  19.188  0.00  0.00    +0.000 A 
ATOM     26  C   UNL     1       0.861  13.912  18.528  0.00  0.00    +0.000 A 
ATOM     27  C   UNL     1       1.699  15.049  18.629  0.00  0.00    +0.000 A 
ATOM     28  C   UNL     1       2.817  14.639  19.313  0.00  0.00    +0.000 A 
ATOM     29  O   UNL     1       2.717  13.326  19.642  0.00  0.00    +0.000 OA
ENDBRANCH   6  25
TORSDOF 3
ENDMDL
MODEL 2
REMARK VINA RESULT:      -7.7      3.891      8.010
REMARK  Name = 
REMARK  3 active torsions:
REMARK  status: ('A' for Active; 'I' for Inactive)
REMARK    1  A    between atoms: C_6  and  C_7
REMARK    2  A    between atoms: C_11  and  C_12
REMARK    3  A    between atoms: C_17  and  C_18
REMARK                            x       y       z     vdW  Elec       q    Type
REMARK                         _______ _______ _______ _____ _____    ______ ____
ROOT
ATOM      1  C   UNL     1       0.099  10.656  20.531  0.00  0.00    +0.000 A 
ATOM      2  C   UNL     1       0.245   9.321  20.991  0.00  0.00    +0.000 A 
ATOM      3  C   UNL     1       1.047   8.369  20.363  0.00  0.00    +0.000 A 
ATOM      4  N   UNL     1       1.071   7.100  20.815  0.00  0.00    +0.000 NA
ATOM      5  C   UNL     1       1.824   6.202  20.111  0.00  0.00    +0.000 A 
ATOM      6  C   UNL     1       2.525   6.583  18.969  0.00  0.00    +0.000 A 
ATOM      7  N   UNL     1       2.551   7.877  18.551  0.00  0.00    +0.000 NA
ATOM      8  C   UNL     1       1.804   8.755  19.240  0.00  0.00    +0.000 A 
ATOM      9  C   UNL     1       1.738  10.066  18.807  0.00  0.00    +0.000 A 
ATOM     10  C   UNL     1       0.883  11.002  19.410  0.00  0.00    +0.000 A 
ATOM     11 BR   UNL     1       0.806  12.681  18.509  0.00  0.00    +0.000 Br
ENDROOT
BRANCH   1  17
ATOM     12  F   UNL     1      -4.105  13.181  20.551  0.00  0.00    +0.000 F 
ATOM     13  C   UNL     1      -2.976  12.834  21.185  0.00  0.00    +0.000 A 
ATOM     14  C   UNL     1      -2.728  13.343  22.450  0.00  0.00    +0.000 A 
ATOM     15  C   UNL     1      -1.577  12.947  23.119  0.00  0.00    +0.000 A 
ATOM     16  C   UNL     1      -0.689  12.041  22.520  0.00  0.00    +0.000 A 
ATOM     17  C   UNL     1      -0.881  11.558  21.209  0.00  0.00    +0.000 A 
ATOM     18  C   UNL     1      -2.066  11.974  20.568  0.00  0.00    +0.000 A 
ATOM     19  F   UNL     1      -2.352  11.551  19.326  0.00  0.00    +0.000 F 
ENDBRANCH   1  17
BRANCH   5  20
ATOM     20  C   UNL     1       1.853   4.871  20.698  0.00  0.00    +0.000 A 
ATOM     21  C   UNL     1       2.720   4.209  21.545  0.00  0.00    +0.000 A 
ATOM     22  C   UNL     1       2.197   2.902  21.718  0.00  0.00    +0.000 A 
ATOM     23  C   UNL     1       1.061   2.841  20.949  0.00  0.00    +0.000 A 
ATOM     24  O   UNL     1       0.852   4.021  20.316  0.00  0.00    +0.000 OA
ENDBRANCH   5  20
BRANCH   6  25
ATOM     25  C   UNL     1       3.195   5.669  18.058  0.00  0.00    +0.000 A 
ATOM     26  C   UNL     1       2.864   4.445  17.504  0.00  0.00    +0.000 A 
ATOM     27  C   UNL     1       3.977   4.028  16.736  0.00  0.00    +0.000 A 
ATOM     28  C   UNL     1       4.933   5.002  16.890  0.00  0.00    +0.000 A 
ATOM     29  O   UNL     1       4.476   5.991  17.700  0.00  0.00    +0.000 OA
ENDBRANCH   6  25
TORSDOF 3
ENDMDL
MODEL 3
REMARK VINA RESULT:      -7.7      1.191      1.231
REMARK  Name = 
REMARK  3 active torsions:
REMARK  status: ('A' for Active; 'I' for Inactive)
REMARK    1  A    between atoms: C_6  and  C_7
REMARK    2  A    between atoms: C_11  and  C_12
REMARK    3  A    between atoms: C_17  and  C_18
REMARK                            x       y       z     vdW  Elec       q    Type
REMARK                         _______ _______ _______ _____ _____    ______ ____
ROOT
ATOM      1  C   UNL     1       2.822   6.479  18.523  0.00  0.00    +0.000 A 
ATOM      2  C   UNL     1       1.896   7.158  19.358  0.00  0.00    +0.000 A 
ATOM      3  C   UNL     1       1.652   8.528  19.288  0.00  0.00    +0.000 A 
ATOM      4  N   UNL     1       0.816   9.112  20.169  0.00  0.00    +0.000 NA
ATOM      5  C   UNL     1       0.675  10.469  20.090  0.00  0.00    +0.000 A 
ATOM      6  C   UNL     1       1.377  11.216  19.145  0.00  0.00    +0.000 A 
ATOM      7  N   UNL     1       2.171  10.619  18.216  0.00  0.00    +0.000 NA
ATOM      8  C   UNL     1       2.313   9.286  18.302  0.00  0.00    +0.000 A 
ATOM      9  C   UNL     1       3.170   8.644  17.428  0.00  0.00    +0.000 A 
ATOM     10  C   UNL     1       3.453   7.274  17.543  0.00  0.00    +0.000 A 
ATOM     11 BR   UNL     1       4.822   6.660  16.365  0.00  0.00    +0.000 Br
ENDROOT
BRANCH   1  17
ATOM     12  F   UNL     1       1.619   1.749  18.042  0.00  0.00    +0.000 F 
ATOM     13  C   UNL     1       2.458   2.671  18.533  0.00  0.00    +0.000 A 
ATOM     14  C   UNL     1       3.551   2.261  19.280  0.00  0.00    +0.000 A 
ATOM     15  C   UNL     1       4.440   3.219  19.751  0.00  0.00    +0.000 A 
ATOM     16  C   UNL     1       4.232   4.577  19.464  0.00  0.00    +0.000 A 
ATOM     17  C   UNL     1       3.095   5.030  18.764  0.00  0.00    +0.000 A 
ATOM     18  C   UNL     1       2.223   4.026  18.293  0.00  0.00    +0.000 A 
ATOM     19  F   UNL     1       1.123   4.354  17.596  0.00  0.00    +0.000 F 
ENDBRANCH   1  17
BRANCH   5  20
ATOM     20  C   UNL     1      -0.293  11.017  21.028  0.00  0.00    +0.000 A 
ATOM     21  C   UNL     1      -1.430  11.790  20.900  0.00  0.00    +0.000 A 
ATOM     22  C   UNL     1      -1.915  12.017  22.213  0.00  0.00    +0.000 A 
ATOM     23  C   UNL     1      -1.033  11.390  23.059  0.00  0.00    +0.000 A 
ATOM     24  O   UNL     1      -0.040  10.795  22.353  0.00  0.00    +0.000 OA
ENDBRANCH   5  20
BRANCH   6  25
ATOM     25  C   UNL     1       1.435  12.669  19.105  0.00  0.00    +0.000 A 
ATOM     26  C   UNL     1       0.646  13.648  18.529  0.00  0.00    +0.000 A 
ATOM     27  C   UNL     1       1.272  14.889  18.800  0.00  0.00    +0.000 A 
ATOM     28  C   UNL     1       2.419  14.594  19.494  0.00  0.00    +0.000 A 
ATOM     29  O   UNL     1       2.536  13.253  19.671  0.00  0.00    +0.000 OA
ENDBRANCH   6  25
TORSDOF 3
ENDMDL
MODEL 4
REMARK VINA RESULT:      -7.6      1.860      3.755
REMARK  Name = 
REMARK  3 active torsions:
REMARK  status: ('A' for Active; 'I' for Inactive)
REMARK    1  A    between atoms: C_6  and  C_7
REMARK    2  A    between atoms: C_11  and  C_12
REMARK    3  A    between atoms: C_17  and  C_18
REMARK                            x       y       z     vdW  Elec       q    Type
REMARK                         _______ _______ _______ _____ _____    ______ ____
ROOT
ATOM      1  C   UNL     1       2.454   6.815  19.189  0.00  0.00    +0.000 A 
ATOM      2  C   UNL     1       2.226   8.162  18.804  0.00  0.00    +0.000 A 
ATOM      3  C   UNL     1       1.473   9.064  19.554  0.00  0.00    +0.000 A 
ATOM      4  N   UNL     1       1.236  10.304  19.081  0.00  0.00    +0.000 NA
ATOM      5  C   UNL     1       0.432  11.114  19.835  0.00  0.00    +0.000 A 
ATOM      6  C   UNL     1      -0.125  10.670  21.033  0.00  0.00    +0.000 A 
ATOM      7  N   UNL     1       0.168   9.442  21.539  0.00  0.00    +0.000 NA
ATOM      8  C   UNL     1       0.951   8.646  20.793  0.00  0.00    +0.000 A 
ATOM      9  C   UNL     1       1.213   7.361  21.230  0.00  0.00    +0.000 A 
ATOM     10  C   UNL     1       1.922   6.442  20.441  0.00  0.00    +0.000 A 
ATOM     11 BR   UNL     1       1.974   4.676  21.158  0.00  0.00    +0.000 Br
ENDROOT
BRANCH   1  17
ATOM     12  F   UNL     1       2.592   2.799  16.377  0.00  0.00    +0.000 F 
ATOM     13  C   UNL     1       3.227   3.871  16.872  0.00  0.00    +0.000 A 
ATOM     14  C   UNL     1       4.548   4.095  16.522  0.00  0.00    +0.000 A 
ATOM     15  C   UNL     1       5.188   5.230  17.004  0.00  0.00    +0.000 A 
ATOM     16  C   UNL     1       4.496   6.135  17.824  0.00  0.00    +0.000 A 
ATOM     17  C   UNL     1       3.173   5.900  18.250  0.00  0.00    +0.000 A 
ATOM     18  C   UNL     1       2.555   4.743  17.731  0.00  0.00    +0.000 A 
ATOM     19  F   UNL     1       1.288   4.444  18.058  0.00  0.00    +0.000 F 
ENDBRANCH   1  17
BRANCH   5  20
ATOM     20  C   UNL     1       0.277  12.456  19.294  0.00  0.00    +0.000 A 
ATOM     21  C   UNL     1      -0.501  13.009  18.295  0.00  0.00    +0.000 A 
ATOM     22  C   UNL     1      -0.159  14.384  18.233  0.00  0.00    +0.000 A 
ATOM     23  C   UNL     1       0.820  14.578  19.177  0.00  0.00    +0.000 A 
ATOM     24  O   UNL     1       1.101  13.415  19.814  0.00  0.00    +0.000 OA
ENDBRANCH   5  20
BRANCH   6  25
ATOM     25  C   UNL     1      -1.130  11.387  21.802  0.00  0.00    +0.000 A 
ATOM     26  C   UNL     1      -1.378  11.543  23.153  0.00  0.00    +0.000 A 
ATOM     27  C   UNL     1      -2.557  12.317  23.266  0.00  0.00    +0.000 A 
ATOM     28  C   UNL     1      -2.979  12.560  21.982  0.00  0.00    +0.000 A 
ATOM     29  O   UNL     1      -2.131  11.989  21.089  0.00  0.00    +0.000 OA
ENDBRANCH   6  25
TORSDOF 3
ENDMDL
MODEL 5
REMARK VINA RESULT:      -7.6      2.363      4.130
REMARK  Name = 
REMARK  3 active torsions:
REMARK  status: ('A' for Active; 'I' for Inactive)
REMARK    1  A    between atoms: C_6  and  C_7
REMARK    2  A    between atoms: C_11  and  C_12
REMARK    3  A    between atoms: C_17  and  C_18
REMARK                            x       y       z     vdW  Elec       q    Type
REMARK                         _______ _______ _______ _____ _____    ______ ____
ROOT
ATOM      1  C   UNL     1       2.598   6.716  19.004  0.00  0.00    +0.000 A 
ATOM      2  C   UNL     1       2.348   8.068  18.649  0.00  0.00    +0.000 A 
ATOM      3  C   UNL     1       1.596   8.946  19.428  0.00  0.00    +0.000 A 
ATOM      4  N   UNL     1       1.338  10.192  18.984  0.00  0.00    +0.000 NA
ATOM      5  C   UNL     1       0.536  10.977  19.765  0.00  0.00    +0.000 A 
ATOM      6  C   UNL     1       0.000  10.502  20.961  0.00  0.00    +0.000 A 
ATOM      7  N   UNL     1       0.314   9.268  21.438  0.00  0.00    +0.000 NA
ATOM      8  C   UNL     1       1.096   8.496  20.665  0.00  0.00    +0.000 A 
ATOM      9  C   UNL     1       1.378   7.206  21.072  0.00  0.00    +0.000 A 
ATOM     10  C   UNL     1       2.087   6.311  20.255  0.00  0.00    +0.000 A 
ATOM     11 BR   UNL     1       2.169   4.531  20.935  0.00  0.00    +0.000 Br
ENDROOT
BRANCH   1  17
ATOM     12  F   UNL     1       6.266   5.877  15.858  0.00  0.00    +0.000 F 
ATOM     13  C   UNL     1       5.143   5.443  16.448  0.00  0.00    +0.000 A 
ATOM     14  C   UNL     1       4.655   4.186  16.129  0.00  0.00    +0.000 A 
ATOM     15  C   UNL     1       3.515   3.725  16.774  0.00  0.00    +0.000 A 
ATOM     16  C   UNL     1       2.879   4.522  17.739  0.00  0.00    +0.000 A 
ATOM     17  C   UNL     1       3.314   5.829  18.037  0.00  0.00    +0.000 A 
ATOM     18  C   UNL     1       4.480   6.256  17.369  0.00  0.00    +0.000 A 
ATOM     19  F   UNL     1       4.988   7.477  17.602  0.00  0.00    +0.000 F 
ENDBRANCH   1  17
BRANCH   5  20
ATOM     20  C   UNL     1       0.358  12.327  19.254  0.00  0.00    +0.000 A 
ATOM     21  C   UNL     1      -0.453  12.895  18.290  0.00  0.00    +0.000 A 
ATOM     22  C   UNL     1      -0.120  14.273  18.242  0.00  0.00    +0.000 A 
ATOM     23  C   UNL     1       0.887  14.454  19.160  0.00  0.00    +0.000 A 
ATOM     24  O   UNL     1       1.193  13.281  19.766  0.00  0.00    +0.000 OA
ENDBRANCH   5  20
BRANCH   6  25
ATOM     25  C   UNL     1      -1.003  11.191  21.758  0.00  0.00    +0.000 A 
ATOM     26  C   UNL     1      -1.323  11.202  23.103  0.00  0.00    +0.000 A 
ATOM     27  C   UNL     1      -2.455  12.039  23.248  0.00  0.00    +0.000 A 
ATOM     28  C   UNL     1      -2.780  12.463  21.983  0.00  0.00    +0.000 A 
ATOM     29  O   UNL     1      -1.917  11.944  21.072  0.00  0.00    +0.000 OA
ENDBRANCH   6  25
TORSDOF 3
ENDMDL
MODEL 6
REMARK VINA RESULT:      -7.5      4.038      8.787
REMARK  Name = 
REMARK  3 active torsions:
REMARK  status: ('A' for Active; 'I' for Inactive)
REMARK    1  A    between atoms: C_6  and  C_7
REMARK    2  A    between atoms: C_11  and  C_12
REMARK    3  A    between atoms: C_17  and  C_18
REMARK                            x       y       z     vdW  Elec       q    Type
REMARK                         _______ _______ _______ _____ _____    ______ ____
ROOT
ATOM      1  C   UNL     1       0.925  11.037  20.180  0.00  0.00    +0.000 A 
ATOM      2  C   UNL     1       1.636  10.110  19.375  0.00  0.00    +0.000 A 
ATOM      3  C   UNL     1       1.635   8.734  19.596  0.00  0.00    +0.000 A 
ATOM      4  N   UNL     1       2.400   7.926  18.836  0.00  0.00    +0.000 NA
ATOM      5  C   UNL     1       2.406   6.596  19.151  0.00  0.00    +0.000 A 
ATOM      6  C   UNL     1       1.661   6.101  20.220  0.00  0.00    +0.000 A 
ATOM      7  N   UNL     1       0.840   6.907  20.945  0.00  0.00    +0.000 NA
ATOM      8  C   UNL     1       0.843   8.215  20.638  0.00  0.00    +0.000 A 
ATOM      9  C   UNL     1       0.084   9.084  21.398  0.00  0.00    +0.000 A 
ATOM     10  C   UNL     1       0.137  10.474  21.206  0.00  0.00    +0.000 A 
ATOM     11 BR   UNL     1      -0.829  11.478  22.508  0.00  0.00    +0.000 Br
ENDROOT
BRANCH   1  17
ATOM     12  F   UNL     1      -0.620  15.260  18.220  0.00  0.00    +0.000 F 
ATOM     13  C   UNL     1       0.314  14.596  18.916  0.00  0.00    +0.000 A 
ATOM     14  C   UNL     1       1.432  15.278  19.367  0.00  0.00    +0.000 A 
ATOM     15  C   UNL     1       2.376  14.594  20.123  0.00  0.00    +0.000 A 
ATOM     16  C   UNL     1       2.188  13.237  20.428  0.00  0.00    +0.000 A 
ATOM     17  C   UNL     1       1.093  12.501  19.929  0.00  0.00    +0.000 A 
ATOM     18  C   UNL     1       0.153  13.233  19.175  0.00  0.00    +0.000 A 
ATOM     19  F   UNL     1      -0.936  12.628  18.674  0.00  0.00    +0.000 F 
ENDBRANCH   1  17
BRANCH   5  20
ATOM     20  C   UNL     1       3.202   5.780  18.245  0.00  0.00    +0.000 A 
ATOM     21  C   UNL     1       2.963   4.627  17.525  0.00  0.00    +0.000 A 
ATOM     22  C   UNL     1       4.172   4.314  16.852  0.00  0.00    +0.000 A 
ATOM     23  C   UNL     1       5.076   5.279  17.222  0.00  0.00    +0.000 A 
ATOM     24  O   UNL     1       4.504   6.162  18.076  0.00  0.00    +0.000 OA
ENDBRANCH   5  20
BRANCH   6  25
ATOM     25  C   UNL     1       1.748   4.746  20.741  0.00  0.00    +0.000 A 
ATOM     26  C   UNL     1       2.604   4.106  21.619  0.00  0.00    +0.000 A 
ATOM     27  C   UNL     1       2.197   2.751  21.672  0.00  0.00    +0.000 A 
ATOM     28  C   UNL     1       1.141   2.636  20.802  0.00  0.00    +0.000 A 
ATOM     29  O   UNL     1       0.871   3.833  20.222  0.00  0.00    +0.000 OA
ENDBRANCH   6  25
TORSDOF 3
ENDMDL
MODEL 7
REMARK VINA RESULT:      -7.5      1.386      1.519
REMARK  Name = 
REMARK  3 active torsions:
REMARK  status: ('A' for Active; 'I' for Inactive)
REMARK    1  A    between atoms: C_6  and  C_7
REMARK    2  A    between atoms: C_11  and  C_12
REMARK    3  A    between atoms: C_17  and  C_18
REMARK                            x       y       z     vdW  Elec       q    Type
REMARK                         _______ _______ _______ _____ _____    ______ ____
ROOT
ATOM      1  C   UNL     1       2.549   6.550  19.235  0.00  0.00    +0.000 A 
ATOM      2  C   UNL     1       1.641   7.252  20.070  0.00  0.00    +0.000 A 
ATOM      3  C   UNL     1       1.290   8.587  19.881  0.00  0.00    +0.000 A 
ATOM      4  N   UNL     1       0.482   9.206  20.764  0.00  0.00    +0.000 NA
ATOM      5  C   UNL     1       0.235  10.535  20.558  0.00  0.00    +0.000 A 
ATOM      6  C   UNL     1       0.805  11.219  19.486  0.00  0.00    +0.000 A 
ATOM      7  N   UNL     1       1.568  10.579  18.560  0.00  0.00    +0.000 NA
ATOM      8  C   UNL     1       1.815   9.275  18.771  0.00  0.00    +0.000 A 
ATOM      9  C   UNL     1       2.649   8.601  17.898  0.00  0.00    +0.000 A 
ATOM     10  C   UNL     1       3.042   7.274  18.129  0.00  0.00    +0.000 A 
ATOM     11 BR   UNL     1       4.359   6.627  16.910  0.00  0.00    +0.000 Br
ENDROOT
BRANCH   1  17
ATOM     12  F   UNL     1       1.549   2.189  21.244  0.00  0.00    +0.000 F 
ATOM     13  C   UNL     1       2.432   2.992  20.635  0.00  0.00    +0.000 A 
ATOM     14  C   UNL     1       3.710   2.520  20.380  0.00  0.00    +0.000 A 
ATOM     15  C   UNL     1       4.608   3.342  19.711  0.00  0.00    +0.000 A 
ATOM     16  C   UNL     1       4.218   4.625  19.297  0.00  0.00    +0.000 A 
ATOM     17  C   UNL     1       2.947   5.156  19.600  0.00  0.00    +0.000 A 
ATOM     18  C   UNL     1       2.061   4.287  20.270  0.00  0.00    +0.000 A 
ATOM     19  F   UNL     1       0.820   4.692  20.584  0.00  0.00    +0.000 F 
ENDBRANCH   1  17
BRANCH   5  20
ATOM     20  C   UNL     1      -0.697  11.115  21.513  0.00  0.00    +0.000 A 
ATOM     21  C   UNL     1      -0.835  11.053  22.885  0.00  0.00    +0.000 A 
ATOM     22  C   UNL     1      -1.980  11.824  23.211  0.00  0.00    +0.000 A 
ATOM     23  C   UNL     1      -2.481  12.288  22.019  0.00  0.00    +0.000 A 
ATOM     24  O   UNL     1      -1.721  11.852  20.984  0.00  0.00    +0.000 OA
ENDBRANCH   5  20
BRANCH   6  25
ATOM     25  C   UNL     1       0.751  12.660  19.292  0.00  0.00    +0.000 A 
ATOM     26  C   UNL     1      -0.051  13.501  18.542  0.00  0.00    +0.000 A 
ATOM     27  C   UNL     1       0.443  14.814  18.731  0.00  0.00    +0.000 A 
ATOM     28  C   UNL     1       1.535  14.695  19.556  0.00  0.00    +0.000 A 
ATOM     29  O   UNL     1       1.739  13.395  19.889  0.00  0.00    +0.000 OA
ENDBRANCH   6  25
TORSDOF 3
ENDMDL
MODEL 8
REMARK VINA RESULT:      -7.4      1.568      1.772
REMARK  Name = 
REMARK  3 active torsions:
REMARK  status: ('A' for Active; 'I' for Inactive)
REMARK    1  A    between atoms: C_6  and  C_7
REMARK    2  A    between atoms: C_11  and  C_12
REMARK    3  A    between atoms: C_17  and  C_18
REMARK                            x       y       z     vdW  Elec       q    Type
REMARK                         _______ _______ _______ _____ _____    ______ ____
ROOT
ATOM      1  C   UNL     1       2.562   6.504  18.465  0.00  0.00    +0.000 A 
ATOM      2  C   UNL     1       1.642   7.226  19.269  0.00  0.00    +0.000 A 
ATOM      3  C   UNL     1       1.505   8.612  19.233  0.00  0.00    +0.000 A 
ATOM      4  N   UNL     1       0.665   9.231  20.085  0.00  0.00    +0.000 NA
ATOM      5  C   UNL     1       0.631  10.597  20.044  0.00  0.00    +0.000 A 
ATOM      6  C   UNL     1       1.441  11.316  19.166  0.00  0.00    +0.000 A 
ATOM      7  N   UNL     1       2.240  10.688  18.263  0.00  0.00    +0.000 NA
ATOM      8  C   UNL     1       2.277   9.346  18.312  0.00  0.00    +0.000 A 
ATOM      9  C   UNL     1       3.134   8.667  17.466  0.00  0.00    +0.000 A 
ATOM     10  C   UNL     1       3.307   7.276  17.550  0.00  0.00    +0.000 A 
ATOM     11 BR   UNL     1       4.693   6.595  16.431  0.00  0.00    +0.000 Br
ENDROOT
BRANCH   1  17
ATOM     12  F   UNL     1       5.032   2.648  20.223  0.00  0.00    +0.000 F 
ATOM     13  C   UNL     1       3.979   3.116  19.537  0.00  0.00    +0.000 A 
ATOM     14  C   UNL     1       3.063   2.220  19.011  0.00  0.00    +0.000 A 
ATOM     15  C   UNL     1       1.952   2.713  18.338  0.00  0.00    +0.000 A 
ATOM     16  C   UNL     1       1.764   4.097  18.205  0.00  0.00    +0.000 A 
ATOM     17  C   UNL     1       2.712   5.031  18.672  0.00  0.00    +0.000 A 
ATOM     18  C   UNL     1       3.820   4.491  19.359  0.00  0.00    +0.000 A 
ATOM     19  F   UNL     1       4.767   5.299  19.863  0.00  0.00    +0.000 F 
ENDBRANCH   1  17
BRANCH   5  20
ATOM     20  C   UNL     1      -0.347  11.189  20.945  0.00  0.00    +0.000 A 
ATOM     21  C   UNL     1      -1.494  11.938  20.766  0.00  0.00    +0.000 A 
ATOM     22  C   UNL     1      -1.986  12.239  22.062  0.00  0.00    +0.000 A 
ATOM     23  C   UNL     1      -1.098  11.679  22.947  0.00  0.00    +0.000 A 
ATOM     24  O   UNL     1      -0.095  11.054  22.282  0.00  0.00    +0.000 OA
ENDBRANCH   5  20
BRANCH   6  25
ATOM     25  C   UNL     1       1.609  12.761  19.179  0.00  0.00    +0.000 A 
ATOM     26  C   UNL     1       0.980  13.809  18.532  0.00  0.00    +0.000 A 
ATOM     27  C   UNL     1       1.651  14.993  18.923  0.00  0.00    +0.000 A 
ATOM     28  C   UNL     1       2.668  14.597  19.757  0.00  0.00    +0.000 A 
ATOM     29  O   UNL     1       2.661  13.248  19.906  0.00  0.00    +0.000 OA
ENDBRANCH   6  25
TORSDOF 3
ENDMDL
MODEL 9
REMARK VINA RESULT:      -7.4      2.418      4.094
REMARK  Name = 
REMARK  3 active torsions:
REMARK  status: ('A' for Active; 'I' for Inactive)
REMARK    1  A    between atoms: C_6  and  C_7
REMARK    2  A    between atoms: C_11  and  C_12
REMARK    3  A    between atoms: C_17  and  C_18
REMARK                            x       y       z     vdW  Elec       q    Type
REMARK                         _______ _______ _______ _____ _____    ______ ____
ROOT
ATOM      1  C   UNL     1       2.573   6.206  19.269  0.00  0.00    +0.000 A 
ATOM      2  C   UNL     1       2.445   7.569  18.895  0.00  0.00    +0.000 A 
ATOM      3  C   UNL     1       1.716   8.506  19.625  0.00  0.00    +0.000 A 
ATOM      4  N   UNL     1       1.576   9.764  19.161  0.00  0.00    +0.000 NA
ATOM      5  C   UNL     1       0.790  10.612  19.890  0.00  0.00    +0.000 A 
ATOM      6  C   UNL     1       0.154  10.189  21.056  0.00  0.00    +0.000 A 
ATOM      7  N   UNL     1       0.349   8.940  21.556  0.00  0.00    +0.000 NA
ATOM      8  C   UNL     1       1.114   8.106  20.833  0.00  0.00    +0.000 A 
ATOM      9  C   UNL     1       1.277   6.802  21.262  0.00  0.00    +0.000 A 
ATOM     10  C   UNL     1       1.963   5.851  20.491  0.00  0.00    +0.000 A 
ATOM     11 BR   UNL     1       1.875   4.076  21.183  0.00  0.00    +0.000 Br
ENDROOT
BRANCH   1  17
ATOM     12  F   UNL     1       6.688   4.324  17.378  0.00  0.00    +0.000 F 
ATOM     13  C   UNL     1       5.348   4.353  17.399  0.00  0.00    +0.000 A 
ATOM     14  C   UNL     1       4.641   3.521  16.546  0.00  0.00    +0.000 A 
ATOM     15  C   UNL     1       3.253   3.526  16.602  0.00  0.00    +0.000 A 
ATOM     16  C   UNL     1       2.586   4.356  17.516  0.00  0.00    +0.000 A 
ATOM     17  C   UNL     1       3.276   5.260  18.350  0.00  0.00    +0.000 A 
ATOM     18  C   UNL     1       4.684   5.218  18.271  0.00  0.00    +0.000 A 
ATOM     19  F   UNL     1       5.432   6.023  19.041  0.00  0.00    +0.000 F 
ENDBRANCH   1  17
BRANCH   5  20
ATOM     20  C   UNL     1       0.742  11.968  19.363  0.00  0.00    +0.000 A 
ATOM     21  C   UNL     1       1.482  13.114  19.579  0.00  0.00    +0.000 A 
ATOM     22  C   UNL     1       0.902  14.127  18.773  0.00  0.00    +0.000 A 
ATOM     23  C   UNL     1      -0.167  13.544  18.137  0.00  0.00    +0.000 A 
ATOM     24  O   UNL     1      -0.282  12.242  18.499  0.00  0.00    +0.000 OA
ENDBRANCH   5  20
BRANCH   6  25
ATOM     25  C   UNL     1      -0.839  10.957  21.790  0.00  0.00    +0.000 A 
ATOM     26  C   UNL     1      -1.202  11.037  23.123  0.00  0.00    +0.000 A 
ATOM     27  C   UNL     1      -2.296  11.932  23.196  0.00  0.00    +0.000 A 
ATOM     28  C   UNL     1      -2.558  12.320  21.905  0.00  0.00    +0.000 A 
ATOM     29  O   UNL     1      -1.693  11.724  21.045  0.00  0.00    +0.000 OA
ENDBRANCH   6  25
TORSDOF 3
ENDMDL
