MODEL 1
REMARK VINA RESULT:      -7.9      0.000      0.000
REMARK  Name = 
REMARK  6 active torsions:
REMARK  status: ('A' for Active; 'I' for Inactive)
REMARK    1  A    between atoms: C_5  and  C_6
REMARK    2  A    between atoms: C_6  and  C_7
REMARK    3  A    between atoms: C_7  and  C_8
REMARK    4  A    between atoms: C_8  and  N_9
REMARK    5  A    between atoms: N_9  and  C_10
REMARK    6  A    between atoms: C_10  and  C_11
REMARK                            x       y       z     vdW  Elec       q    Type
REMARK                         _______ _______ _______ _____ _____    ______ ____
ROOT
ATOM      1  C   UNL     1       3.978   5.326  18.247  0.00  0.00    +0.000 C 
ATOM      2  C   UNL     1       3.572   4.468  17.009  0.00  0.00    +0.000 C 
ATOM      3  C   UNL     1       2.325   3.630  17.245  0.00  0.00    +0.000 C 
ATOM      4  O   UNL     1       2.487   2.771  18.365  0.00  0.00    +0.000 OA
ATOM      5  C   UNL     1       2.769   3.431  19.608  0.00  0.00    +0.000 C 
ATOM      6  C   UNL     1       3.030   2.308  20.625  0.00  0.00    +0.000 C 
ATOM      7  C   UNL     1       2.183   2.667  21.821  0.00  0.00    +0.000 C 
ATOM      8  O   UNL     1       1.041   3.325  21.279  0.00  0.00    +0.000 OA
ATOM      9  C   UNL     1       1.531   4.138  20.196  0.00  0.00    +0.000 C 
ATOM     10  C   UNL     1       4.019   4.326  19.449  0.00  0.00    +0.000 C 
ENDROOT
BRANCH   1  15
ATOM     11  F   UNL     1       0.958  10.067  19.257  0.00  0.00    +0.000 F 
ATOM     12  C   UNL     1       1.624   8.934  19.004  0.00  0.00    +0.000 A 
ATOM     13  C   UNL     1       2.149   8.710  17.742  0.00  0.00    +0.000 A 
ATOM     14  C   UNL     1       2.871   7.538  17.481  0.00  0.00    +0.000 A 
ATOM     15  C   UNL     1       3.077   6.567  18.480  0.00  0.00    +0.000 A 
ATOM     16  C   UNL     1       2.528   6.839  19.753  0.00  0.00    +0.000 A 
ATOM     17  C   UNL     1       1.803   8.005  20.014  0.00  0.00    +0.000 A 
ENDBRANCH   1  15
BRANCH   1  18
ATOM     18  C   UNL     1       5.429   5.861  17.945  0.00  0.00    +0.000 C 
BRANCH  18  19
ATOM     19  C   UNL     1       6.580   4.873  18.188  0.00  0.00    +0.000 C 
BRANCH  19  20
ATOM     20  N   UNL     1       7.093   4.350  16.921  0.00  0.00    +0.000 NA
ATOM     21  H   UNL     1       6.515   3.566  16.616  0.00  0.00    +0.000 HD
BRANCH  20  22
ATOM     22  C   UNL     1       7.031   5.391  15.886  0.00  0.00    +0.000 C 
BRANCH  22  23
ATOM     23  C   UNL     1       6.818   4.786  14.530  0.00  0.00    +0.000 A 
ATOM     24  C   UNL     1       5.883   3.842  14.150  0.00  0.00    +0.000 A 
ATOM     25  C   UNL     1       6.012   3.469  12.781  0.00  0.00    +0.000 A 
ATOM     26  C   UNL     1       7.040   4.140  12.159  0.00  0.00    +0.000 A 
ATOM     27  S   UNL     1       7.836   5.219  13.220  0.00  0.00    +0.000 S 
ENDBRANCH  22  23
ENDBRANCH  20  22
ENDBRANCH  19  20
ENDBRANCH  18  19
ENDBRANCH   1  18
TORSDOF 6
ENDMDL
MODEL 2
REMARK VINA RESULT:      -7.9      4.066      6.784
REMARK  Name = 
REMARK  6 active torsions:
REMARK  status: ('A' for Active; 'I' for Inactive)
REMARK    1  A    between atoms: C_5  and  C_6
REMARK    2  A    between atoms: C_6  and  C_7
REMARK    3  A    between atoms: C_7  and  C_8
REMARK    4  A    between atoms: C_8  and  N_9
REMARK    5  A    between atoms: N_9  and  C_10
REMARK    6  A    between atoms: C_10  and  C_11
REMARK                            x       y       z     vdW  Elec       q    Type
REMARK                         _______ _______ _______ _____ _____    ______ ____
ROOT
ATOM      1  C   UNL     1       2.808   6.195  18.336  0.00  0.00    +0.000 C 
ATOM      2  C   UNL     1       2.514   6.699  19.783  0.00  0.00    +0.000 C 
ATOM      3  C   UNL     1       2.449   5.576  20.806  0.00  0.00    +0.000 C 
ATOM      4  O   UNL     1       1.469   4.612  20.449  0.00  0.00    +0.000 OA
ATOM      5  C   UNL     1       1.662   3.984  19.174  0.00  0.00    +0.000 C 
ATOM      6  C   UNL     1       0.427   3.095  18.956  0.00  0.00    +0.000 C 
ATOM      7  C   UNL     1       0.983   1.757  18.536  0.00  0.00    +0.000 C 
ATOM      8  O   UNL     1       2.228   1.645  19.221  0.00  0.00    +0.000 OA
ATOM      9  C   UNL     1       2.815   2.959  19.189  0.00  0.00    +0.000 C 
ATOM     10  C   UNL     1       1.761   5.063  18.072  0.00  0.00    +0.000 C 
ENDROOT
BRANCH   1  15
ATOM     11  F   UNL     1       8.146   4.297  17.617  0.00  0.00    +0.000 F 
ATOM     12  C   UNL     1       6.909   4.786  17.768  0.00  0.00    +0.000 A 
ATOM     13  C   UNL     1       6.017   4.745  16.709  0.00  0.00    +0.000 A 
ATOM     14  C   UNL     1       4.713   5.230  16.873  0.00  0.00    +0.000 A 
ATOM     15  C   UNL     1       4.281   5.770  18.099  0.00  0.00    +0.000 A 
ATOM     16  C   UNL     1       5.222   5.788  19.152  0.00  0.00    +0.000 A 
ATOM     17  C   UNL     1       6.525   5.309  18.990  0.00  0.00    +0.000 A 
ENDBRANCH   1  15
BRANCH   1  18
ATOM     18  C   UNL     1       2.523   7.420  17.385  0.00  0.00    +0.000 C 
BRANCH  18  19
ATOM     19  C   UNL     1       2.390   8.790  18.067  0.00  0.00    +0.000 C 
BRANCH  19  20
ATOM     20  N   UNL     1       1.265   9.541  17.509  0.00  0.00    +0.000 NA
ATOM     21  H   UNL     1       0.592   8.892  17.097  0.00  0.00    +0.000 HD
BRANCH  20  22
ATOM     22  C   UNL     1       0.583  10.290  18.572  0.00  0.00    +0.000 C 
BRANCH  22  23
ATOM     23  C   UNL     1      -0.857  10.524  18.224  0.00  0.00    +0.000 A 
ATOM     24  C   UNL     1      -1.637   9.849  17.304  0.00  0.00    +0.000 A 
ATOM     25  C   UNL     1      -2.954  10.385  17.210  0.00  0.00    +0.000 A 
ATOM     26  C   UNL     1      -3.138  11.450  18.062  0.00  0.00    +0.000 A 
ATOM     27  S   UNL     1      -1.733  11.793  18.973  0.00  0.00    +0.000 S 
ENDBRANCH  22  23
ENDBRANCH  20  22
ENDBRANCH  19  20
ENDBRANCH  18  19
ENDBRANCH   1  18
TORSDOF 6
ENDMDL
MODEL 3
REMARK VINA RESULT:      -7.6      3.934      6.892
REMARK  Name = 
REMARK  6 active torsions:
REMARK  status: ('A' for Active; 'I' for Inactive)
REMARK    1  A    between atoms: C_5  and  C_6
REMARK    2  A    between atoms: C_6  and  C_7
REMARK    3  A    between atoms: C_7  and  C_8
REMARK    4  A    between atoms: C_8  and  N_9
REMARK    5  A    between atoms: N_9  and  C_10
REMARK    6  A    between atoms: C_10  and  C_11
REMARK                            x       y       z     vdW  Elec       q    Type
REMARK                         _______ _______ _______ _____ _____    ______ ____
ROOT
ATOM      1  C   UNL     1       2.742   6.128  18.372  0.00  0.00    +0.000 C 
ATOM      2  C   UNL     1       2.476   6.612  19.831  0.00  0.00    +0.000 C 
ATOM      3  C   UNL     1       2.454   5.476  20.843  0.00  0.00    +0.000 C 
ATOM      4  O   UNL     1       1.482   4.500  20.498  0.00  0.00    +0.000 OA
ATOM      5  C   UNL     1       1.655   3.888  19.212  0.00  0.00    +0.000 C 
ATOM      6  C   UNL     1       0.430   2.982  19.013  0.00  0.00    +0.000 C 
ATOM      7  C   UNL     1       0.998   1.658  18.566  0.00  0.00    +0.000 C 
ATOM      8  O   UNL     1       2.260   1.560  19.220  0.00  0.00    +0.000 OA
ATOM      9  C   UNL     1       2.825   2.884  19.188  0.00  0.00    +0.000 C 
ATOM     10  C   UNL     1       1.709   4.981  18.121  0.00  0.00    +0.000 C 
ENDROOT
BRANCH   1  15
ATOM     11  F   UNL     1       8.091   4.326  17.497  0.00  0.00    +0.000 F 
ATOM     12  C   UNL     1       6.851   4.794  17.686  0.00  0.00    +0.000 A 
ATOM     13  C   UNL     1       5.940   4.772  16.643  0.00  0.00    +0.000 A 
ATOM     14  C   UNL     1       4.632   5.234  16.845  0.00  0.00    +0.000 A 
ATOM     15  C   UNL     1       4.216   5.730  18.095  0.00  0.00    +0.000 A 
ATOM     16  C   UNL     1       5.177   5.730  19.131  0.00  0.00    +0.000 A 
ATOM     17  C   UNL     1       6.482   5.274  18.930  0.00  0.00    +0.000 A 
ENDBRANCH   1  15
BRANCH   1  18
ATOM     18  C   UNL     1       2.415   7.358  17.442  0.00  0.00    +0.000 C 
BRANCH  18  19
ATOM     19  C   UNL     1       2.440   8.739  18.112  0.00  0.00    +0.000 C 
BRANCH  19  20
ATOM     20  N   UNL     1       1.081   9.244  18.315  0.00  0.00    +0.000 NA
ATOM     21  H   UNL     1       0.530   8.548  18.820  0.00  0.00    +0.000 HD
BRANCH  20  22
ATOM     22  C   UNL     1       1.115  10.470  19.123  0.00  0.00    +0.000 C 
BRANCH  22  23
ATOM     23  C   UNL     1       0.495  10.242  20.469  0.00  0.00    +0.000 A 
ATOM     24  C   UNL     1       0.280   9.042  21.122  0.00  0.00    +0.000 A 
ATOM     25  C   UNL     1      -0.380   9.214  22.373  0.00  0.00    +0.000 A 
ATOM     26  C   UNL     1      -0.647  10.538  22.637  0.00  0.00    +0.000 A 
ATOM     27  S   UNL     1      -0.095  11.565  21.387  0.00  0.00    +0.000 S 
ENDBRANCH  22  23
ENDBRANCH  20  22
ENDBRANCH  19  20
ENDBRANCH  18  19
ENDBRANCH   1  18
TORSDOF 6
ENDMDL
MODEL 4
REMARK VINA RESULT:      -7.5      3.774      6.742
REMARK  Name = 
REMARK  6 active torsions:
REMARK  status: ('A' for Active; 'I' for Inactive)
REMARK    1  A    between atoms: C_5  and  C_6
REMARK    2  A    between atoms: C_6  and  C_7
REMARK    3  A    between atoms: C_7  and  C_8
REMARK    4  A    between atoms: C_8  and  N_9
REMARK    5  A    between atoms: N_9  and  C_10
REMARK    6  A    between atoms: C_10  and  C_11
REMARK                            x       y       z     vdW  Elec       q    Type
REMARK                         _______ _______ _______ _____ _____    ______ ____
ROOT
ATOM      1  C   UNL     1       2.743   6.131  18.417  0.00  0.00    +0.000 C 
ATOM      2  C   UNL     1       2.455   6.607  19.874  0.00  0.00    +0.000 C 
ATOM      3  C   UNL     1       2.414   5.465  20.879  0.00  0.00    +0.000 C 
ATOM      4  O   UNL     1       1.445   4.493  20.513  0.00  0.00    +0.000 OA
ATOM      5  C   UNL     1       1.637   3.890  19.225  0.00  0.00    +0.000 C 
ATOM      6  C   UNL     1       0.412   2.988  19.002  0.00  0.00    +0.000 C 
ATOM      7  C   UNL     1       0.984   1.665  18.555  0.00  0.00    +0.000 C 
ATOM      8  O   UNL     1       2.236   1.559  19.228  0.00  0.00    +0.000 OA
ATOM      9  C   UNL     1       2.804   2.882  19.213  0.00  0.00    +0.000 C 
ATOM     10  C   UNL     1       1.711   4.989  18.142  0.00  0.00    +0.000 C 
ENDROOT
BRANCH   1  15
ATOM     11  F   UNL     1       8.101   4.321  17.620  0.00  0.00    +0.000 F 
ATOM     12  C   UNL     1       6.859   4.791  17.790  0.00  0.00    +0.000 A 
ATOM     13  C   UNL     1       5.961   4.763  16.736  0.00  0.00    +0.000 A 
ATOM     14  C   UNL     1       4.651   5.226  16.919  0.00  0.00    +0.000 A 
ATOM     15  C   UNL     1       4.220   5.731  18.161  0.00  0.00    +0.000 A 
ATOM     16  C   UNL     1       5.168   5.737  19.208  0.00  0.00    +0.000 A 
ATOM     17  C   UNL     1       6.476   5.280  19.027  0.00  0.00    +0.000 A 
ENDBRANCH   1  15
BRANCH   1  18
ATOM     18  C   UNL     1       2.434   7.368  17.490  0.00  0.00    +0.000 C 
BRANCH  18  19
ATOM     19  C   UNL     1       2.602   8.754  18.131  0.00  0.00    +0.000 C 
BRANCH  19  20
ATOM     20  N   UNL     1       1.771   9.747  17.447  0.00  0.00    +0.000 NA
ATOM     21  H   UNL     1       1.707   9.514  16.455  0.00  0.00    +0.000 HD
BRANCH  20  22
ATOM     22  C   UNL     1       0.412   9.735  18.005  0.00  0.00    +0.000 C 
BRANCH  22  23
ATOM     23  C   UNL     1       0.360  10.484  19.303  0.00  0.00    +0.000 A 
ATOM     24  C   UNL     1       0.696  11.803  19.546  0.00  0.00    +0.000 A 
ATOM     25  C   UNL     1       0.562  12.154  20.920  0.00  0.00    +0.000 A 
ATOM     26  C   UNL     1       0.126  11.094  21.682  0.00  0.00    +0.000 A 
ATOM     27  S   UNL     1      -0.128   9.689  20.742  0.00  0.00    +0.000 S 
ENDBRANCH  22  23
ENDBRANCH  20  22
ENDBRANCH  19  20
ENDBRANCH  18  19
ENDBRANCH   1  18
TORSDOF 6
ENDMDL
MODEL 5
REMARK VINA RESULT:      -7.4      3.900      6.640
REMARK  Name = 
REMARK  6 active torsions:
REMARK  status: ('A' for Active; 'I' for Inactive)
REMARK    1  A    between atoms: C_5  and  C_6
REMARK    2  A    between atoms: C_6  and  C_7
REMARK    3  A    between atoms: C_7  and  C_8
REMARK    4  A    between atoms: C_8  and  N_9
REMARK    5  A    between atoms: N_9  and  C_10
REMARK    6  A    between atoms: C_10  and  C_11
REMARK                            x       y       z     vdW  Elec       q    Type
REMARK                         _______ _______ _______ _____ _____    ______ ____
ROOT
ATOM      1  C   UNL     1       2.751   6.085  18.428  0.00  0.00    +0.000 C 
ATOM      2  C   UNL     1       2.427   6.567  19.876  0.00  0.00    +0.000 C 
ATOM      3  C   UNL     1       2.365   5.431  20.886  0.00  0.00    +0.000 C 
ATOM      4  O   UNL     1       1.407   4.455  20.502  0.00  0.00    +0.000 OA
ATOM      5  C   UNL     1       1.630   3.845  19.222  0.00  0.00    +0.000 C 
ATOM      6  C   UNL     1       0.414   2.939  18.975  0.00  0.00    +0.000 C 
ATOM      7  C   UNL     1       0.998   1.615  18.549  0.00  0.00    +0.000 C 
ATOM      8  O   UNL     1       2.234   1.516  19.252  0.00  0.00    +0.000 OA
ATOM      9  C   UNL     1       2.800   2.840  19.243  0.00  0.00    +0.000 C 
ATOM     10  C   UNL     1       1.728   4.938  18.135  0.00  0.00    +0.000 C 
ENDROOT
BRANCH   1  15
ATOM     11  F   UNL     1       8.136   4.293  17.792  0.00  0.00    +0.000 F 
ATOM     12  C   UNL     1       6.887   4.757  17.921  0.00  0.00    +0.000 A 
ATOM     13  C   UNL     1       5.996   4.641  16.867  0.00  0.00    +0.000 A 
ATOM     14  C   UNL     1       4.680   5.100  17.010  0.00  0.00    +0.000 A 
ATOM     15  C   UNL     1       4.235   5.687  18.210  0.00  0.00    +0.000 A 
ATOM     16  C   UNL     1       5.176   5.780  19.259  0.00  0.00    +0.000 A 
ATOM     17  C   UNL     1       6.490   5.328  19.117  0.00  0.00    +0.000 A 
ENDBRANCH   1  15
BRANCH   1  18
ATOM     18  C   UNL     1       2.461   7.316  17.488  0.00  0.00    +0.000 C 
BRANCH  18  19
ATOM     19  C   UNL     1       2.528   8.702  18.146  0.00  0.00    +0.000 C 
BRANCH  19  20
ATOM     20  N   UNL     1       1.572   9.620  17.523  0.00  0.00    +0.000 NA
ATOM     21  H   UNL     1       0.926   9.092  16.934  0.00  0.00    +0.000 HD
BRANCH  20  22
ATOM     22  C   UNL     1       0.788  10.307  18.557  0.00  0.00    +0.000 C 
BRANCH  22  23
ATOM     23  C   UNL     1       1.410  11.624  18.915  0.00  0.00    +0.000 A 
ATOM     24  C   UNL     1       2.321  12.367  18.187  0.00  0.00    +0.000 A 
ATOM     25  C   UNL     1       2.726  13.550  18.870  0.00  0.00    +0.000 A 
ATOM     26  C   UNL     1       2.111  13.674  20.095  0.00  0.00    +0.000 A 
ATOM     27  S   UNL     1       1.046  12.375  20.412  0.00  0.00    +0.000 S 
ENDBRANCH  22  23
ENDBRANCH  20  22
ENDBRANCH  19  20
ENDBRANCH  18  19
ENDBRANCH   1  18
TORSDOF 6
ENDMDL
MODEL 6
REMARK VINA RESULT:      -7.3      4.013      6.934
REMARK  Name = 
REMARK  6 active torsions:
REMARK  status: ('A' for Active; 'I' for Inactive)
REMARK    1  A    between atoms: C_5  and  C_6
REMARK    2  A    between atoms: C_6  and  C_7
REMARK    3  A    between atoms: C_7  and  C_8
REMARK    4  A    between atoms: C_8  and  N_9
REMARK    5  A    between atoms: N_9  and  C_10
REMARK    6  A    between atoms: C_10  and  C_11
REMARK                            x       y       z     vdW  Elec       q    Type
REMARK                         _______ _______ _______ _____ _____    ______ ____
ROOT
ATOM      1  C   UNL     1       3.550   5.562  17.867  0.00  0.00    +0.000 C 
ATOM      2  C   UNL     1       3.755   4.808  16.517  0.00  0.00    +0.000 C 
ATOM      3  C   UNL     1       5.078   4.061  16.443  0.00  0.00    +0.000 C 
ATOM      4  O   UNL     1       6.175   4.939  16.649  0.00  0.00    +0.000 OA
ATOM      5  C   UNL     1       6.176   5.637  17.903  0.00  0.00    +0.000 C 
ATOM      6  C   UNL     1       7.367   6.607  17.838  0.00  0.00    +0.000 C 
ATOM      7  C   UNL     1       8.106   6.398  19.137  0.00  0.00    +0.000 C 
ATOM      8  O   UNL     1       7.910   5.023  19.454  0.00  0.00    +0.000 OA
ATOM      9  C   UNL     1       6.550   4.723  19.087  0.00  0.00    +0.000 C 
ATOM     10  C   UNL     1       4.849   6.410  18.068  0.00  0.00    +0.000 C 
ENDROOT
BRANCH   1  15
ATOM     11  F   UNL     1       1.902   2.183  22.166  0.00  0.00    +0.000 F 
ATOM     12  C   UNL     1       2.334   2.973  21.176  0.00  0.00    +0.000 A 
ATOM     13  C   UNL     1       2.832   2.410  20.012  0.00  0.00    +0.000 A 
ATOM     14  C   UNL     1       3.259   3.235  18.962  0.00  0.00    +0.000 A 
ATOM     15  C   UNL     1       3.200   4.638  19.063  0.00  0.00    +0.000 A 
ATOM     16  C   UNL     1       2.682   5.168  20.266  0.00  0.00    +0.000 A 
ATOM     17  C   UNL     1       2.260   4.348  21.315  0.00  0.00    +0.000 A 
ENDBRANCH   1  15
BRANCH   1  18
ATOM     18  C   UNL     1       2.315   6.517  17.646  0.00  0.00    +0.000 C 
BRANCH  18  19
ATOM     19  C   UNL     1       2.601   8.023  17.730  0.00  0.00    +0.000 C 
BRANCH  19  20
ATOM     20  N   UNL     1       1.353   8.788  17.768  0.00  0.00    +0.000 NA
ATOM     21  H   UNL     1       0.626   8.233  18.224  0.00  0.00    +0.000 HD
BRANCH  20  22
ATOM     22  C   UNL     1       1.540  10.019  18.547  0.00  0.00    +0.000 C 
BRANCH  22  23
ATOM     23  C   UNL     1       0.999   9.861  19.937  0.00  0.00    +0.000 A 
ATOM     24  C   UNL     1       0.795   8.695  20.650  0.00  0.00    +0.000 A 
ATOM     25  C   UNL     1       0.217   8.934  21.930  0.00  0.00    +0.000 A 
ATOM     26  C   UNL     1       0.001  10.275  22.155  0.00  0.00    +0.000 A 
ATOM     27  S   UNL     1       0.500  11.236  20.832  0.00  0.00    +0.000 S 
ENDBRANCH  22  23
ENDBRANCH  20  22
ENDBRANCH  19  20
ENDBRANCH  18  19
ENDBRANCH   1  18
TORSDOF 6
ENDMDL
MODEL 7
REMARK VINA RESULT:      -7.3      4.035      6.949
REMARK  Name = 
REMARK  6 active torsions:
REMARK  status: ('A' for Active; 'I' for Inactive)
REMARK    1  A    between atoms: C_5  and  C_6
REMARK    2  A    between atoms: C_6  and  C_7
REMARK    3  A    between atoms: C_7  and  C_8
REMARK    4  A    between atoms: C_8  and  N_9
REMARK    5  A    between atoms: N_9  and  C_10
REMARK    6  A    between atoms: C_10  and  C_11
REMARK                            x       y       z     vdW  Elec       q    Type
REMARK                         _______ _______ _______ _____ _____    ______ ____
ROOT
ATOM      1  C   UNL     1       3.586   5.629  17.876  0.00  0.00    +0.000 C 
ATOM      2  C   UNL     1       3.773   4.902  16.508  0.00  0.00    +0.000 C 
ATOM      3  C   UNL     1       5.083   4.134  16.413  0.00  0.00    +0.000 C 
ATOM      4  O   UNL     1       6.196   4.988  16.635  0.00  0.00    +0.000 OA
ATOM      5  C   UNL     1       6.213   5.658  17.904  0.00  0.00    +0.000 C 
ATOM      6  C   UNL     1       7.420   6.609  17.857  0.00  0.00    +0.000 C 
ATOM      7  C   UNL     1       8.159   6.358  19.148  0.00  0.00    +0.000 C 
ATOM      8  O   UNL     1       7.941   4.980  19.435  0.00  0.00    +0.000 OA
ATOM      9  C   UNL     1       6.575   4.711  19.066  0.00  0.00    +0.000 C 
ATOM     10  C   UNL     1       4.900   6.450  18.091  0.00  0.00    +0.000 C 
ENDROOT
BRANCH   1  15
ATOM     11  F   UNL     1       1.894   2.184  22.105  0.00  0.00    +0.000 F 
ATOM     12  C   UNL     1       2.337   2.988  21.131  0.00  0.00    +0.000 A 
ATOM     13  C   UNL     1       2.818   2.443  19.952  0.00  0.00    +0.000 A 
ATOM     14  C   UNL     1       3.256   3.283  18.919  0.00  0.00    +0.000 A 
ATOM     15  C   UNL     1       3.224   4.684  19.052  0.00  0.00    +0.000 A 
ATOM     16  C   UNL     1       2.722   5.196  20.269  0.00  0.00    +0.000 A 
ATOM     17  C   UNL     1       2.289   4.361  21.302  0.00  0.00    +0.000 A 
ENDBRANCH   1  15
BRANCH   1  18
ATOM     18  C   UNL     1       2.367   6.609  17.680  0.00  0.00    +0.000 C 
BRANCH  18  19
ATOM     19  C   UNL     1       2.625   8.086  18.017  0.00  0.00    +0.000 C 
BRANCH  19  20
ATOM     20  N   UNL     1       1.554   8.933  17.490  0.00  0.00    +0.000 NA
ATOM     21  H   UNL     1       0.766   8.350  17.205  0.00  0.00    +0.000 HD
BRANCH  20  22
ATOM     22  C   UNL     1       1.084   9.856  18.531  0.00  0.00    +0.000 C 
BRANCH  22  23
ATOM     23  C   UNL     1      -0.311  10.323  18.244  0.00  0.00    +0.000 A 
ATOM     24  C   UNL     1      -1.279   9.707  17.472  0.00  0.00    +0.000 A 
ATOM     25  C   UNL     1      -2.477  10.474  17.388  0.00  0.00    +0.000 A 
ATOM     26  C   UNL     1      -2.387  11.648  18.100  0.00  0.00    +0.000 A 
ATOM     27  S   UNL     1      -0.871  11.818  18.870  0.00  0.00    +0.000 S 
ENDBRANCH  22  23
ENDBRANCH  20  22
ENDBRANCH  19  20
ENDBRANCH  18  19
ENDBRANCH   1  18
TORSDOF 6
ENDMDL
MODEL 8
REMARK VINA RESULT:      -7.2      3.867      6.745
REMARK  Name = 
REMARK  6 active torsions:
REMARK  status: ('A' for Active; 'I' for Inactive)
REMARK    1  A    between atoms: C_5  and  C_6
REMARK    2  A    between atoms: C_6  and  C_7
REMARK    3  A    between atoms: C_7  and  C_8
REMARK    4  A    between atoms: C_8  and  N_9
REMARK    5  A    between atoms: N_9  and  C_10
REMARK    6  A    between atoms: C_10  and  C_11
REMARK                            x       y       z     vdW  Elec       q    Type
REMARK                         _______ _______ _______ _____ _____    ______ ____
ROOT
ATOM      1  C   UNL     1       2.570   6.298  18.490  0.00  0.00    +0.000 C 
ATOM      2  C   UNL     1       2.160   6.726  19.933  0.00  0.00    +0.000 C 
ATOM      3  C   UNL     1       2.157   5.569  20.921  0.00  0.00    +0.000 C 
ATOM      4  O   UNL     1       1.294   4.527  20.489  0.00  0.00    +0.000 OA
ATOM      5  C   UNL     1       1.608   3.961  19.209  0.00  0.00    +0.000 C 
ATOM      6  C   UNL     1       0.477   2.965  18.905  0.00  0.00    +0.000 C 
ATOM      7  C   UNL     1       1.181   1.701  18.478  0.00  0.00    +0.000 C 
ATOM      8  O   UNL     1       2.397   1.688  19.222  0.00  0.00    +0.000 OA
ATOM      9  C   UNL     1       2.853   3.053  19.254  0.00  0.00    +0.000 C 
ATOM     10  C   UNL     1       1.653   5.079  18.143  0.00  0.00    +0.000 C 
ENDROOT
BRANCH   1  15
ATOM     11  F   UNL     1       8.215   5.656  17.912  0.00  0.00    +0.000 F 
ATOM     12  C   UNL     1       6.886   5.759  18.036  0.00  0.00    +0.000 A 
ATOM     13  C   UNL     1       6.281   5.457  19.245  0.00  0.00    +0.000 A 
ATOM     14  C   UNL     1       4.893   5.591  19.386  0.00  0.00    +0.000 A 
ATOM     15  C   UNL     1       4.087   6.024  18.316  0.00  0.00    +0.000 A 
ATOM     16  C   UNL     1       4.747   6.325  17.103  0.00  0.00    +0.000 A 
ATOM     17  C   UNL     1       6.130   6.188  16.959  0.00  0.00    +0.000 A 
ENDBRANCH   1  15
BRANCH   1  18
ATOM     18  C   UNL     1       2.212   7.519  17.559  0.00  0.00    +0.000 C 
BRANCH  18  19
ATOM     19  C   UNL     1       2.535   8.913  18.117  0.00  0.00    +0.000 C 
BRANCH  19  20
ATOM     20  N   UNL     1       1.626   9.918  17.564  0.00  0.00    +0.000 NA
ATOM     21  H   UNL     1       1.585   9.820  16.548  0.00  0.00    +0.000 HD
BRANCH  20  22
ATOM     22  C   UNL     1       0.271   9.717  18.095  0.00  0.00    +0.000 C 
BRANCH  22  23
ATOM     23  C   UNL     1       0.151  10.273  19.482  0.00  0.00    +0.000 A 
ATOM     24  C   UNL     1      -0.170   9.606  20.649  0.00  0.00    +0.000 A 
ATOM     25  C   UNL     1      -0.236  10.477  21.774  0.00  0.00    +0.000 A 
ATOM     26  C   UNL     1       0.040  11.781  21.432  0.00  0.00    +0.000 A 
ATOM     27  S   UNL     1       0.382  11.949  19.766  0.00  0.00    +0.000 S 
ENDBRANCH  22  23
ENDBRANCH  20  22
ENDBRANCH  19  20
ENDBRANCH  18  19
ENDBRANCH   1  18
TORSDOF 6
ENDMDL
MODEL 9
REMARK VINA RESULT:      -7.2      3.817      6.800
REMARK  Name = 
REMARK  6 active torsions:
REMARK  status: ('A' for Active; 'I' for Inactive)
REMARK    1  A    between atoms: C_5  and  C_6
REMARK    2  A    between atoms: C_6  and  C_7
REMARK    3  A    between atoms: C_7  and  C_8
REMARK    4  A    between atoms: C_8  and  N_9
REMARK    5  A    between atoms: N_9  and  C_10
REMARK    6  A    between atoms: C_10  and  C_11
REMARK                            x       y       z     vdW  Elec       q    Type
REMARK                         _______ _______ _______ _____ _____    ______ ____
ROOT
ATOM      1  C   UNL     1       2.882   5.979  18.550  0.00  0.00    +0.000 C 
ATOM      2  C   UNL     1       2.632   6.433  20.021  0.00  0.00    +0.000 C 
ATOM      3  C   UNL     1       2.479   5.269  20.989  0.00  0.00    +0.000 C 
ATOM      4  O   UNL     1       1.423   4.406  20.590  0.00  0.00    +0.000 OA
ATOM      5  C   UNL     1       1.563   3.828  19.284  0.00  0.00    +0.000 C 
ATOM      6  C   UNL     1       0.260   3.054  19.030  0.00  0.00    +0.000 C 
ATOM      7  C   UNL     1       0.706   1.697  18.542  0.00  0.00    +0.000 C 
ATOM      8  O   UNL     1       1.938   1.452  19.214  0.00  0.00    +0.000 OA
ATOM      9  C   UNL     1       2.630   2.715  19.243  0.00  0.00    +0.000 C 
ATOM     10  C   UNL     1       1.747   4.949  18.237  0.00  0.00    +0.000 C 
ENDROOT
BRANCH   1  15
ATOM     11  F   UNL     1       8.230   4.346  17.388  0.00  0.00    +0.000 F 
ATOM     12  C   UNL     1       6.968   4.684  17.681  0.00  0.00    +0.000 A 
ATOM     13  C   UNL     1       6.672   5.237  18.917  0.00  0.00    +0.000 A 
ATOM     14  C   UNL     1       5.357   5.618  19.216  0.00  0.00    +0.000 A 
ATOM     15  C   UNL     1       4.316   5.448  18.284  0.00  0.00    +0.000 A 
ATOM     16  C   UNL     1       4.664   4.885  17.036  0.00  0.00    +0.000 A 
ATOM     17  C   UNL     1       5.973   4.500  16.738  0.00  0.00    +0.000 A 
ENDBRANCH   1  15
BRANCH   1  18
ATOM     18  C   UNL     1       2.696   7.268  17.662  0.00  0.00    +0.000 C 
BRANCH  18  19
ATOM     19  C   UNL     1       2.216   8.530  18.394  0.00  0.00    +0.000 C 
BRANCH  19  20
ATOM     20  N   UNL     1       1.894   9.593  17.440  0.00  0.00    +0.000 NA
ATOM     21  H   UNL     1       0.939   9.470  17.100  0.00  0.00    +0.000 HD
BRANCH  20  22
ATOM     22  C   UNL     1       1.977  10.903  18.099  0.00  0.00    +0.000 C 
BRANCH  22  23
ATOM     23  C   UNL     1       0.711  11.210  18.841  0.00  0.00    +0.000 A 
ATOM     24  C   UNL     1      -0.582  10.841  18.519  0.00  0.00    +0.000 A 
ATOM     25  C   UNL     1      -1.540  11.359  19.438  0.00  0.00    +0.000 A 
ATOM     26  C   UNL     1      -0.949  12.104  20.433  0.00  0.00    +0.000 A 
ATOM     27  S   UNL     1       0.750  12.170  20.261  0.00  0.00    +0.000 S 
ENDBRANCH  22  23
ENDBRANCH  20  22
ENDBRANCH  19  20
ENDBRANCH  18  19
ENDBRANCH   1  18
TORSDOF 6
ENDMDL
