MODEL 1
REMARK VINA RESULT:      -7.0      0.000      0.000
REMARK  Name = 
REMARK  6 active torsions:
REMARK  status: ('A' for Active; 'I' for Inactive)
REMARK    1  A    between atoms: C_1  and  C_2
REMARK    2  A    between atoms: C_5  and  C_6
REMARK    3  A    between atoms: C_7  and  C_8
REMARK    4  A    between atoms: C_8  and  N_9
REMARK    5  A    between atoms: N_9  and  C_10
REMARK    6  A    between atoms: C_14  and  C_16
REMARK                            x       y       z     vdW  Elec       q    Type
REMARK                         _______ _______ _______ _____ _____    ______ ____
ROOT
ATOM      1  C   UNL     1       4.289   4.963  18.745  0.00  0.00    +0.000 C 
ATOM      2  C   UNL     1       5.786   4.764  19.067  0.00  0.00    +0.000 C 
ATOM      3  C   UNL     1       6.663   5.835  18.432  0.00  0.00    +0.000 C 
ATOM      4  N   UNL     1       6.475   5.789  16.989  0.00  0.00    +0.000 N 
ATOM      5  C   UNL     1       7.275   4.877  16.272  0.00  0.00    +0.000 C 
ATOM      6  O   UNL     1       8.097   4.187  16.878  0.00  0.00    +0.000 OA
ATOM      7  C   UNL     1       5.143   6.235  16.598  0.00  0.00    +0.000 C 
ATOM      8  C   UNL     1       4.040   5.411  17.282  0.00  0.00    +0.000 C 
ENDROOT
BRANCH   5   9
ATOM      9  C   UNL     1       7.134   4.781  14.824  0.00  0.00    +0.000 A 
ATOM     10  C   UNL     1       7.834   5.404  13.805  0.00  0.00    +0.000 A 
ATOM     11  C   UNL     1       7.415   4.977  12.510  0.00  0.00    +0.000 A 
ATOM     12  C   UNL     1       6.431   4.018  12.574  0.00  0.00    +0.000 A 
ATOM     13  S   UNL     1       6.006   3.648  14.186  0.00  0.00    +0.000 S 
ENDBRANCH   5   9
BRANCH   1  14
ATOM     14  N   UNL     1       3.678   5.831  19.777  0.00  0.00    +0.000 NA
ATOM     15  H   UNL     1       3.975   5.476  20.690  0.00  0.00    +0.000 HD
BRANCH  14  16
ATOM     16  C   UNL     1       2.209   5.784  19.760  0.00  0.00    +0.000 C 
BRANCH  16  23
ATOM     17  C   UNL     1       1.002   4.145  17.174  0.00  0.00    +0.000 C 
ATOM     18  C   UNL     1       1.210   3.666  18.561  0.00  0.00    +0.000 A 
ATOM     19  N   UNL     1       0.938   2.392  18.867  0.00  0.00    +0.000 NA
ATOM     20  O   UNL     1       1.302   2.236  20.187  0.00  0.00    +0.000 OA
ATOM     21  C   UNL     1       1.788   3.409  20.667  0.00  0.00    +0.000 A 
ATOM     22  C   UNL     1       2.297   3.371  22.052  0.00  0.00    +0.000 C 
ATOM     23  C   UNL     1       1.730   4.377  19.682  0.00  0.00    +0.000 A 
ENDBRANCH  16  23
ENDBRANCH  14  16
ENDBRANCH   1  14
TORSDOF 4
ENDMDL
MODEL 2
REMARK VINA RESULT:      -6.8      0.435      1.730
REMARK  Name = 
REMARK  6 active torsions:
REMARK  status: ('A' for Active; 'I' for Inactive)
REMARK    1  A    between atoms: C_1  and  C_2
REMARK    2  A    between atoms: C_5  and  C_6
REMARK    3  A    between atoms: C_7  and  C_8
REMARK    4  A    between atoms: C_8  and  N_9
REMARK    5  A    between atoms: N_9  and  C_10
REMARK    6  A    between atoms: C_14  and  C_16
REMARK                            x       y       z     vdW  Elec       q    Type
REMARK                         _______ _______ _______ _____ _____    ______ ____
ROOT
ATOM      1  C   UNL     1       4.251   5.105  18.691  0.00  0.00    +0.000 C 
ATOM      2  C   UNL     1       5.731   4.841  19.044  0.00  0.00    +0.000 C 
ATOM      3  C   UNL     1       6.667   5.876  18.435  0.00  0.00    +0.000 C 
ATOM      4  N   UNL     1       6.510   5.845  16.989  0.00  0.00    +0.000 N 
ATOM      5  C   UNL     1       7.285   4.903  16.284  0.00  0.00    +0.000 C 
ATOM      6  O   UNL     1       8.063   4.175  16.903  0.00  0.00    +0.000 OA
ATOM      7  C   UNL     1       5.207   6.350  16.571  0.00  0.00    +0.000 C 
ATOM      8  C   UNL     1       4.054   5.571  17.226  0.00  0.00    +0.000 C 
ENDROOT
BRANCH   5   9
ATOM      9  C   UNL     1       7.172   4.820  14.832  0.00  0.00    +0.000 A 
ATOM     10  C   UNL     1       7.899   5.445  13.833  0.00  0.00    +0.000 A 
ATOM     11  C   UNL     1       7.501   5.033  12.526  0.00  0.00    +0.000 A 
ATOM     12  C   UNL     1       6.506   4.084  12.563  0.00  0.00    +0.000 A 
ATOM     13  S   UNL     1       6.046   3.705  14.163  0.00  0.00    +0.000 S 
ENDBRANCH   5   9
BRANCH   1  14
ATOM     14  N   UNL     1       3.655   5.994  19.715  0.00  0.00    +0.000 NA
ATOM     15  H   UNL     1       4.100   5.771  20.610  0.00  0.00    +0.000 HD
BRANCH  14  16
ATOM     16  C   UNL     1       2.214   5.770  19.889  0.00  0.00    +0.000 C 
BRANCH  16  23
ATOM     17  C   UNL     1       2.252   3.282  22.043  0.00  0.00    +0.000 C 
ATOM     18  C   UNL     1       1.888   3.260  20.607  0.00  0.00    +0.000 A 
ATOM     19  N   UNL     1       1.462   2.119  20.052  0.00  0.00    +0.000 NA
ATOM     20  O   UNL     1       1.133   2.433  18.751  0.00  0.00    +0.000 OA
ATOM     21  C   UNL     1       1.361   3.753  18.530  0.00  0.00    +0.000 A 
ATOM     22  C   UNL     1       0.975   4.254  17.196  0.00  0.00    +0.000 C 
ATOM     23  C   UNL     1       1.875   4.337  19.673  0.00  0.00    +0.000 A 
ENDBRANCH  16  23
ENDBRANCH  14  16
ENDBRANCH   1  14
TORSDOF 4
ENDMDL
MODEL 3
REMARK VINA RESULT:      -6.8      3.606      4.627
REMARK  Name = 
REMARK  6 active torsions:
REMARK  status: ('A' for Active; 'I' for Inactive)
REMARK    1  A    between atoms: C_1  and  C_2
REMARK    2  A    between atoms: C_5  and  C_6
REMARK    3  A    between atoms: C_7  and  C_8
REMARK    4  A    between atoms: C_8  and  N_9
REMARK    5  A    between atoms: N_9  and  C_10
REMARK    6  A    between atoms: C_14  and  C_16
REMARK                            x       y       z     vdW  Elec       q    Type
REMARK                         _______ _______ _______ _____ _____    ______ ____
ROOT
ATOM      1  C   UNL     1       2.287   6.342  19.297  0.00  0.00    +0.000 C 
ATOM      2  C   UNL     1       2.411   4.826  19.559  0.00  0.00    +0.000 C 
ATOM      3  C   UNL     1       3.855   4.392  19.779  0.00  0.00    +0.000 C 
ATOM      4  N   UNL     1       4.625   4.734  18.593  0.00  0.00    +0.000 N 
ATOM      5  C   UNL     1       4.627   3.796  17.542  0.00  0.00    +0.000 C 
ATOM      6  O   UNL     1       4.010   2.737  17.675  0.00  0.00    +0.000 OA
ATOM      7  C   UNL     1       4.776   6.177  18.438  0.00  0.00    +0.000 C 
ATOM      8  C   UNL     1       3.415   6.892  18.387  0.00  0.00    +0.000 C 
ENDROOT
BRANCH   5   9
ATOM      9  C   UNL     1       5.378   4.081  16.324  0.00  0.00    +0.000 A 
ATOM     10  C   UNL     1       4.964   4.157  15.005  0.00  0.00    +0.000 A 
ATOM     11  C   UNL     1       6.019   4.528  14.120  0.00  0.00    +0.000 A 
ATOM     12  C   UNL     1       7.199   4.757  14.788  0.00  0.00    +0.000 A 
ATOM     13  S   UNL     1       7.038   4.510  16.470  0.00  0.00    +0.000 S 
ENDBRANCH   5   9
BRANCH   1  14
ATOM     14  N   UNL     1       2.122   7.050  20.586  0.00  0.00    +0.000 NA
ATOM     15  H   UNL     1       2.294   6.370  21.333  0.00  0.00    +0.000 HD
BRANCH  14  16
ATOM     16  C   UNL     1       0.758   7.561  20.782  0.00  0.00    +0.000 C 
BRANCH  16  23
ATOM     17  C   UNL     1       1.221   9.809  18.424  0.00  0.00    +0.000 C 
ATOM     18  C   UNL     1       0.961  10.020  19.867  0.00  0.00    +0.000 A 
ATOM     19  N   UNL     1       0.837  11.265  20.341  0.00  0.00    +0.000 NA
ATOM     20  O   UNL     1       0.527  11.130  21.677  0.00  0.00    +0.000 OA
ATOM     21  C   UNL     1       0.466   9.813  22.001  0.00  0.00    +0.000 A 
ATOM     22  C   UNL     1       0.061   9.513  23.388  0.00  0.00    +0.000 C 
ATOM     23  C   UNL     1       0.764   9.046  20.890  0.00  0.00    +0.000 A 
ENDBRANCH  16  23
ENDBRANCH  14  16
ENDBRANCH   1  14
TORSDOF 4
ENDMDL
MODEL 4
REMARK VINA RESULT:      -6.8      3.536      4.890
REMARK  Name = 
REMARK  6 active torsions:
REMARK  status: ('A' for Active; 'I' for Inactive)
REMARK    1  A    between atoms: C_1  and  C_2
REMARK    2  A    between atoms: C_5  and  C_6
REMARK    3  A    between atoms: C_7  and  C_8
REMARK    4  A    between atoms: C_8  and  N_9
REMARK    5  A    between atoms: N_9  and  C_10
REMARK    6  A    between atoms: C_14  and  C_16
REMARK                            x       y       z     vdW  Elec       q    Type
REMARK                         _______ _______ _______ _____ _____    ______ ____
ROOT
ATOM      1  C   UNL     1       1.841   6.059  19.454  0.00  0.00    +0.000 C 
ATOM      2  C   UNL     1       2.000   4.534  19.631  0.00  0.00    +0.000 C 
ATOM      3  C   UNL     1       3.429   4.135  19.976  0.00  0.00    +0.000 C 
ATOM      4  N   UNL     1       4.304   4.583  18.903  0.00  0.00    +0.000 N 
ATOM      5  C   UNL     1       4.454   3.718  17.801  0.00  0.00    +0.000 C 
ATOM      6  O   UNL     1       3.870   2.633  17.799  0.00  0.00    +0.000 OA
ATOM      7  C   UNL     1       4.411   6.037  18.858  0.00  0.00    +0.000 C 
ATOM      8  C   UNL     1       3.035   6.707  18.707  0.00  0.00    +0.000 C 
ENDROOT
BRANCH   5   9
ATOM      9  C   UNL     1       5.316   4.110  16.691  0.00  0.00    +0.000 A 
ATOM     10  C   UNL     1       5.025   4.330  15.356  0.00  0.00    +0.000 A 
ATOM     11  C   UNL     1       6.160   4.767  14.611  0.00  0.00    +0.000 A 
ATOM     12  C   UNL     1       7.277   4.901  15.402  0.00  0.00    +0.000 A 
ATOM     13  S   UNL     1       6.961   4.486  17.028  0.00  0.00    +0.000 S 
ENDBRANCH   5   9
BRANCH   1  14
ATOM     14  N   UNL     1       1.514   6.672  20.761  0.00  0.00    +0.000 NA
ATOM     15  H   UNL     1       0.494   6.718  20.831  0.00  0.00    +0.000 HD
BRANCH  14  16
ATOM     16  C   UNL     1       2.010   8.050  20.880  0.00  0.00    +0.000 C 
BRANCH  16  23
ATOM     17  C   UNL     1       0.064   9.439  23.142  0.00  0.00    +0.000 C 
ATOM     18  C   UNL     1       0.061   9.630  21.673  0.00  0.00    +0.000 A 
ATOM     19  N   UNL     1      -0.789  10.505  21.123  0.00  0.00    +0.000 NA
ATOM     20  O   UNL     1      -0.501  10.514  19.775  0.00  0.00    +0.000 OA
ATOM     21  C   UNL     1       0.514   9.649  19.521  0.00  0.00    +0.000 A 
ATOM     22  C   UNL     1       0.989   9.612  18.124  0.00  0.00    +0.000 C 
ATOM     23  C   UNL     1       0.902   9.026  20.692  0.00  0.00    +0.000 A 
ENDBRANCH  16  23
ENDBRANCH  14  16
ENDBRANCH   1  14
TORSDOF 4
ENDMDL
MODEL 5
REMARK VINA RESULT:      -6.7      4.043      5.128
REMARK  Name = 
REMARK  6 active torsions:
REMARK  status: ('A' for Active; 'I' for Inactive)
REMARK    1  A    between atoms: C_1  and  C_2
REMARK    2  A    between atoms: C_5  and  C_6
REMARK    3  A    between atoms: C_7  and  C_8
REMARK    4  A    between atoms: C_8  and  N_9
REMARK    5  A    between atoms: N_9  and  C_10
REMARK    6  A    between atoms: C_14  and  C_16
REMARK                            x       y       z     vdW  Elec       q    Type
REMARK                         _______ _______ _______ _____ _____    ______ ____
ROOT
ATOM      1  C   UNL     1       2.152   7.133  18.632  0.00  0.00    +0.000 C 
ATOM      2  C   UNL     1       2.385   5.758  19.296  0.00  0.00    +0.000 C 
ATOM      3  C   UNL     1       3.853   5.510  19.617  0.00  0.00    +0.000 C 
ATOM      4  N   UNL     1       4.613   5.574  18.377  0.00  0.00    +0.000 N 
ATOM      5  C   UNL     1       4.699   4.388  17.621  0.00  0.00    +0.000 C 
ATOM      6  O   UNL     1       4.160   3.363  18.040  0.00  0.00    +0.000 OA
ATOM      7  C   UNL     1       4.659   6.928  17.836  0.00  0.00    +0.000 C 
ATOM      8  C   UNL     1       3.250   7.498  17.601  0.00  0.00    +0.000 C 
ENDROOT
BRANCH   5   9
ATOM      9  C   UNL     1       5.445   4.388  16.367  0.00  0.00    +0.000 A 
ATOM     10  C   UNL     1       5.013   4.237  15.061  0.00  0.00    +0.000 A 
ATOM     11  C   UNL     1       6.073   4.365  14.114  0.00  0.00    +0.000 A 
ATOM     12  C   UNL     1       7.276   4.643  14.719  0.00  0.00    +0.000 A 
ATOM     13  S   UNL     1       7.130   4.732  16.418  0.00  0.00    +0.000 S 
ENDBRANCH   5   9
BRANCH   1  14
ATOM     14  N   UNL     1       1.917   8.150  19.683  0.00  0.00    +0.000 NA
ATOM     15  H   UNL     1       1.385   7.698  20.432  0.00  0.00    +0.000 HD
BRANCH  14  16
ATOM     16  C   UNL     1       1.106   9.279  19.206  0.00  0.00    +0.000 C 
BRANCH  16  23
ATOM     17  C   UNL     1       1.723  12.511  19.236  0.00  0.00    +0.000 C 
ATOM     18  C   UNL     1       1.151  11.667  20.310  0.00  0.00    +0.000 A 
ATOM     19  N   UNL     1       0.765  12.232  21.460  0.00  0.00    +0.000 NA
ATOM     20  O   UNL     1       0.213  11.218  22.212  0.00  0.00    +0.000 OA
ATOM     21  C   UNL     1       0.269  10.053  21.517  0.00  0.00    +0.000 A 
ATOM     22  C   UNL     1      -0.363   8.889  22.168  0.00  0.00    +0.000 C 
ATOM     23  C   UNL     1       0.887  10.266  20.299  0.00  0.00    +0.000 A 
ENDBRANCH  16  23
ENDBRANCH  14  16
ENDBRANCH   1  14
TORSDOF 4
ENDMDL
MODEL 6
REMARK VINA RESULT:      -6.6      4.092      5.254
REMARK  Name = 
REMARK  6 active torsions:
REMARK  status: ('A' for Active; 'I' for Inactive)
REMARK    1  A    between atoms: C_1  and  C_2
REMARK    2  A    between atoms: C_5  and  C_6
REMARK    3  A    between atoms: C_7  and  C_8
REMARK    4  A    between atoms: C_8  and  N_9
REMARK    5  A    between atoms: N_9  and  C_10
REMARK    6  A    between atoms: C_14  and  C_16
REMARK                            x       y       z     vdW  Elec       q    Type
REMARK                         _______ _______ _______ _____ _____    ______ ____
ROOT
ATOM      1  C   UNL     1       2.181   7.248  18.487  0.00  0.00    +0.000 C 
ATOM      2  C   UNL     1       2.366   5.874  19.167  0.00  0.00    +0.000 C 
ATOM      3  C   UNL     1       3.822   5.588  19.510  0.00  0.00    +0.000 C 
ATOM      4  N   UNL     1       4.600   5.620  18.281  0.00  0.00    +0.000 N 
ATOM      5  C   UNL     1       4.664   4.425  17.537  0.00  0.00    +0.000 C 
ATOM      6  O   UNL     1       4.091   3.418  17.958  0.00  0.00    +0.000 OA
ATOM      7  C   UNL     1       4.692   6.966  17.728  0.00  0.00    +0.000 C 
ATOM      8  C   UNL     1       3.303   7.573  17.468  0.00  0.00    +0.000 C 
ENDROOT
BRANCH   5   9
ATOM      9  C   UNL     1       5.426   4.391  16.294  0.00  0.00    +0.000 A 
ATOM     10  C   UNL     1       5.014   4.192  14.987  0.00  0.00    +0.000 A 
ATOM     11  C   UNL     1       6.085   4.301  14.051  0.00  0.00    +0.000 A 
ATOM     12  C   UNL     1       7.277   4.612  14.663  0.00  0.00    +0.000 A 
ATOM     13  S   UNL     1       7.107   4.755  16.356  0.00  0.00    +0.000 S 
ENDBRANCH   5   9
BRANCH   1  14
ATOM     14  N   UNL     1       1.961   8.282  19.525  0.00  0.00    +0.000 NA
ATOM     15  H   UNL     1       1.498   7.826  20.317  0.00  0.00    +0.000 HD
BRANCH  14  16
ATOM     16  C   UNL     1       1.067   9.357  19.072  0.00  0.00    +0.000 C 
BRANCH  16  23
ATOM     17  C   UNL     1      -0.313   8.716  21.990  0.00  0.00    +0.000 C 
ATOM     18  C   UNL     1       0.167  10.012  21.456  0.00  0.00    +0.000 A 
ATOM     19  N   UNL     1       0.106  11.106  22.224  0.00  0.00    +0.000 NA
ATOM     20  O   UNL     1       0.687  12.116  21.488  0.00  0.00    +0.000 OA
ATOM     21  C   UNL     1       1.092  11.630  20.287  0.00  0.00    +0.000 A 
ATOM     22  C   UNL     1       1.810  12.584  19.420  0.00  0.00    +0.000 C 
ATOM     23  C   UNL     1       0.761  10.291  20.190  0.00  0.00    +0.000 A 
ENDBRANCH  16  23
ENDBRANCH  14  16
ENDBRANCH   1  14
TORSDOF 4
ENDMDL
MODEL 7
REMARK VINA RESULT:      -6.5      5.414      7.623
REMARK  Name = 
REMARK  6 active torsions:
REMARK  status: ('A' for Active; 'I' for Inactive)
REMARK    1  A    between atoms: C_1  and  C_2
REMARK    2  A    between atoms: C_5  and  C_6
REMARK    3  A    between atoms: C_7  and  C_8
REMARK    4  A    between atoms: C_8  and  N_9
REMARK    5  A    between atoms: N_9  and  C_10
REMARK    6  A    between atoms: C_14  and  C_16
REMARK                            x       y       z     vdW  Elec       q    Type
REMARK                         _______ _______ _______ _____ _____    ______ ____
ROOT
ATOM      1  C   UNL     1       2.352   8.091  18.917  0.00  0.00    +0.000 C 
ATOM      2  C   UNL     1       1.847   8.290  20.363  0.00  0.00    +0.000 C 
ATOM      3  C   UNL     1       0.406   8.780  20.412  0.00  0.00    +0.000 C 
ATOM      4  N   UNL     1       0.325  10.047  19.701  0.00  0.00    +0.000 N 
ATOM      5  C   UNL     1       0.621  11.210  20.438  0.00  0.00    +0.000 C 
ATOM      6  O   UNL     1       0.908  11.114  21.633  0.00  0.00    +0.000 OA
ATOM      7  C   UNL     1       0.526   9.881  18.266  0.00  0.00    +0.000 C 
ATOM      8  C   UNL     1       1.872   9.204  17.952  0.00  0.00    +0.000 C 
ENDROOT
BRANCH   5   9
ATOM      9  C   UNL     1       0.560  12.512  19.783  0.00  0.00    +0.000 A 
ATOM     10  C   UNL     1      -0.527  13.269  19.377  0.00  0.00    +0.000 A 
ATOM     11  C   UNL     1      -0.144  14.528  18.827  0.00  0.00    +0.000 A 
ATOM     12  C   UNL     1       1.219  14.713  18.857  0.00  0.00    +0.000 A 
ATOM     13  S   UNL     1       2.030  13.369  19.529  0.00  0.00    +0.000 S 
ENDBRANCH   5   9
BRANCH   1  14
ATOM     14  N   UNL     1       2.049   6.710  18.479  0.00  0.00    +0.000 NA
ATOM     15  H   UNL     1       1.125   6.468  18.847  0.00  0.00    +0.000 HD
BRANCH  14  16
ATOM     16  C   UNL     1       2.994   5.724  19.021  0.00  0.00    +0.000 C 
BRANCH  16  23
ATOM     17  C   UNL     1       4.348   3.885  16.651  0.00  0.00    +0.000 C 
ATOM     18  C   UNL     1       3.221   3.552  17.553  0.00  0.00    +0.000 A 
ATOM     19  N   UNL     1       2.657   2.340  17.486  0.00  0.00    +0.000 NA
ATOM     20  O   UNL     1       1.708   2.310  18.484  0.00  0.00    +0.000 OA
ATOM     21  C   UNL     1       1.703   3.497  19.144  0.00  0.00    +0.000 A 
ATOM     22  C   UNL     1       0.789   3.582  20.299  0.00  0.00    +0.000 C 
ATOM     23  C   UNL     1       2.632   4.350  18.577  0.00  0.00    +0.000 A 
ENDBRANCH  16  23
ENDBRANCH  14  16
ENDBRANCH   1  14
TORSDOF 4
ENDMDL
MODEL 8
REMARK VINA RESULT:      -6.5      5.303      7.555
REMARK  Name = 
REMARK  6 active torsions:
REMARK  status: ('A' for Active; 'I' for Inactive)
REMARK    1  A    between atoms: C_1  and  C_2
REMARK    2  A    between atoms: C_5  and  C_6
REMARK    3  A    between atoms: C_7  and  C_8
REMARK    4  A    between atoms: C_8  and  N_9
REMARK    5  A    between atoms: N_9  and  C_10
REMARK    6  A    between atoms: C_14  and  C_16
REMARK                            x       y       z     vdW  Elec       q    Type
REMARK                         _______ _______ _______ _____ _____    ______ ____
ROOT
ATOM      1  C   UNL     1       2.405   7.727  19.024  0.00  0.00    +0.000 C 
ATOM      2  C   UNL     1       1.883   7.960  20.458  0.00  0.00    +0.000 C 
ATOM      3  C   UNL     1       0.480   8.554  20.475  0.00  0.00    +0.000 C 
ATOM      4  N   UNL     1       0.509   9.825  19.766  0.00  0.00    +0.000 N 
ATOM      5  C   UNL     1       0.872  10.963  20.513  0.00  0.00    +0.000 C 
ATOM      6  O   UNL     1       1.124  10.844  21.714  0.00  0.00    +0.000 OA
ATOM      7  C   UNL     1       0.731   9.646  18.336  0.00  0.00    +0.000 C 
ATOM      8  C   UNL     1       2.030   8.873  18.051  0.00  0.00    +0.000 C 
ENDROOT
BRANCH   5   9
ATOM      9  C   UNL     1       0.922  12.266  19.860  0.00  0.00    +0.000 A 
ATOM     10  C   UNL     1       1.990  12.969  19.328  0.00  0.00    +0.000 A 
ATOM     11  C   UNL     1       1.590  14.194  18.716  0.00  0.00    +0.000 A 
ATOM     12  C   UNL     1       0.228  14.379  18.769  0.00  0.00    +0.000 A 
ATOM     13  S   UNL     1      -0.559  13.090  19.565  0.00  0.00    +0.000 S 
ENDBRANCH   5   9
BRANCH   1  14
ATOM     14  N   UNL     1       2.012   6.372  18.575  0.00  0.00    +0.000 NA
ATOM     15  H   UNL     1       1.889   5.795  19.412  0.00  0.00    +0.000 HD
BRANCH  14  16
ATOM     16  C   UNL     1       3.047   5.722  17.759  0.00  0.00    +0.000 C 
BRANCH  16  23
ATOM     17  C   UNL     1       5.945   5.235  19.241  0.00  0.00    +0.000 C 
ATOM     18  C   UNL     1       4.815   4.291  19.083  0.00  0.00    +0.000 A 
ATOM     19  N   UNL     1       4.890   3.073  19.631  0.00  0.00    +0.000 NA
ATOM     20  O   UNL     1       3.676   2.471  19.382  0.00  0.00    +0.000 OA
ATOM     21  C   UNL     1       2.879   3.324  18.689  0.00  0.00    +0.000 A 
ATOM     22  C   UNL     1       1.509   2.845  18.420  0.00  0.00    +0.000 C 
ATOM     23  C   UNL     1       3.561   4.501  18.438  0.00  0.00    +0.000 A 
ENDBRANCH  16  23
ENDBRANCH  14  16
ENDBRANCH   1  14
TORSDOF 4
ENDMDL
MODEL 9
REMARK VINA RESULT:      -6.5      3.784      7.430
REMARK  Name = 
REMARK  6 active torsions:
REMARK  status: ('A' for Active; 'I' for Inactive)
REMARK    1  A    between atoms: C_1  and  C_2
REMARK    2  A    between atoms: C_5  and  C_6
REMARK    3  A    between atoms: C_7  and  C_8
REMARK    4  A    between atoms: C_8  and  N_9
REMARK    5  A    between atoms: N_9  and  C_10
REMARK    6  A    between atoms: C_14  and  C_16
REMARK                            x       y       z     vdW  Elec       q    Type
REMARK                         _______ _______ _______ _____ _____    ______ ____
ROOT
ATOM      1  C   UNL     1       2.327   5.038  18.484  0.00  0.00    +0.000 C 
ATOM      2  C   UNL     1       2.412   6.272  17.560  0.00  0.00    +0.000 C 
ATOM      3  C   UNL     1       3.156   7.432  18.208  0.00  0.00    +0.000 C 
ATOM      4  N   UNL     1       2.460   7.800  19.432  0.00  0.00    +0.000 N 
ATOM      5  C   UNL     1       1.392   8.710  19.307  0.00  0.00    +0.000 C 
ATOM      6  O   UNL     1       1.110   9.165  18.197  0.00  0.00    +0.000 OA
ATOM      7  C   UNL     1       2.578   6.770  20.458  0.00  0.00    +0.000 C 
ATOM      8  C   UNL     1       2.058   5.409  19.964  0.00  0.00    +0.000 C 
ENDROOT
BRANCH   5   9
ATOM      9  C   UNL     1       0.652   9.118  20.496  0.00  0.00    +0.000 A 
ATOM     10  C   UNL     1      -0.064   8.369  21.415  0.00  0.00    +0.000 A 
ATOM     11  C   UNL     1      -0.588   9.161  22.480  0.00  0.00    +0.000 A 
ATOM     12  C   UNL     1      -0.233  10.485  22.363  0.00  0.00    +0.000 A 
ATOM     13  S   UNL     1       0.713  10.771  20.971  0.00  0.00    +0.000 S 
ENDBRANCH   5   9
BRANCH   1  14
ATOM     14  N   UNL     1       3.511   4.178  18.261  0.00  0.00    +0.000 NA
ATOM     15  H   UNL     1       4.262   4.529  18.862  0.00  0.00    +0.000 HD
BRANCH  14  16
ATOM     16  C   UNL     1       4.008   4.244  16.879  0.00  0.00    +0.000 C 
BRANCH  16  23
ATOM     17  C   UNL     1       6.095   3.891  14.360  0.00  0.00    +0.000 C 
ATOM     18  C   UNL     1       6.392   4.246  15.767  0.00  0.00    +0.000 A 
ATOM     19  N   UNL     1       7.651   4.522  16.127  0.00  0.00    +0.000 NA
ATOM     20  O   UNL     1       7.593   4.885  17.455  0.00  0.00    +0.000 OA
ATOM     21  C   UNL     1       6.307   4.828  17.887  0.00  0.00    +0.000 A 
ATOM     22  C   UNL     1       6.078   5.272  19.275  0.00  0.00    +0.000 C 
ATOM     23  C   UNL     1       5.488   4.396  16.859  0.00  0.00    +0.000 A 
ENDBRANCH  16  23
ENDBRANCH  14  16
ENDBRANCH   1  14
TORSDOF 4
ENDMDL
