MODEL 1
REMARK VINA RESULT:      -7.3      0.000      0.000
REMARK  Name = 
REMARK  5 active torsions:
REMARK  status: ('A' for Active; 'I' for Inactive)
REMARK    1  A    between atoms: C_1  and  N_2
REMARK    2  A    between atoms: N_2  and  C_3
REMARK    3  A    between atoms: N_2  and  C_12
REMARK    4  A    between atoms: N_14  and  S_15
REMARK    5  A    between atoms: S_15  and  C_18
REMARK                            x       y       z     vdW  Elec       q    Type
REMARK                         _______ _______ _______ _____ _____    ______ ____
ROOT
ATOM      1  C   UNL     1       0.983   9.261  18.913  0.00  0.00    +0.000 C 
ATOM      2  C   UNL     1       1.858   8.371  17.983  0.00  0.00    +0.000 C 
ATOM      3  N   UNL     1       2.186   7.152  18.779  0.00  0.00    +0.000 NA
ATOM      4  C   UNL     1       2.186   7.548  20.207  0.00  0.00    +0.000 C 
ATOM      5  C   UNL     1       1.186   8.664  20.300  0.00  0.00    +0.000 C 
ATOM      6  C   UNL     1       1.033   9.502  21.563  0.00  0.00    +0.000 C 
ATOM      7  C   UNL     1       0.011   8.458  21.244  0.00  0.00    +0.000 C 
ENDROOT
BRANCH   3   8
ATOM      8  S   UNL     1       3.562   6.256  18.354  0.00  0.00    +0.000 S 
ATOM      9  O   UNL     1       3.927   6.673  17.017  0.00  0.00    +0.000 OA
ATOM     10  O   UNL     1       4.518   6.357  19.436  0.00  0.00    +0.000 OA
BRANCH   8  11
ATOM     11  C   UNL     1       3.020   4.585  18.277  0.00  0.00    +0.000 A 
ATOM     12  C   UNL     1       1.680   4.272  18.530  0.00  0.00    +0.000 A 
ATOM     13  C   UNL     1       1.243   2.953  18.402  0.00  0.00    +0.000 A 
ATOM     14  C   UNL     1       2.138   1.953  18.018  0.00  0.00    +0.000 A 
ATOM     15  C   UNL     1       3.472   2.273  17.761  0.00  0.00    +0.000 A 
ATOM     16  C   UNL     1       3.909   3.592  17.891  0.00  0.00    +0.000 A 
ATOM     17  F   UNL     1       5.196   3.865  17.634  0.00  0.00    +0.000 F 
ENDBRANCH   8  11
ENDBRANCH   3   8
BRANCH   1  19
ATOM     18  C   UNL     1       2.413  11.175  18.033  0.00  0.00    +0.000 C 
ATOM     19  N   UNL     1       1.332  10.692  18.887  0.00  0.00    +0.000 N 
BRANCH  19  20
ATOM     20  C   UNL     1       0.332  11.621  19.170  0.00  0.00    +0.000 A 
ATOM     21  N   UNL     1       0.574  12.616  20.070  0.00  0.00    +0.000 NA
ATOM     22  C   UNL     1      -0.433  13.429  20.446  0.00  0.00    +0.000 A 
ATOM     23  N   UNL     1      -1.715  13.403  20.049  0.00  0.00    +0.000 NA
ATOM     24  C   UNL     1      -1.925  12.415  19.170  0.00  0.00    +0.000 A 
ATOM     25  N   UNL     1      -3.146  12.112  18.632  0.00  0.00    +0.000 N 
ATOM     26  C   UNL     1      -3.030  11.033  17.796  0.00  0.00    +0.000 A 
ATOM     27  C   UNL     1      -1.710  10.637  17.817  0.00  0.00    +0.000 A 
ATOM     28  C   UNL     1      -0.990  11.514  18.681  0.00  0.00    +0.000 A 
ATOM     29  H   UNL     1      -3.998  12.605  18.857  0.00  0.00    +0.000 HD
ENDBRANCH  19  20
ENDBRANCH   1  19
TORSDOF 4
ENDMDL
MODEL 2
REMARK VINA RESULT:      -7.2      3.536      7.916
REMARK  Name = 
REMARK  5 active torsions:
REMARK  status: ('A' for Active; 'I' for Inactive)
REMARK    1  A    between atoms: C_1  and  N_2
REMARK    2  A    between atoms: N_2  and  C_3
REMARK    3  A    between atoms: N_2  and  C_12
REMARK    4  A    between atoms: N_14  and  S_15
REMARK    5  A    between atoms: S_15  and  C_18
REMARK                            x       y       z     vdW  Elec       q    Type
REMARK                         _______ _______ _______ _____ _____    ______ ____
ROOT
ATOM      1  C   UNL     1       3.287   4.157  19.704  0.00  0.00    +0.000 C 
ATOM      2  C   UNL     1       3.350   5.712  19.763  0.00  0.00    +0.000 C 
ATOM      3  N   UNL     1       2.137   6.193  19.040  0.00  0.00    +0.000 NA
ATOM      4  C   UNL     1       1.788   5.165  18.033  0.00  0.00    +0.000 C 
ATOM      5  C   UNL     1       2.246   3.865  18.631  0.00  0.00    +0.000 C 
ATOM      6  C   UNL     1       2.266   2.573  17.825  0.00  0.00    +0.000 C 
ATOM      7  C   UNL     1       1.188   2.792  18.838  0.00  0.00    +0.000 C 
ENDROOT
BRANCH   3   8
ATOM      8  S   UNL     1       2.155   7.760  18.389  0.00  0.00    +0.000 S 
ATOM      9  O   UNL     1       3.547   8.117  18.216  0.00  0.00    +0.000 OA
ATOM     10  O   UNL     1       1.248   7.789  17.261  0.00  0.00    +0.000 OA
BRANCH   8  11
ATOM     11  C   UNL     1       1.477   8.790  19.643  0.00  0.00    +0.000 A 
ATOM     12  C   UNL     1       1.268   8.280  20.929  0.00  0.00    +0.000 A 
ATOM     13  C   UNL     1       0.793   9.121  21.936  0.00  0.00    +0.000 A 
ATOM     14  C   UNL     1       0.533  10.466  21.661  0.00  0.00    +0.000 A 
ATOM     15  C   UNL     1       0.749  10.968  20.377  0.00  0.00    +0.000 A 
ATOM     16  C   UNL     1       1.222  10.127  19.370  0.00  0.00    +0.000 A 
ATOM     17  F   UNL     1       1.421  10.643  18.150  0.00  0.00    +0.000 F 
ENDBRANCH   8  11
ENDBRANCH   3   8
BRANCH   1  19
ATOM     18  C   UNL     1       4.628   2.083  19.087  0.00  0.00    +0.000 C 
ATOM     19  N   UNL     1       4.574   3.509  19.395  0.00  0.00    +0.000 N 
BRANCH  19  20
ATOM     20  C   UNL     1       5.584   4.284  18.828  0.00  0.00    +0.000 A 
ATOM     21  N   UNL     1       6.476   4.921  19.638  0.00  0.00    +0.000 NA
ATOM     22  C   UNL     1       7.366   5.778  19.098  0.00  0.00    +0.000 A 
ATOM     23  N   UNL     1       7.513   6.123  17.810  0.00  0.00    +0.000 NA
ATOM     24  C   UNL     1       6.622   5.487  17.039  0.00  0.00    +0.000 A 
ATOM     25  N   UNL     1       6.498   5.678  15.689  0.00  0.00    +0.000 N 
ATOM     26  C   UNL     1       5.477   4.905  15.203  0.00  0.00    +0.000 A 
ATOM     27  C   UNL     1       4.937   4.219  16.270  0.00  0.00    +0.000 A 
ATOM     28  C   UNL     1       5.661   4.571  17.446  0.00  0.00    +0.000 A 
ATOM     29  H   UNL     1       7.064   6.324  15.159  0.00  0.00    +0.000 HD
ENDBRANCH  19  20
ENDBRANCH   1  19
TORSDOF 4
ENDMDL
MODEL 3
REMARK VINA RESULT:      -7.1      0.935      1.205
REMARK  Name = 
REMARK  5 active torsions:
REMARK  status: ('A' for Active; 'I' for Inactive)
REMARK    1  A    between atoms: C_1  and  N_2
REMARK    2  A    between atoms: N_2  and  C_3
REMARK    3  A    between atoms: N_2  and  C_12
REMARK    4  A    between atoms: N_14  and  S_15
REMARK    5  A    between atoms: S_15  and  C_18
REMARK                            x       y       z     vdW  Elec       q    Type
REMARK                         _______ _______ _______ _____ _____    ______ ____
ROOT
ATOM      1  C   UNL     1       1.033   9.102  18.885  0.00  0.00    +0.000 C 
ATOM      2  C   UNL     1       1.919   8.207  17.970  0.00  0.00    +0.000 C 
ATOM      3  N   UNL     1       2.256   7.003  18.786  0.00  0.00    +0.000 NA
ATOM      4  C   UNL     1       2.247   7.419  20.208  0.00  0.00    +0.000 C 
ATOM      5  C   UNL     1       1.236   8.528  20.281  0.00  0.00    +0.000 C 
ATOM      6  C   UNL     1       1.071   9.382  21.531  0.00  0.00    +0.000 C 
ATOM      7  C   UNL     1       0.060   8.325  21.224  0.00  0.00    +0.000 C 
ENDROOT
BRANCH   3   8
ATOM      8  S   UNL     1       3.642   6.114  18.378  0.00  0.00    +0.000 S 
ATOM      9  O   UNL     1       3.902   6.378  16.979  0.00  0.00    +0.000 OA
ATOM     10  O   UNL     1       4.658   6.382  19.373  0.00  0.00    +0.000 OA
BRANCH   8  11
ATOM     11  C   UNL     1       3.172   4.427  18.539  0.00  0.00    +0.000 A 
ATOM     12  C   UNL     1       3.985   3.540  19.254  0.00  0.00    +0.000 A 
ATOM     13  C   UNL     1       3.573   2.219  19.434  0.00  0.00    +0.000 A 
ATOM     14  C   UNL     1       2.353   1.788  18.909  0.00  0.00    +0.000 A 
ATOM     15  C   UNL     1       1.545   2.680  18.203  0.00  0.00    +0.000 A 
ATOM     16  C   UNL     1       1.957   4.000  18.021  0.00  0.00    +0.000 A 
ATOM     17  F   UNL     1       1.156   4.830  17.340  0.00  0.00    +0.000 F 
ENDBRANCH   8  11
ENDBRANCH   3   8
BRANCH   1  19
ATOM     18  C   UNL     1       2.467  11.013  18.004  0.00  0.00    +0.000 C 
ATOM     19  N   UNL     1       1.369  10.536  18.839  0.00  0.00    +0.000 N 
BRANCH  19  20
ATOM     20  C   UNL     1       0.353  11.460  19.078  0.00  0.00    +0.000 A 
ATOM     21  N   UNL     1       0.567  12.484  19.951  0.00  0.00    +0.000 NA
ATOM     22  C   UNL     1      -0.456  13.295  20.286  0.00  0.00    +0.000 A 
ATOM     23  N   UNL     1      -1.730  13.242  19.869  0.00  0.00    +0.000 NA
ATOM     24  C   UNL     1      -1.914  12.224  19.018  0.00  0.00    +0.000 A 
ATOM     25  N   UNL     1      -3.122  11.890  18.469  0.00  0.00    +0.000 N 
ATOM     26  C   UNL     1      -2.979  10.788  17.669  0.00  0.00    +0.000 A 
ATOM     27  C   UNL     1      -1.654  10.410  17.722  0.00  0.00    +0.000 A 
ATOM     28  C   UNL     1      -0.960  11.321  18.571  0.00  0.00    +0.000 A 
ATOM     29  H   UNL     1      -3.983  12.379  18.666  0.00  0.00    +0.000 HD
ENDBRANCH  19  20
ENDBRANCH   1  19
TORSDOF 4
ENDMDL
MODEL 4
REMARK VINA RESULT:      -7.1      1.842      2.853
REMARK  Name = 
REMARK  5 active torsions:
REMARK  status: ('A' for Active; 'I' for Inactive)
REMARK    1  A    between atoms: C_1  and  N_2
REMARK    2  A    between atoms: N_2  and  C_3
REMARK    3  A    between atoms: N_2  and  C_12
REMARK    4  A    between atoms: N_14  and  S_15
REMARK    5  A    between atoms: S_15  and  C_18
REMARK                            x       y       z     vdW  Elec       q    Type
REMARK                         _______ _______ _______ _____ _____    ______ ____
ROOT
ATOM      1  C   UNL     1       1.656   8.701  20.062  0.00  0.00    +0.000 C 
ATOM      2  C   UNL     1       2.075   7.254  20.459  0.00  0.00    +0.000 C 
ATOM      3  N   UNL     1       2.768   6.692  19.264  0.00  0.00    +0.000 NA
ATOM      4  C   UNL     1       2.201   7.362  18.070  0.00  0.00    +0.000 C 
ATOM      5  C   UNL     1       1.804   8.731  18.546  0.00  0.00    +0.000 C 
ATOM      6  C   UNL     1       0.984   9.676  17.680  0.00  0.00    +0.000 C 
ATOM      7  C   UNL     1       2.450   9.917  17.846  0.00  0.00    +0.000 C 
ENDROOT
BRANCH   3   8
ATOM      8  S   UNL     1       2.836   5.006  19.089  0.00  0.00    +0.000 S 
ATOM      9  O   UNL     1       3.085   4.466  20.409  0.00  0.00    +0.000 OA
ATOM     10  O   UNL     1       1.674   4.584  18.335  0.00  0.00    +0.000 OA
BRANCH   8  11
ATOM     11  C   UNL     1       4.254   4.700  18.096  0.00  0.00    +0.000 A 
ATOM     12  C   UNL     1       4.108   4.155  16.816  0.00  0.00    +0.000 A 
ATOM     13  C   UNL     1       5.232   3.978  16.008  0.00  0.00    +0.000 A 
ATOM     14  C   UNL     1       6.495   4.349  16.474  0.00  0.00    +0.000 A 
ATOM     15  C   UNL     1       6.632   4.899  17.750  0.00  0.00    +0.000 A 
ATOM     16  C   UNL     1       5.509   5.074  18.558  0.00  0.00    +0.000 A 
ATOM     17  F   UNL     1       5.677   5.606  19.776  0.00  0.00    +0.000 F 
ENDBRANCH   8  11
ENDBRANCH   3   8
BRANCH   1  19
ATOM     18  C   UNL     1      -0.482   8.195  21.350  0.00  0.00    +0.000 C 
ATOM     19  N   UNL     1       0.291   9.072  20.476  0.00  0.00    +0.000 N 
BRANCH  19  20
ATOM     20  C   UNL     1      -0.030  10.427  20.551  0.00  0.00    +0.000 A 
ATOM     21  N   UNL     1       0.586  11.213  21.478  0.00  0.00    +0.000 NA
ATOM     22  C   UNL     1       0.178  12.487  21.643  0.00  0.00    +0.000 A 
ATOM     23  N   UNL     1      -0.804  13.136  20.998  0.00  0.00    +0.000 NA
ATOM     24  C   UNL     1      -1.395  12.339  20.099  0.00  0.00    +0.000 A 
ATOM     25  N   UNL     1      -2.464  12.710  19.328  0.00  0.00    +0.000 N 
ATOM     26  C   UNL     1      -2.850  11.662  18.536  0.00  0.00    +0.000 A 
ATOM     27  C   UNL     1      -2.016  10.601  18.821  0.00  0.00    +0.000 A 
ATOM     28  C   UNL     1      -1.076  11.020  19.808  0.00  0.00    +0.000 A 
ATOM     29  H   UNL     1      -2.904  13.617  19.378  0.00  0.00    +0.000 HD
ENDBRANCH  19  20
ENDBRANCH   1  19
TORSDOF 4
ENDMDL
MODEL 5
REMARK VINA RESULT:      -7.0      1.029      1.220
REMARK  Name = 
REMARK  5 active torsions:
REMARK  status: ('A' for Active; 'I' for Inactive)
REMARK    1  A    between atoms: C_1  and  N_2
REMARK    2  A    between atoms: N_2  and  C_3
REMARK    3  A    between atoms: N_2  and  C_12
REMARK    4  A    between atoms: N_14  and  S_15
REMARK    5  A    between atoms: S_15  and  C_18
REMARK                            x       y       z     vdW  Elec       q    Type
REMARK                         _______ _______ _______ _____ _____    ______ ____
ROOT
ATOM      1  C   UNL     1       0.961   9.244  18.961  0.00  0.00    +0.000 C 
ATOM      2  C   UNL     1       1.800   8.255  18.098  0.00  0.00    +0.000 C 
ATOM      3  N   UNL     1       2.052   7.071  18.971  0.00  0.00    +0.000 NA
ATOM      4  C   UNL     1       2.055   7.551  20.373  0.00  0.00    +0.000 C 
ATOM      5  C   UNL     1       1.114   8.722  20.384  0.00  0.00    +0.000 C 
ATOM      6  C   UNL     1       0.989   9.640  21.592  0.00  0.00    +0.000 C 
ATOM      7  C   UNL     1      -0.083   8.634  21.318  0.00  0.00    +0.000 C 
ENDROOT
BRANCH   3   8
ATOM      8  S   UNL     1       3.384   6.081  18.621  0.00  0.00    +0.000 S 
ATOM      9  O   UNL     1       3.766   6.372  17.256  0.00  0.00    +0.000 OA
ATOM     10  O   UNL     1       4.345   6.222  19.695  0.00  0.00    +0.000 OA
BRANCH   8  11
ATOM     11  C   UNL     1       2.764   4.436  18.677  0.00  0.00    +0.000 A 
ATOM     12  C   UNL     1       2.803   3.634  17.530  0.00  0.00    +0.000 A 
ATOM     13  C   UNL     1       2.372   2.309  17.599  0.00  0.00    +0.000 A 
ATOM     14  C   UNL     1       1.908   1.785  18.808  0.00  0.00    +0.000 A 
ATOM     15  C   UNL     1       1.878   2.589  19.949  0.00  0.00    +0.000 A 
ATOM     16  C   UNL     1       2.308   3.914  19.879  0.00  0.00    +0.000 A 
ATOM     17  F   UNL     1       2.267   4.656  20.994  0.00  0.00    +0.000 F 
ENDBRANCH   8  11
ENDBRANCH   3   8
BRANCH   1  19
ATOM     18  C   UNL     1       2.465  11.033  17.950  0.00  0.00    +0.000 C 
ATOM     19  N   UNL     1       1.386  10.651  18.856  0.00  0.00    +0.000 N 
BRANCH  19  20
ATOM     20  C   UNL     1       0.447  11.646  19.122  0.00  0.00    +0.000 A 
ATOM     21  N   UNL     1       0.791  12.700  19.915  0.00  0.00    +0.000 NA
ATOM     22  C   UNL     1      -0.154  13.588  20.283  0.00  0.00    +0.000 A 
ATOM     23  N   UNL     1      -1.460  13.589  19.974  0.00  0.00    +0.000 NA
ATOM     24  C   UNL     1      -1.770  12.541  19.199  0.00  0.00    +0.000 A 
ATOM     25  N   UNL     1      -3.037  12.253  18.769  0.00  0.00    +0.000 N 
ATOM     26  C   UNL     1      -3.023  11.103  18.024  0.00  0.00    +0.000 A 
ATOM     27  C   UNL     1      -1.722  10.649  17.993  0.00  0.00    +0.000 A 
ATOM     28  C   UNL     1      -0.909  11.560  18.730  0.00  0.00    +0.000 A 
ATOM     29  H   UNL     1      -3.850  12.802  19.006  0.00  0.00    +0.000 HD
ENDBRANCH  19  20
ENDBRANCH   1  19
TORSDOF 4
ENDMDL
MODEL 6
REMARK VINA RESULT:      -6.9      3.524      8.223
REMARK  Name = 
REMARK  5 active torsions:
REMARK  status: ('A' for Active; 'I' for Inactive)
REMARK    1  A    between atoms: C_1  and  N_2
REMARK    2  A    between atoms: N_2  and  C_3
REMARK    3  A    between atoms: N_2  and  C_12
REMARK    4  A    between atoms: N_14  and  S_15
REMARK    5  A    between atoms: S_15  and  C_18
REMARK                            x       y       z     vdW  Elec       q    Type
REMARK                         _______ _______ _______ _____ _____    ______ ____
ROOT
ATOM      1  C   UNL     1       3.236   4.132  19.777  0.00  0.00    +0.000 C 
ATOM      2  C   UNL     1       3.374   5.683  19.754  0.00  0.00    +0.000 C 
ATOM      3  N   UNL     1       2.079   6.196  19.221  0.00  0.00    +0.000 NA
ATOM      4  C   UNL     1       1.522   5.149  18.333  0.00  0.00    +0.000 C 
ATOM      5  C   UNL     1       2.018   3.852  18.905  0.00  0.00    +0.000 C 
ATOM      6  C   UNL     1       1.849   2.531  18.166  0.00  0.00    +0.000 C 
ATOM      7  C   UNL     1       0.965   2.841  19.332  0.00  0.00    +0.000 C 
ENDROOT
BRANCH   3   8
ATOM      8  S   UNL     1       2.054   7.734  18.505  0.00  0.00    +0.000 S 
ATOM      9  O   UNL     1       3.435   8.112  18.296  0.00  0.00    +0.000 OA
ATOM     10  O   UNL     1       1.130   7.698  17.391  0.00  0.00    +0.000 OA
BRANCH   8  11
ATOM     11  C   UNL     1       1.373   8.801  19.726  0.00  0.00    +0.000 A 
ATOM     12  C   UNL     1       1.186   8.339  21.034  0.00  0.00    +0.000 A 
ATOM     13  C   UNL     1       0.709   9.211  22.012  0.00  0.00    +0.000 A 
ATOM     14  C   UNL     1       0.425  10.540  21.689  0.00  0.00    +0.000 A 
ATOM     15  C   UNL     1       0.620  10.995  20.384  0.00  0.00    +0.000 A 
ATOM     16  C   UNL     1       1.095  10.123  19.405  0.00  0.00    +0.000 A 
ATOM     17  F   UNL     1       1.273  10.594  18.164  0.00  0.00    +0.000 F 
ENDBRANCH   8  11
ENDBRANCH   3   8
BRANCH   1  19
ATOM     18  C   UNL     1       4.551   1.970  19.495  0.00  0.00    +0.000 C 
ATOM     19  N   UNL     1       4.424   3.410  19.289  0.00  0.00    +0.000 N 
BRANCH  19  20
ATOM     20  C   UNL     1       5.095   3.917  18.177  0.00  0.00    +0.000 A 
ATOM     21  N   UNL     1       4.825   3.411  16.941  0.00  0.00    +0.000 NA
ATOM     22  C   UNL     1       5.570   3.803  15.887  0.00  0.00    +0.000 A 
ATOM     23  N   UNL     1       6.600   4.663  15.871  0.00  0.00    +0.000 NA
ATOM     24  C   UNL     1       6.846   5.140  17.098  0.00  0.00    +0.000 A 
ATOM     25  N   UNL     1       7.870   5.996  17.398  0.00  0.00    +0.000 N 
ATOM     26  C   UNL     1       7.869   6.268  18.740  0.00  0.00    +0.000 A 
ATOM     27  C   UNL     1       6.828   5.560  19.303  0.00  0.00    +0.000 A 
ATOM     28  C   UNL     1       6.160   4.842  18.267  0.00  0.00    +0.000 A 
ATOM     29  H   UNL     1       8.536   6.336  16.719  0.00  0.00    +0.000 HD
ENDBRANCH  19  20
ENDBRANCH   1  19
TORSDOF 4
ENDMDL
MODEL 7
REMARK VINA RESULT:      -6.8      4.528      8.798
REMARK  Name = 
REMARK  5 active torsions:
REMARK  status: ('A' for Active; 'I' for Inactive)
REMARK    1  A    between atoms: C_1  and  N_2
REMARK    2  A    between atoms: N_2  and  C_3
REMARK    3  A    between atoms: N_2  and  C_12
REMARK    4  A    between atoms: N_14  and  S_15
REMARK    5  A    between atoms: S_15  and  C_18
REMARK                            x       y       z     vdW  Elec       q    Type
REMARK                         _______ _______ _______ _____ _____    ______ ____
ROOT
ATOM      1  C   UNL     1       5.838   5.694  16.640  0.00  0.00    +0.000 C 
ATOM      2  C   UNL     1       4.302   5.782  16.877  0.00  0.00    +0.000 C 
ATOM      3  N   UNL     1       4.137   6.263  18.280  0.00  0.00    +0.000 NA
ATOM      4  C   UNL     1       5.323   5.808  19.043  0.00  0.00    +0.000 C 
ATOM      5  C   UNL     1       6.439   5.768  18.038  0.00  0.00    +0.000 C 
ATOM      6  C   UNL     1       7.790   5.147  18.364  0.00  0.00    +0.000 C 
ATOM      7  C   UNL     1       7.654   6.636  18.324  0.00  0.00    +0.000 C 
ENDROOT
BRANCH   3   8
ATOM      8  S   UNL     1       2.681   5.925  19.082  0.00  0.00    +0.000 S 
ATOM      9  O   UNL     1       1.827   5.260  18.121  0.00  0.00    +0.000 OA
ATOM     10  O   UNL     1       2.998   5.287  20.343  0.00  0.00    +0.000 OA
BRANCH   8  11
ATOM     11  C   UNL     1       1.978   7.496  19.445  0.00  0.00    +0.000 A 
ATOM     12  C   UNL     1       1.563   7.794  20.748  0.00  0.00    +0.000 A 
ATOM     13  C   UNL     1       1.069   9.065  21.041  0.00  0.00    +0.000 A 
ATOM     14  C   UNL     1       0.994  10.036  20.041  0.00  0.00    +0.000 A 
ATOM     15  C   UNL     1       1.416   9.734  18.745  0.00  0.00    +0.000 A 
ATOM     16  C   UNL     1       1.908   8.463  18.451  0.00  0.00    +0.000 A 
ATOM     17  F   UNL     1       2.306   8.208  17.197  0.00  0.00    +0.000 F 
ENDBRANCH   8  11
ENDBRANCH   3   8
BRANCH   1  19
ATOM     18  C   UNL     1       5.630   3.194  16.200  0.00  0.00    +0.000 C 
ATOM     19  N   UNL     1       6.274   4.477  15.932  0.00  0.00    +0.000 N 
BRANCH  19  20
ATOM     20  C   UNL     1       6.827   4.615  14.660  0.00  0.00    +0.000 A 
ATOM     21  N   UNL     1       7.869   5.473  14.470  0.00  0.00    +0.000 NA
ATOM     22  C   UNL     1       8.313   5.710  13.219  0.00  0.00    +0.000 A 
ATOM     23  N   UNL     1       7.855   5.203  12.064  0.00  0.00    +0.000 NA
ATOM     24  C   UNL     1       6.830   4.369  12.280  0.00  0.00    +0.000 A 
ATOM     25  N   UNL     1       6.128   3.742  11.286  0.00  0.00    +0.000 N 
ATOM     26  C   UNL     1       5.126   2.985  11.834  0.00  0.00    +0.000 A 
ATOM     27  C   UNL     1       5.189   3.145  13.202  0.00  0.00    +0.000 A 
ATOM     28  C   UNL     1       6.277   4.017  13.503  0.00  0.00    +0.000 A 
ATOM     29  H   UNL     1       6.317   3.862  10.302  0.00  0.00    +0.000 HD
ENDBRANCH  19  20
ENDBRANCH   1  19
TORSDOF 4
ENDMDL
MODEL 8
REMARK VINA RESULT:      -6.7      5.331      8.342
REMARK  Name = 
REMARK  5 active torsions:
REMARK  status: ('A' for Active; 'I' for Inactive)
REMARK    1  A    between atoms: C_1  and  N_2
REMARK    2  A    between atoms: N_2  and  C_3
REMARK    3  A    between atoms: N_2  and  C_12
REMARK    4  A    between atoms: N_14  and  S_15
REMARK    5  A    between atoms: S_15  and  C_18
REMARK                            x       y       z     vdW  Elec       q    Type
REMARK                         _______ _______ _______ _____ _____    ______ ____
ROOT
ATOM      1  C   UNL     1       5.945   5.813  16.659  0.00  0.00    +0.000 C 
ATOM      2  C   UNL     1       4.440   6.204  16.718  0.00  0.00    +0.000 C 
ATOM      3  N   UNL     1       4.190   6.643  18.122  0.00  0.00    +0.000 NA
ATOM      4  C   UNL     1       5.151   5.919  18.986  0.00  0.00    +0.000 C 
ATOM      5  C   UNL     1       6.359   5.696  18.121  0.00  0.00    +0.000 C 
ATOM      6  C   UNL     1       7.506   4.797  18.560  0.00  0.00    +0.000 C 
ATOM      7  C   UNL     1       7.674   6.282  18.611  0.00  0.00    +0.000 C 
ENDROOT
BRANCH   3   8
ATOM      8  S   UNL     1       2.603   6.575  18.718  0.00  0.00    +0.000 S 
ATOM      9  O   UNL     1       2.534   7.522  19.810  0.00  0.00    +0.000 OA
ATOM     10  O   UNL     1       1.695   6.685  17.596  0.00  0.00    +0.000 OA
BRANCH   8  11
ATOM     11  C   UNL     1       2.429   4.957  19.385  0.00  0.00    +0.000 A 
ATOM     12  C   UNL     1       2.385   4.773  20.772  0.00  0.00    +0.000 A 
ATOM     13  C   UNL     1       2.179   3.495  21.292  0.00  0.00    +0.000 A 
ATOM     14  C   UNL     1       2.013   2.407  20.433  0.00  0.00    +0.000 A 
ATOM     15  C   UNL     1       2.051   2.599  19.051  0.00  0.00    +0.000 A 
ATOM     16  C   UNL     1       2.258   3.876  18.531  0.00  0.00    +0.000 A 
ATOM     17  F   UNL     1       2.288   4.025  17.199  0.00  0.00    +0.000 F 
ENDBRANCH   8  11
ENDBRANCH   3   8
BRANCH   1  19
ATOM     18  C   UNL     1       5.403   3.378  16.147  0.00  0.00    +0.000 C 
ATOM     19  N   UNL     1       6.220   4.566  15.922  0.00  0.00    +0.000 N 
BRANCH  19  20
ATOM     20  C   UNL     1       6.806   4.661  14.661  0.00  0.00    +0.000 A 
ATOM     21  N   UNL     1       7.864   5.498  14.472  0.00  0.00    +0.000 NA
ATOM     22  C   UNL     1       8.342   5.693  13.227  0.00  0.00    +0.000 A 
ATOM     23  N   UNL     1       7.905   5.160  12.076  0.00  0.00    +0.000 NA
ATOM     24  C   UNL     1       6.862   4.347  12.289  0.00  0.00    +0.000 A 
ATOM     25  N   UNL     1       6.174   3.703  11.297  0.00  0.00    +0.000 N 
ATOM     26  C   UNL     1       5.148   2.976  11.841  0.00  0.00    +0.000 A 
ATOM     27  C   UNL     1       5.181   3.174  13.204  0.00  0.00    +0.000 A 
ATOM     28  C   UNL     1       6.274   4.038  13.508  0.00  0.00    +0.000 A 
ATOM     29  H   UNL     1       6.389   3.792  10.315  0.00  0.00    +0.000 HD
ENDBRANCH  19  20
ENDBRANCH   1  19
TORSDOF 4
ENDMDL
MODEL 9
REMARK VINA RESULT:      -6.7      0.948      2.097
REMARK  Name = 
REMARK  5 active torsions:
REMARK  status: ('A' for Active; 'I' for Inactive)
REMARK    1  A    between atoms: C_1  and  N_2
REMARK    2  A    between atoms: N_2  and  C_3
REMARK    3  A    between atoms: N_2  and  C_12
REMARK    4  A    between atoms: N_14  and  S_15
REMARK    5  A    between atoms: S_15  and  C_18
REMARK                            x       y       z     vdW  Elec       q    Type
REMARK                         _______ _______ _______ _____ _____    ______ ____
ROOT
ATOM      1  C   UNL     1       1.044   9.250  18.957  0.00  0.00    +0.000 C 
ATOM      2  C   UNL     1       1.900   8.345  18.024  0.00  0.00    +0.000 C 
ATOM      3  N   UNL     1       2.188   7.110  18.811  0.00  0.00    +0.000 NA
ATOM      4  C   UNL     1       2.188   7.492  20.243  0.00  0.00    +0.000 C 
ATOM      5  C   UNL     1       1.219   8.635  20.340  0.00  0.00    +0.000 C 
ATOM      6  C   UNL     1       1.080   9.464  21.609  0.00  0.00    +0.000 C 
ATOM      7  C   UNL     1       0.031   8.453  21.273  0.00  0.00    +0.000 C 
ENDROOT
BRANCH   3   8
ATOM      8  S   UNL     1       3.542   6.180  18.387  0.00  0.00    +0.000 S 
ATOM      9  O   UNL     1       3.903   6.570  17.041  0.00  0.00    +0.000 OA
ATOM     10  O   UNL     1       4.509   6.277  19.460  0.00  0.00    +0.000 OA
BRANCH   8  11
ATOM     11  C   UNL     1       2.965   4.519  18.340  0.00  0.00    +0.000 A 
ATOM     12  C   UNL     1       1.621   4.237  18.608  0.00  0.00    +0.000 A 
ATOM     13  C   UNL     1       1.156   2.926  18.503  0.00  0.00    +0.000 A 
ATOM     14  C   UNL     1       2.028   1.902  18.126  0.00  0.00    +0.000 A 
ATOM     15  C   UNL     1       3.366   2.192  17.854  0.00  0.00    +0.000 A 
ATOM     16  C   UNL     1       3.831   3.502  17.961  0.00  0.00    +0.000 A 
ATOM     17  F   UNL     1       5.120   3.745  17.690  0.00  0.00    +0.000 F 
ENDBRANCH   8  11
ENDBRANCH   3   8
BRANCH   1  19
ATOM     18  C   UNL     1       2.432  11.159  18.002  0.00  0.00    +0.000 C 
ATOM     19  N   UNL     1       1.433  10.671  18.948  0.00  0.00    +0.000 N 
BRANCH  19  20
ATOM     20  C   UNL     1       0.498  11.615  19.371  0.00  0.00    +0.000 A 
ATOM     21  N   UNL     1      -0.782  11.547  18.906  0.00  0.00    +0.000 NA
ATOM     22  C   UNL     1      -1.648  12.536  19.205  0.00  0.00    +0.000 A 
ATOM     23  N   UNL     1      -1.429  13.643  19.929  0.00  0.00    +0.000 NA
ATOM     24  C   UNL     1      -0.164  13.686  20.368  0.00  0.00    +0.000 A 
ATOM     25  N   UNL     1       0.364  14.723  21.089  0.00  0.00    +0.000 N 
ATOM     26  C   UNL     1       1.685  14.476  21.355  0.00  0.00    +0.000 A 
ATOM     27  C   UNL     1       2.001  13.264  20.781  0.00  0.00    +0.000 A 
ATOM     28  C   UNL     1       0.831  12.742  20.156  0.00  0.00    +0.000 A 
ATOM     29  H   UNL     1      -0.154  15.551  21.345  0.00  0.00    +0.000 HD
ENDBRANCH  19  20
ENDBRANCH   1  19
TORSDOF 4
ENDMDL
