MODEL 1
REMARK VINA RESULT:      -8.1      0.000      0.000
REMARK  Name = 
REMARK  5 active torsions:
REMARK  status: ('A' for Active; 'I' for Inactive)
REMARK    1  A    between atoms: C_1  and  C_2
REMARK    2  A    between atoms: C_5  and  N_6
REMARK    3  A    between atoms: N_12  and  C_13
REMARK    4  A    between atoms: C_13  and  C_14
REMARK    5  A    between atoms: C_14  and  C_15
REMARK                            x       y       z     vdW  Elec       q    Type
REMARK                         _______ _______ _______ _____ _____    ______ ____
ROOT
ATOM      1  N   UNL     1       5.064   4.501  18.028  0.00  0.00    +0.000 N 
ATOM      2  C   UNL     1       6.078   5.038  18.802  0.00  0.00    +0.000 C 
ATOM      3  O   UNL     1       6.083   5.041  20.033  0.00  0.00    +0.000 OA
ATOM      4  C   UNL     1       7.246   5.605  18.101  0.00  0.00    +0.000 C 
ATOM      5  C   UNL     1       7.090   5.853  16.653  0.00  0.00    +0.000 C 
ATOM      6  O   UNL     1       7.859   6.654  16.118  0.00  0.00    +0.000 OA
ATOM      7  N   UNL     1       6.112   5.143  15.989  0.00  0.00    +0.000 N 
ATOM      8  C   UNL     1       5.023   4.559  16.644  0.00  0.00    +0.000 C 
ATOM      9  O   UNL     1       4.054   4.145  16.004  0.00  0.00    +0.000 OA
ENDROOT
BRANCH   1  14
ATOM     10  C   UNL     1       1.312   2.596  22.035  0.00  0.00    +0.000 C 
ATOM     11  C   UNL     1       2.429   3.242  21.218  0.00  0.00    +0.000 C 
ATOM     12  C   UNL     1       3.289   2.168  20.544  0.00  0.00    +0.000 C 
ATOM     13  C   UNL     1       4.423   2.790  19.737  0.00  0.00    +0.000 C 
ATOM     14  C   UNL     1       3.930   3.849  18.728  0.00  0.00    +0.000 C 
ATOM     15  C   UNL     1       2.959   4.871  19.356  0.00  0.00    +0.000 C 
ATOM     16  C   UNL     1       1.852   4.202  20.170  0.00  0.00    +0.000 C 
ENDBRANCH   1  14
BRANCH   7  17
ATOM     17  C   UNL     1       5.989   5.287  14.521  0.00  0.00    +0.000 C 
BRANCH  17  18
ATOM     18  C   UNL     1       7.070   4.607  13.662  0.00  0.00    +0.000 C 
BRANCH  18  19
ATOM     19  C   UNL     1       6.488   3.651  12.649  0.00  0.00    +0.000 A 
ATOM     20  C   UNL     1       7.298   2.658  12.076  0.00  0.00    +0.000 A 
ATOM     21  C   UNL     1       6.771   1.765  11.143  0.00  0.00    +0.000 A 
ATOM     22  C   UNL     1       5.432   1.858  10.771  0.00  0.00    +0.000 A 
ATOM     23  C   UNL     1       4.623   2.843  11.337  0.00  0.00    +0.000 A 
ATOM     24 CL   UNL     1       2.968   2.956  10.880  0.00  0.00    +0.000 Cl
ATOM     25  C   UNL     1       5.143   3.738  12.273  0.00  0.00    +0.000 A 
ENDBRANCH  18  19
ENDBRANCH  17  18
ENDBRANCH   7  17
TORSDOF 4
ENDMDL
MODEL 2
REMARK VINA RESULT:      -8.1      0.684      1.214
REMARK  Name = 
REMARK  5 active torsions:
REMARK  status: ('A' for Active; 'I' for Inactive)
REMARK    1  A    between atoms: C_1  and  C_2
REMARK    2  A    between atoms: C_5  and  N_6
REMARK    3  A    between atoms: N_12  and  C_13
REMARK    4  A    between atoms: C_13  and  C_14
REMARK    5  A    between atoms: C_14  and  C_15
REMARK                            x       y       z     vdW  Elec       q    Type
REMARK                         _______ _______ _______ _____ _____    ______ ____
ROOT
ATOM      1  N   UNL     1       5.557   4.670  18.568  0.00  0.00    +0.000 N 
ATOM      2  C   UNL     1       6.748   5.287  18.910  0.00  0.00    +0.000 C 
ATOM      3  O   UNL     1       7.089   5.546  20.064  0.00  0.00    +0.000 OA
ATOM      4  C   UNL     1       7.685   5.616  17.818  0.00  0.00    +0.000 C 
ATOM      5  C   UNL     1       7.142   5.567  16.446  0.00  0.00    +0.000 C 
ATOM      6  O   UNL     1       7.743   6.186  15.565  0.00  0.00    +0.000 OA
ATOM      7  N   UNL     1       6.015   4.803  16.236  0.00  0.00    +0.000 N 
ATOM      8  C   UNL     1       5.141   4.441  17.267  0.00  0.00    +0.000 C 
ATOM      9  O   UNL     1       4.030   3.969  17.011  0.00  0.00    +0.000 OA
ENDROOT
BRANCH   1  14
ATOM     10  C   UNL     1       1.062   2.679  21.666  0.00  0.00    +0.000 C 
ATOM     11  C   UNL     1       2.076   3.117  20.610  0.00  0.00    +0.000 C 
ATOM     12  C   UNL     1       2.352   4.619  20.724  0.00  0.00    +0.000 C 
ATOM     13  C   UNL     1       3.348   5.082  19.666  0.00  0.00    +0.000 C 
ATOM     14  C   UNL     1       4.652   4.256  19.668  0.00  0.00    +0.000 C 
ATOM     15  C   UNL     1       4.398   2.734  19.682  0.00  0.00    +0.000 C 
ATOM     16  C   UNL     1       3.380   2.321  20.744  0.00  0.00    +0.000 C 
ENDBRANCH   1  14
BRANCH   7  17
ATOM     17  C   UNL     1       5.497   4.646  14.858  0.00  0.00    +0.000 C 
BRANCH  17  18
ATOM     18  C   UNL     1       6.531   4.359  13.754  0.00  0.00    +0.000 C 
BRANCH  18  19
ATOM     19  C   UNL     1       5.980   3.480  12.659  0.00  0.00    +0.000 A 
ATOM     20  C   UNL     1       6.708   2.360  12.226  0.00  0.00    +0.000 A 
ATOM     21  C   UNL     1       6.207   1.535  11.218  0.00  0.00    +0.000 A 
ATOM     22  C   UNL     1       4.977   1.824  10.631  0.00  0.00    +0.000 A 
ATOM     23  C   UNL     1       4.251   2.935  11.057  0.00  0.00    +0.000 A 
ATOM     24 CL   UNL     1       2.730   3.290  10.334  0.00  0.00    +0.000 Cl
ATOM     25  C   UNL     1       4.744   3.763  12.066  0.00  0.00    +0.000 A 
ENDBRANCH  18  19
ENDBRANCH  17  18
ENDBRANCH   7  17
TORSDOF 4
ENDMDL
MODEL 3
REMARK VINA RESULT:      -8.1      1.166      1.797
REMARK  Name = 
REMARK  5 active torsions:
REMARK  status: ('A' for Active; 'I' for Inactive)
REMARK    1  A    between atoms: C_1  and  C_2
REMARK    2  A    between atoms: C_5  and  N_6
REMARK    3  A    between atoms: N_12  and  C_13
REMARK    4  A    between atoms: C_13  and  C_14
REMARK    5  A    between atoms: C_14  and  C_15
REMARK                            x       y       z     vdW  Elec       q    Type
REMARK                         _______ _______ _______ _____ _____    ______ ____
ROOT
ATOM      1  N   UNL     1       5.606   4.742  18.661  0.00  0.00    +0.000 N 
ATOM      2  C   UNL     1       6.816   5.305  19.026  0.00  0.00    +0.000 C 
ATOM      3  O   UNL     1       7.175   5.485  20.190  0.00  0.00    +0.000 OA
ATOM      4  C   UNL     1       7.753   5.673  17.946  0.00  0.00    +0.000 C 
ATOM      5  C   UNL     1       7.197   5.720  16.579  0.00  0.00    +0.000 C 
ATOM      6  O   UNL     1       7.806   6.374  15.730  0.00  0.00    +0.000 OA
ATOM      7  N   UNL     1       6.046   5.000  16.336  0.00  0.00    +0.000 N 
ATOM      8  C   UNL     1       5.172   4.602  17.353  0.00  0.00    +0.000 C 
ATOM      9  O   UNL     1       4.046   4.177  17.082  0.00  0.00    +0.000 OA
ENDROOT
BRANCH   1  14
ATOM     10  C   UNL     1       1.104   2.648  21.680  0.00  0.00    +0.000 C 
ATOM     11  C   UNL     1       2.119   3.123  20.642  0.00  0.00    +0.000 C 
ATOM     12  C   UNL     1       2.403   4.618  20.816  0.00  0.00    +0.000 C 
ATOM     13  C   UNL     1       3.400   5.119  19.777  0.00  0.00    +0.000 C 
ATOM     14  C   UNL     1       4.699   4.288  19.744  0.00  0.00    +0.000 C 
ATOM     15  C   UNL     1       4.439   2.767  19.697  0.00  0.00    +0.000 C 
ATOM     16  C   UNL     1       3.419   2.316  20.742  0.00  0.00    +0.000 C 
ENDBRANCH   1  14
BRANCH   7  17
ATOM     17  C   UNL     1       5.512   4.940  14.957  0.00  0.00    +0.000 C 
BRANCH  17  18
ATOM     18  C   UNL     1       6.483   4.482  13.853  0.00  0.00    +0.000 C 
BRANCH  18  19
ATOM     19  C   UNL     1       5.804   3.646  12.796  0.00  0.00    +0.000 A 
ATOM     20  C   UNL     1       4.653   4.128  12.153  0.00  0.00    +0.000 A 
ATOM     21  C   UNL     1       4.019   3.368  11.170  0.00  0.00    +0.000 A 
ATOM     22  C   UNL     1       4.528   2.118  10.823  0.00  0.00    +0.000 A 
ATOM     23  C   UNL     1       5.670   1.635  11.458  0.00  0.00    +0.000 A 
ATOM     24 CL   UNL     1       6.300   0.093  11.027  0.00  0.00    +0.000 Cl
ATOM     25  C   UNL     1       6.311   2.391  12.441  0.00  0.00    +0.000 A 
ENDBRANCH  18  19
ENDBRANCH  17  18
ENDBRANCH   7  17
TORSDOF 4
ENDMDL
MODEL 4
REMARK VINA RESULT:      -7.8      6.234      8.893
REMARK  Name = 
REMARK  5 active torsions:
REMARK  status: ('A' for Active; 'I' for Inactive)
REMARK    1  A    between atoms: C_1  and  C_2
REMARK    2  A    between atoms: C_5  and  N_6
REMARK    3  A    between atoms: N_12  and  C_13
REMARK    4  A    between atoms: C_13  and  C_14
REMARK    5  A    between atoms: C_14  and  C_15
REMARK                            x       y       z     vdW  Elec       q    Type
REMARK                         _______ _______ _______ _____ _____    ______ ____
ROOT
ATOM      1  N   UNL     1       2.344   7.439  18.744  0.00  0.00    +0.000 N 
ATOM      2  C   UNL     1       2.262   6.900  20.016  0.00  0.00    +0.000 C 
ATOM      3  O   UNL     1       2.702   5.793  20.329  0.00  0.00    +0.000 OA
ATOM      4  C   UNL     1       1.644   7.726  21.071  0.00  0.00    +0.000 C 
ATOM      5  C   UNL     1       0.875   8.904  20.620  0.00  0.00    +0.000 C 
ATOM      6  O   UNL     1       0.047   9.384  21.397  0.00  0.00    +0.000 OA
ATOM      7  N   UNL     1       1.160   9.408  19.370  0.00  0.00    +0.000 N 
ATOM      8  C   UNL     1       1.789   8.653  18.373  0.00  0.00    +0.000 C 
ATOM      9  O   UNL     1       1.810   9.050  17.205  0.00  0.00    +0.000 OA
ENDROOT
BRANCH   1  14
ATOM     10  C   UNL     1       5.884   3.807  15.909  0.00  0.00    +0.000 C 
ATOM     11  C   UNL     1       5.089   4.649  16.905  0.00  0.00    +0.000 C 
ATOM     12  C   UNL     1       5.315   6.141  16.645  0.00  0.00    +0.000 C 
ATOM     13  C   UNL     1       4.546   7.002  17.640  0.00  0.00    +0.000 C 
ATOM     14  C   UNL     1       3.044   6.651  17.701  0.00  0.00    +0.000 C 
ATOM     15  C   UNL     1       2.787   5.135  17.835  0.00  0.00    +0.000 C 
ATOM     16  C   UNL     1       3.594   4.313  16.831  0.00  0.00    +0.000 C 
ENDBRANCH   1  14
BRANCH   7  17
ATOM     17  C   UNL     1       0.484  10.646  18.920  0.00  0.00    +0.000 C 
BRANCH  17  18
ATOM     18  C   UNL     1      -0.975  10.844  19.368  0.00  0.00    +0.000 C 
BRANCH  18  19
ATOM     19  C   UNL     1      -1.949  10.771  18.218  0.00  0.00    +0.000 A 
ATOM     20  C   UNL     1      -1.654   9.975  17.100  0.00  0.00    +0.000 A 
ATOM     21  C   UNL     1      -2.547   9.894  16.031  0.00  0.00    +0.000 A 
ATOM     22  C   UNL     1      -3.742  10.611  16.069  0.00  0.00    +0.000 A 
ATOM     23  C   UNL     1      -4.039  11.403  17.177  0.00  0.00    +0.000 A 
ATOM     24 CL   UNL     1      -5.515  12.285  17.225  0.00  0.00    +0.000 Cl
ATOM     25  C   UNL     1      -3.151  11.486  18.250  0.00  0.00    +0.000 A 
ENDBRANCH  18  19
ENDBRANCH  17  18
ENDBRANCH   7  17
TORSDOF 4
ENDMDL
MODEL 5
REMARK VINA RESULT:      -7.7      4.544      8.624
REMARK  Name = 
REMARK  5 active torsions:
REMARK  status: ('A' for Active; 'I' for Inactive)
REMARK    1  A    between atoms: C_1  and  C_2
REMARK    2  A    between atoms: C_5  and  N_6
REMARK    3  A    between atoms: N_12  and  C_13
REMARK    4  A    between atoms: C_13  and  C_14
REMARK    5  A    between atoms: C_14  and  C_15
REMARK                            x       y       z     vdW  Elec       q    Type
REMARK                         _______ _______ _______ _____ _____    ______ ____
ROOT
ATOM      1  N   UNL     1       4.270   3.896  18.921  0.00  0.00    +0.000 N 
ATOM      2  C   UNL     1       4.199   2.778  19.733  0.00  0.00    +0.000 C 
ATOM      3  O   UNL     1       4.880   1.764  19.578  0.00  0.00    +0.000 OA
ATOM      4  C   UNL     1       3.276   2.826  20.884  0.00  0.00    +0.000 C 
ATOM      5  C   UNL     1       2.275   3.912  20.882  0.00  0.00    +0.000 C 
ATOM      6  O   UNL     1       1.272   3.773  21.585  0.00  0.00    +0.000 OA
ATOM      7  N   UNL     1       2.548   5.025  20.116  0.00  0.00    +0.000 N 
ATOM      8  C   UNL     1       3.456   5.010  19.052  0.00  0.00    +0.000 C 
ATOM      9  O   UNL     1       3.496   5.944  18.248  0.00  0.00    +0.000 OA
ENDROOT
BRANCH   1  14
ATOM     10  C   UNL     1       7.410   5.208  14.211  0.00  0.00    +0.000 C 
ATOM     11  C   UNL     1       6.447   5.131  15.394  0.00  0.00    +0.000 C 
ATOM     12  C   UNL     1       5.552   3.894  15.277  0.00  0.00    +0.000 C 
ATOM     13  C   UNL     1       4.568   3.808  16.439  0.00  0.00    +0.000 C 
ATOM     14  C   UNL     1       5.260   3.888  17.817  0.00  0.00    +0.000 C 
ATOM     15  C   UNL     1       6.265   5.055  17.917  0.00  0.00    +0.000 C 
ATOM     16  C   UNL     1       7.215   5.113  16.721  0.00  0.00    +0.000 C 
ENDBRANCH   1  14
BRANCH   7  17
ATOM     17  C   UNL     1       1.620   6.178  20.165  0.00  0.00    +0.000 C 
BRANCH  17  18
ATOM     18  C   UNL     1       1.925   7.273  21.203  0.00  0.00    +0.000 C 
BRANCH  18  19
ATOM     19  C   UNL     1       1.096   8.516  20.992  0.00  0.00    +0.000 A 
ATOM     20  C   UNL     1       1.046   9.119  19.725  0.00  0.00    +0.000 A 
ATOM     21  C   UNL     1       0.280  10.266  19.515  0.00  0.00    +0.000 A 
ATOM     22  C   UNL     1      -0.441  10.823  20.569  0.00  0.00    +0.000 A 
ATOM     23  C   UNL     1      -0.395  10.228  21.829  0.00  0.00    +0.000 A 
ATOM     24 CL   UNL     1      -1.287  10.913  23.131  0.00  0.00    +0.000 Cl
ATOM     25  C   UNL     1       0.368   9.079  22.046  0.00  0.00    +0.000 A 
ENDBRANCH  18  19
ENDBRANCH  17  18
ENDBRANCH   7  17
TORSDOF 4
ENDMDL
MODEL 6
REMARK VINA RESULT:      -7.6      4.104      6.696
REMARK  Name = 
REMARK  5 active torsions:
REMARK  status: ('A' for Active; 'I' for Inactive)
REMARK    1  A    between atoms: C_1  and  C_2
REMARK    2  A    between atoms: C_5  and  N_6
REMARK    3  A    between atoms: N_12  and  C_13
REMARK    4  A    between atoms: C_13  and  C_14
REMARK    5  A    between atoms: C_14  and  C_15
REMARK                            x       y       z     vdW  Elec       q    Type
REMARK                         _______ _______ _______ _____ _____    ______ ____
ROOT
ATOM      1  N   UNL     1       5.279   4.786  18.386  0.00  0.00    +0.000 N 
ATOM      2  C   UNL     1       5.045   4.177  17.165  0.00  0.00    +0.000 C 
ATOM      3  O   UNL     1       4.276   3.230  16.999  0.00  0.00    +0.000 OA
ATOM      4  C   UNL     1       5.733   4.729  15.982  0.00  0.00    +0.000 C 
ATOM      5  C   UNL     1       6.853   5.656  16.243  0.00  0.00    +0.000 C 
ATOM      6  O   UNL     1       7.679   5.832  15.344  0.00  0.00    +0.000 OA
ATOM      7  N   UNL     1       6.881   6.289  17.468  0.00  0.00    +0.000 N 
ATOM      8  C   UNL     1       6.196   5.805  18.587  0.00  0.00    +0.000 C 
ATOM      9  O   UNL     1       6.434   6.254  19.711  0.00  0.00    +0.000 OA
ENDROOT
BRANCH   1  14
ATOM     10  C   UNL     1       1.292   2.404  21.877  0.00  0.00    +0.000 C 
ATOM     11  C   UNL     1       2.158   2.931  20.734  0.00  0.00    +0.000 C 
ATOM     12  C   UNL     1       2.313   4.451  20.836  0.00  0.00    +0.000 C 
ATOM     13  C   UNL     1       3.158   5.001  19.693  0.00  0.00    +0.000 C 
ATOM     14  C   UNL     1       4.523   4.292  19.562  0.00  0.00    +0.000 C 
ATOM     15  C   UNL     1       4.404   2.753  19.584  0.00  0.00    +0.000 C 
ATOM     16  C   UNL     1       3.532   2.251  20.734  0.00  0.00    +0.000 C 
ENDBRANCH   1  14
BRANCH   7  17
ATOM     17  C   UNL     1       7.929   7.301  17.732  0.00  0.00    +0.000 C 
BRANCH  17  18
ATOM     18  C   UNL     1       7.594   8.760  17.374  0.00  0.00    +0.000 C 
BRANCH  18  19
ATOM     19  C   UNL     1       8.449   9.751  18.126  0.00  0.00    +0.000 A 
ATOM     20  C   UNL     1       8.979   9.409  19.381  0.00  0.00    +0.000 A 
ATOM     21  C   UNL     1       9.775  10.314  20.084  0.00  0.00    +0.000 A 
ATOM     22  C   UNL     1      10.046  11.568  19.541  0.00  0.00    +0.000 A 
ATOM     23  C   UNL     1       9.522  11.912  18.296  0.00  0.00    +0.000 A 
ATOM     24 CL   UNL     1       9.860  13.460  17.625  0.00  0.00    +0.000 Cl
ATOM     25  C   UNL     1       8.727  11.011  17.586  0.00  0.00    +0.000 A 
ENDBRANCH  18  19
ENDBRANCH  17  18
ENDBRANCH   7  17
TORSDOF 4
ENDMDL
MODEL 7
REMARK VINA RESULT:      -7.6      5.274      6.912
REMARK  Name = 
REMARK  5 active torsions:
REMARK  status: ('A' for Active; 'I' for Inactive)
REMARK    1  A    between atoms: C_1  and  C_2
REMARK    2  A    between atoms: C_5  and  N_6
REMARK    3  A    between atoms: N_12  and  C_13
REMARK    4  A    between atoms: C_13  and  C_14
REMARK    5  A    between atoms: C_14  and  C_15
REMARK                            x       y       z     vdW  Elec       q    Type
REMARK                         _______ _______ _______ _____ _____    ______ ____
ROOT
ATOM      1  N   UNL     1       1.210   9.164  19.610  0.00  0.00    +0.000 N 
ATOM      2  C   UNL     1       1.122   8.444  20.789  0.00  0.00    +0.000 C 
ATOM      3  O   UNL     1       0.592   8.861  21.818  0.00  0.00    +0.000 OA
ATOM      4  C   UNL     1       1.663   7.070  20.793  0.00  0.00    +0.000 C 
ATOM      5  C   UNL     1       2.539   6.703  19.663  0.00  0.00    +0.000 C 
ATOM      6  O   UNL     1       3.301   5.745  19.810  0.00  0.00    +0.000 OA
ATOM      7  N   UNL     1       2.421   7.438  18.503  0.00  0.00    +0.000 N 
ATOM      8  C   UNL     1       1.867   8.723  18.473  0.00  0.00    +0.000 C 
ATOM      9  O   UNL     1       1.996   9.439  17.476  0.00  0.00    +0.000 OA
ENDROOT
BRANCH   1  14
ATOM     10  C   UNL     1      -1.979  13.887  20.740  0.00  0.00    +0.000 C 
ATOM     11  C   UNL     1      -1.267  12.537  20.700  0.00  0.00    +0.000 C 
ATOM     12  C   UNL     1      -1.623  11.782  19.415  0.00  0.00    +0.000 C 
ATOM     13  C   UNL     1      -0.938  10.421  19.362  0.00  0.00    +0.000 C 
ATOM     14  C   UNL     1       0.589  10.510  19.573  0.00  0.00    +0.000 C 
ATOM     15  C   UNL     1       0.977  11.373  20.792  0.00  0.00    +0.000 C 
ATOM     16  C   UNL     1       0.251  12.717  20.812  0.00  0.00    +0.000 C 
ENDBRANCH   1  14
BRANCH   7  17
ATOM     17  C   UNL     1       3.208   7.040  17.314  0.00  0.00    +0.000 C 
BRANCH  17  18
ATOM     18  C   UNL     1       4.706   7.393  17.320  0.00  0.00    +0.000 C 
BRANCH  18  19
ATOM     19  C   UNL     1       5.571   6.254  16.841  0.00  0.00    +0.000 A 
ATOM     20  C   UNL     1       6.592   5.754  17.665  0.00  0.00    +0.000 A 
ATOM     21  C   UNL     1       7.396   4.697  17.237  0.00  0.00    +0.000 A 
ATOM     22  C   UNL     1       7.189   4.132  15.980  0.00  0.00    +0.000 A 
ATOM     23  C   UNL     1       6.177   4.626  15.158  0.00  0.00    +0.000 A 
ATOM     24 CL   UNL     1       5.920   3.926  13.607  0.00  0.00    +0.000 Cl
ATOM     25  C   UNL     1       5.368   5.681  15.581  0.00  0.00    +0.000 A 
ENDBRANCH  18  19
ENDBRANCH  17  18
ENDBRANCH   7  17
TORSDOF 4
ENDMDL
MODEL 8
REMARK VINA RESULT:      -7.6      4.441      8.505
REMARK  Name = 
REMARK  5 active torsions:
REMARK  status: ('A' for Active; 'I' for Inactive)
REMARK    1  A    between atoms: C_1  and  C_2
REMARK    2  A    between atoms: C_5  and  N_6
REMARK    3  A    between atoms: N_12  and  C_13
REMARK    4  A    between atoms: C_13  and  C_14
REMARK    5  A    between atoms: C_14  and  C_15
REMARK                            x       y       z     vdW  Elec       q    Type
REMARK                         _______ _______ _______ _____ _____    ______ ____
ROOT
ATOM      1  N   UNL     1       4.002   3.970  18.042  0.00  0.00    +0.000 N 
ATOM      2  C   UNL     1       3.321   2.826  18.422  0.00  0.00    +0.000 C 
ATOM      3  O   UNL     1       3.469   1.724  17.894  0.00  0.00    +0.000 OA
ATOM      4  C   UNL     1       2.389   2.931  19.562  0.00  0.00    +0.000 C 
ATOM      5  C   UNL     1       2.013   4.296  19.982  0.00  0.00    +0.000 C 
ATOM      6  O   UNL     1       0.981   4.433  20.642  0.00  0.00    +0.000 OA
ATOM      7  N   UNL     1       2.863   5.324  19.635  0.00  0.00    +0.000 N 
ATOM      8  C   UNL     1       3.785   5.225  18.588  0.00  0.00    +0.000 C 
ATOM      9  O   UNL     1       4.352   6.230  18.154  0.00  0.00    +0.000 OA
ENDROOT
BRANCH   1  14
ATOM     10  C   UNL     1       7.729   5.067  13.722  0.00  0.00    +0.000 C 
ATOM     11  C   UNL     1       6.717   5.083  14.866  0.00  0.00    +0.000 C 
ATOM     12  C   UNL     1       5.462   4.295  14.481  0.00  0.00    +0.000 C 
ATOM     13  C   UNL     1       4.428   4.313  15.602  0.00  0.00    +0.000 C 
ATOM     14  C   UNL     1       5.005   3.850  16.956  0.00  0.00    +0.000 C 
ATOM     15  C   UNL     1       6.340   4.540  17.308  0.00  0.00    +0.000 C 
ATOM     16  C   UNL     1       7.335   4.513  16.148  0.00  0.00    +0.000 C 
ENDBRANCH   1  14
BRANCH   7  17
ATOM     17  C   UNL     1       2.575   6.692  20.122  0.00  0.00    +0.000 C 
BRANCH  17  18
ATOM     18  C   UNL     1       2.028   7.697  19.092  0.00  0.00    +0.000 C 
BRANCH  18  19
ATOM     19  C   UNL     1       1.223   8.801  19.732  0.00  0.00    +0.000 A 
ATOM     20  C   UNL     1       0.815   9.905  18.966  0.00  0.00    +0.000 A 
ATOM     21  C   UNL     1       0.065  10.930  19.544  0.00  0.00    +0.000 A 
ATOM     22  C   UNL     1      -0.280  10.864  20.892  0.00  0.00    +0.000 A 
ATOM     23  C   UNL     1       0.124   9.770  21.657  0.00  0.00    +0.000 A 
ATOM     24 CL   UNL     1      -0.305   9.686  23.321  0.00  0.00    +0.000 Cl
ATOM     25  C   UNL     1       0.871   8.740  21.085  0.00  0.00    +0.000 A 
ENDBRANCH  18  19
ENDBRANCH  17  18
ENDBRANCH   7  17
TORSDOF 4
ENDMDL
MODEL 9
REMARK VINA RESULT:      -7.5      4.313      8.659
REMARK  Name = 
REMARK  5 active torsions:
REMARK  status: ('A' for Active; 'I' for Inactive)
REMARK    1  A    between atoms: C_1  and  C_2
REMARK    2  A    between atoms: C_5  and  N_6
REMARK    3  A    between atoms: N_12  and  C_13
REMARK    4  A    between atoms: C_13  and  C_14
REMARK    5  A    between atoms: C_14  and  C_15
REMARK                            x       y       z     vdW  Elec       q    Type
REMARK                         _______ _______ _______ _____ _____    ______ ____
ROOT
ATOM      1  N   UNL     1       4.049   4.304  18.305  0.00  0.00    +0.000 N 
ATOM      2  C   UNL     1       3.603   3.190  18.994  0.00  0.00    +0.000 C 
ATOM      3  O   UNL     1       3.969   2.038  18.760  0.00  0.00    +0.000 OA
ATOM      4  C   UNL     1       2.660   3.407  20.109  0.00  0.00    +0.000 C 
ATOM      5  C   UNL     1       2.021   4.736  20.182  0.00  0.00    +0.000 C 
ATOM      6  O   UNL     1       0.976   4.838  20.830  0.00  0.00    +0.000 OA
ATOM      7  N   UNL     1       2.654   5.782  19.547  0.00  0.00    +0.000 N 
ATOM      8  C   UNL     1       3.586   5.593  18.521  0.00  0.00    +0.000 C 
ATOM      9  O   UNL     1       3.948   6.541  17.820  0.00  0.00    +0.000 OA
ENDROOT
BRANCH   1  14
ATOM     10  C   UNL     1       7.661   5.011  13.810  0.00  0.00    +0.000 C 
ATOM     11  C   UNL     1       6.648   5.121  14.947  0.00  0.00    +0.000 C 
ATOM     12  C   UNL     1       5.483   4.152  14.722  0.00  0.00    +0.000 C 
ATOM     13  C   UNL     1       4.448   4.259  15.837  0.00  0.00    +0.000 C 
ATOM     14  C   UNL     1       5.064   4.102  17.243  0.00  0.00    +0.000 C 
ATOM     15  C   UNL     1       6.318   4.977  17.451  0.00  0.00    +0.000 C 
ATOM     16  C   UNL     1       7.316   4.851  16.300  0.00  0.00    +0.000 C 
ENDBRANCH   1  14
BRANCH   7  17
ATOM     17  C   UNL     1       2.100   7.148  19.680  0.00  0.00    +0.000 C 
BRANCH  17  18
ATOM     18  C   UNL     1       1.821   7.650  21.109  0.00  0.00    +0.000 C 
BRANCH  18  19
ATOM     19  C   UNL     1       0.933   8.869  21.130  0.00  0.00    +0.000 A 
ATOM     20  C   UNL     1       0.446   9.360  22.352  0.00  0.00    +0.000 A 
ATOM     21  C   UNL     1      -0.371  10.490  22.387  0.00  0.00    +0.000 A 
ATOM     22  C   UNL     1      -0.712  11.138  21.201  0.00  0.00    +0.000 A 
ATOM     23  C   UNL     1      -0.231  10.654  19.986  0.00  0.00    +0.000 A 
ATOM     24 CL   UNL     1      -0.649  11.456  18.522  0.00  0.00    +0.000 Cl
ATOM     25  C   UNL     1       0.589   9.526  19.944  0.00  0.00    +0.000 A 
ENDBRANCH  18  19
ENDBRANCH  17  18
ENDBRANCH   7  17
TORSDOF 4
ENDMDL
