MODEL 1
REMARK VINA RESULT:      -7.5      0.000      0.000
REMARK  Name = 
REMARK  12 active torsions:
REMARK  status: ('A' for Active; 'I' for Inactive)
REMARK    1  A    between atoms: C_1  and  O_2
REMARK    2  A    between atoms: O_2  and  C_3
REMARK    3  A    between atoms: C_8  and  O_9
REMARK    4  A    between atoms: O_9  and  C_10
REMARK    5  A    between atoms: C_11  and  C_12
REMARK    6  A    between atoms: C_12  and  C_13
REMARK    7  A    between atoms: C_13  and  N_14
REMARK    8  A    between atoms: N_17  and  C_18
REMARK    9  A    between atoms: C_23  and  O_24
REMARK   10  A    between atoms: O_24  and  C_25
REMARK   11  A    between atoms: C_29  and  C_30
REMARK   12  A    between atoms: C_29  and  C_31
REMARK                            x       y       z     vdW  Elec       q    Type
REMARK                         _______ _______ _______ _____ _____    ______ ____
ROOT
ATOM      1  C   UNL     1       6.033   4.914  16.460  0.00  0.00    +0.000 A 
ATOM      2  C   UNL     1       5.115   3.900  16.780  0.00  0.00    +0.000 A 
ATOM      3  C   UNL     1       3.873   4.191  17.366  0.00  0.00    +0.000 A 
ATOM      4  C   UNL     1       3.521   5.512  17.629  0.00  0.00    +0.000 A 
ATOM      5  C   UNL     1       4.402   6.521  17.210  0.00  0.00    +0.000 A 
ATOM      6  C   UNL     1       5.669   6.246  16.680  0.00  0.00    +0.000 A 
ATOM      7  C   UNL     1       2.240   5.859  18.364  0.00  0.00    +0.000 C 
ATOM      8  O   UNL     1       1.334   4.743  18.507  0.00  0.00    +0.000 OA
ATOM      9  C   UNL     1       1.904   3.451  18.755  0.00  0.00    +0.000 C 
ATOM     10  C   UNL     1       2.569   3.327  20.134  0.00  0.00    +0.000 C 
ATOM     11  C   UNL     1       0.713   2.479  18.733  0.00  0.00    +0.000 C 
ATOM     12  C   UNL     1       2.878   3.089  17.625  0.00  0.00    +0.000 C 
ENDROOT
BRANCH   1  14
ATOM     13  C   UNL     1       7.448   4.735  14.562  0.00  0.00    +0.000 C 
ATOM     14  O   UNL     1       7.282   4.639  15.970  0.00  0.00    +0.000 OA
ENDBRANCH   1  14
BRANCH   6  15
ATOM     15  O   UNL     1       6.391   7.391  16.459  0.00  0.00    +0.000 OA
ATOM     16  C   UNL     1       7.353   7.795  17.418  0.00  0.00    +0.000 C 
ENDBRANCH   6  15
BRANCH   7  17
ATOM     17  C   UNL     1       2.439   6.476  19.762  0.00  0.00    +0.000 C 
BRANCH  17  18
ATOM     18  C   UNL     1       2.236   7.982  19.882  0.00  0.00    +0.000 C 
BRANCH  18  19
ATOM     19  N   UNL     1       0.945   8.449  19.360  0.00  0.00    +0.000 NA
ATOM     20  C   UNL     1       0.241   9.334  20.319  0.00  0.00    +0.000 C 
ATOM     21  C   UNL     1       0.942  10.688  20.604  0.00  0.00    +0.000 C 
ATOM     22  N   UNL     1       1.247  11.369  19.336  0.00  0.00    +0.000 N 
ATOM     23  C   UNL     1       1.930  10.540  18.323  0.00  0.00    +0.000 C 
ATOM     24  C   UNL     1       1.152   9.222  18.111  0.00  0.00    +0.000 C 
BRANCH  22  25
ATOM     25  C   UNL     1       1.156  12.746  19.184  0.00  0.00    +0.000 A 
ATOM     26  C   UNL     1       2.354  13.493  19.241  0.00  0.00    +0.000 A 
ATOM     27  C   UNL     1       2.391  14.882  19.096  0.00  0.00    +0.000 A 
ATOM     28  C   UNL     1       1.219  15.576  18.863  0.00  0.00    +0.000 A 
ATOM     29  C   UNL     1       0.017  14.876  18.767  0.00  0.00    +0.000 A 
ATOM     30  C   UNL     1      -0.033  13.475  18.911  0.00  0.00    +0.000 A 
BRANCH  30  31
ATOM     31  O   UNL     1      -1.230  12.799  18.846  0.00  0.00    +0.000 OA
ATOM     32  C   UNL     1      -2.092  12.943  19.974  0.00  0.00    +0.000 C 
ENDBRANCH  30  31
ENDBRANCH  22  25
ENDBRANCH  18  19
ENDBRANCH  17  18
ENDBRANCH   7  17
TORSDOF 7
ENDMDL
MODEL 2
REMARK VINA RESULT:      -7.4      2.036      2.482
REMARK  Name = 
REMARK  12 active torsions:
REMARK  status: ('A' for Active; 'I' for Inactive)
REMARK    1  A    between atoms: C_1  and  O_2
REMARK    2  A    between atoms: O_2  and  C_3
REMARK    3  A    between atoms: C_8  and  O_9
REMARK    4  A    between atoms: O_9  and  C_10
REMARK    5  A    between atoms: C_11  and  C_12
REMARK    6  A    between atoms: C_12  and  C_13
REMARK    7  A    between atoms: C_13  and  N_14
REMARK    8  A    between atoms: N_17  and  C_18
REMARK    9  A    between atoms: C_23  and  O_24
REMARK   10  A    between atoms: O_24  and  C_25
REMARK   11  A    between atoms: C_29  and  C_30
REMARK   12  A    between atoms: C_29  and  C_31
REMARK                            x       y       z     vdW  Elec       q    Type
REMARK                         _______ _______ _______ _____ _____    ______ ____
ROOT
ATOM      1  C   UNL     1       6.002   4.893  16.303  0.00  0.00    +0.000 A 
ATOM      2  C   UNL     1       5.101   3.848  16.571  0.00  0.00    +0.000 A 
ATOM      3  C   UNL     1       3.892   4.076  17.248  0.00  0.00    +0.000 A 
ATOM      4  C   UNL     1       3.557   5.364  17.656  0.00  0.00    +0.000 A 
ATOM      5  C   UNL     1       4.415   6.412  17.291  0.00  0.00    +0.000 A 
ATOM      6  C   UNL     1       5.651   6.195  16.671  0.00  0.00    +0.000 A 
ATOM      7  C   UNL     1       2.317   5.633  18.488  0.00  0.00    +0.000 C 
ATOM      8  O   UNL     1       1.418   4.505  18.570  0.00  0.00    +0.000 OA
ATOM      9  C   UNL     1       1.998   3.197  18.661  0.00  0.00    +0.000 C 
ATOM     10  C   UNL     1       2.736   2.943  19.984  0.00  0.00    +0.000 C 
ATOM     11  C   UNL     1       0.807   2.227  18.608  0.00  0.00    +0.000 C 
ATOM     12  C   UNL     1       2.911   2.950  17.451  0.00  0.00    +0.000 C 
ENDROOT
BRANCH   1  14
ATOM     13  C   UNL     1       7.270   4.723  14.303  0.00  0.00    +0.000 C 
ATOM     14  O   UNL     1       7.222   4.670  15.723  0.00  0.00    +0.000 OA
ENDBRANCH   1  14
BRANCH   6  15
ATOM     15  O   UNL     1       6.362   7.359  16.523  0.00  0.00    +0.000 OA
ATOM     16  C   UNL     1       7.397   7.655  17.445  0.00  0.00    +0.000 C 
ENDBRANCH   6  15
BRANCH   7  17
ATOM     17  C   UNL     1       2.590   6.112  19.927  0.00  0.00    +0.000 C 
BRANCH  17  18
ATOM     18  C   UNL     1       1.511   6.968  20.581  0.00  0.00    +0.000 C 
BRANCH  18  19
ATOM     19  N   UNL     1       1.943   8.340  20.877  0.00  0.00    +0.000 NA
ATOM     20  C   UNL     1       1.881   9.216  19.682  0.00  0.00    +0.000 C 
ATOM     21  C   UNL     1       0.456   9.476  19.127  0.00  0.00    +0.000 C 
ATOM     22  N   UNL     1      -0.421   9.947  20.210  0.00  0.00    +0.000 N 
ATOM     23  C   UNL     1      -0.395   9.134  21.442  0.00  0.00    +0.000 C 
ATOM     24  C   UNL     1       1.064   8.938  21.911  0.00  0.00    +0.000 C 
BRANCH  22  25
ATOM     25  C   UNL     1      -1.403  10.910  20.015  0.00  0.00    +0.000 A 
ATOM     26  C   UNL     1      -1.429  12.010  20.903  0.00  0.00    +0.000 A 
ATOM     27  C   UNL     1      -2.364  13.043  20.804  0.00  0.00    +0.000 A 
ATOM     28  C   UNL     1      -3.299  13.023  19.788  0.00  0.00    +0.000 A 
ATOM     29  C   UNL     1      -3.291  11.974  18.870  0.00  0.00    +0.000 A 
ATOM     30  C   UNL     1      -2.352  10.926  18.958  0.00  0.00    +0.000 A 
BRANCH  30  31
ATOM     31  O   UNL     1      -2.374   9.879  18.065  0.00  0.00    +0.000 OA
ATOM     32  C   UNL     1      -2.222  10.227  16.689  0.00  0.00    +0.000 C 
ENDBRANCH  30  31
ENDBRANCH  22  25
ENDBRANCH  18  19
ENDBRANCH  17  18
ENDBRANCH   7  17
TORSDOF 7
ENDMDL
MODEL 3
REMARK VINA RESULT:      -7.2      1.304      2.292
REMARK  Name = 
REMARK  12 active torsions:
REMARK  status: ('A' for Active; 'I' for Inactive)
REMARK    1  A    between atoms: C_1  and  O_2
REMARK    2  A    between atoms: O_2  and  C_3
REMARK    3  A    between atoms: C_8  and  O_9
REMARK    4  A    between atoms: O_9  and  C_10
REMARK    5  A    between atoms: C_11  and  C_12
REMARK    6  A    between atoms: C_12  and  C_13
REMARK    7  A    between atoms: C_13  and  N_14
REMARK    8  A    between atoms: N_17  and  C_18
REMARK    9  A    between atoms: C_23  and  O_24
REMARK   10  A    between atoms: O_24  and  C_25
REMARK   11  A    between atoms: C_29  and  C_30
REMARK   12  A    between atoms: C_29  and  C_31
REMARK                            x       y       z     vdW  Elec       q    Type
REMARK                         _______ _______ _______ _____ _____    ______ ____
ROOT
ATOM      1  C   UNL     1       6.029   4.993  16.560  0.00  0.00    +0.000 A 
ATOM      2  C   UNL     1       5.113   3.970  16.859  0.00  0.00    +0.000 A 
ATOM      3  C   UNL     1       3.871   4.246  17.453  0.00  0.00    +0.000 A 
ATOM      4  C   UNL     1       3.517   5.560  17.744  0.00  0.00    +0.000 A 
ATOM      5  C   UNL     1       4.396   6.580  17.346  0.00  0.00    +0.000 A 
ATOM      6  C   UNL     1       5.662   6.319  16.809  0.00  0.00    +0.000 A 
ATOM      7  C   UNL     1       2.236   5.889  18.488  0.00  0.00    +0.000 C 
ATOM      8  O   UNL     1       1.332   4.768  18.608  0.00  0.00    +0.000 OA
ATOM      9  C   UNL     1       1.905   3.472  18.827  0.00  0.00    +0.000 C 
ATOM     10  C   UNL     1       2.571   3.320  20.202  0.00  0.00    +0.000 C 
ATOM     11  C   UNL     1       0.715   2.499  18.785  0.00  0.00    +0.000 C 
ATOM     12  C   UNL     1       2.878   3.136  17.689  0.00  0.00    +0.000 C 
ENDROOT
BRANCH   1  14
ATOM     13  C   UNL     1       7.408   4.715  14.647  0.00  0.00    +0.000 C 
ATOM     14  O   UNL     1       7.278   4.730  16.063  0.00  0.00    +0.000 OA
ENDBRANCH   1  14
BRANCH   6  15
ATOM     15  O   UNL     1       6.382   7.470  16.612  0.00  0.00    +0.000 OA
ATOM     16  C   UNL     1       7.473   7.755  17.470  0.00  0.00    +0.000 C 
ENDBRANCH   6  15
BRANCH   7  17
ATOM     17  C   UNL     1       2.435   6.476  19.899  0.00  0.00    +0.000 C 
BRANCH  17  18
ATOM     18  C   UNL     1       1.836   7.853  20.159  0.00  0.00    +0.000 C 
BRANCH  18  19
ATOM     19  N   UNL     1       1.135   7.959  21.446  0.00  0.00    +0.000 NA
ATOM     20  C   UNL     1       1.602   9.119  22.243  0.00  0.00    +0.000 C 
ATOM     21  C   UNL     1       1.291  10.510  21.630  0.00  0.00    +0.000 C 
ATOM     22  N   UNL     1      -0.140  10.599  21.300  0.00  0.00    +0.000 N 
ATOM     23  C   UNL     1      -0.681   9.466  20.524  0.00  0.00    +0.000 C 
ATOM     24  C   UNL     1      -0.320   8.134  21.219  0.00  0.00    +0.000 C 
BRANCH  22  25
ATOM     25  C   UNL     1      -0.874  11.768  21.457  0.00  0.00    +0.000 A 
ATOM     26  C   UNL     1      -1.437  12.024  22.728  0.00  0.00    +0.000 A 
ATOM     27  C   UNL     1      -2.190  13.167  23.008  0.00  0.00    +0.000 A 
ATOM     28  C   UNL     1      -2.386  14.115  22.023  0.00  0.00    +0.000 A 
ATOM     29  C   UNL     1      -1.822  13.919  20.763  0.00  0.00    +0.000 A 
ATOM     30  C   UNL     1      -1.061  12.770  20.467  0.00  0.00    +0.000 A 
BRANCH  30  31
ATOM     31  O   UNL     1      -0.536  12.573  19.210  0.00  0.00    +0.000 OA
ATOM     32  C   UNL     1       0.297  13.618  18.709  0.00  0.00    +0.000 C 
ENDBRANCH  30  31
ENDBRANCH  22  25
ENDBRANCH  18  19
ENDBRANCH  17  18
ENDBRANCH   7  17
TORSDOF 7
ENDMDL
MODEL 4
REMARK VINA RESULT:      -7.1      1.829      2.626
REMARK  Name = 
REMARK  12 active torsions:
REMARK  status: ('A' for Active; 'I' for Inactive)
REMARK    1  A    between atoms: C_1  and  O_2
REMARK    2  A    between atoms: O_2  and  C_3
REMARK    3  A    between atoms: C_8  and  O_9
REMARK    4  A    between atoms: O_9  and  C_10
REMARK    5  A    between atoms: C_11  and  C_12
REMARK    6  A    between atoms: C_12  and  C_13
REMARK    7  A    between atoms: C_13  and  N_14
REMARK    8  A    between atoms: N_17  and  C_18
REMARK    9  A    between atoms: C_23  and  O_24
REMARK   10  A    between atoms: O_24  and  C_25
REMARK   11  A    between atoms: C_29  and  C_30
REMARK   12  A    between atoms: C_29  and  C_31
REMARK                            x       y       z     vdW  Elec       q    Type
REMARK                         _______ _______ _______ _____ _____    ______ ____
ROOT
ATOM      1  C   UNL     1       6.106   4.917  16.285  0.00  0.00    +0.000 A 
ATOM      2  C   UNL     1       5.212   3.873  16.572  0.00  0.00    +0.000 A 
ATOM      3  C   UNL     1       4.013   4.102  17.267  0.00  0.00    +0.000 A 
ATOM      4  C   UNL     1       3.682   5.391  17.675  0.00  0.00    +0.000 A 
ATOM      5  C   UNL     1       4.533   6.439  17.291  0.00  0.00    +0.000 A 
ATOM      6  C   UNL     1       5.759   6.221  16.652  0.00  0.00    +0.000 A 
ATOM      7  C   UNL     1       2.455   5.662  18.525  0.00  0.00    +0.000 C 
ATOM      8  O   UNL     1       1.559   4.533  18.627  0.00  0.00    +0.000 OA
ATOM      9  C   UNL     1       2.144   3.226  18.714  0.00  0.00    +0.000 C 
ATOM     10  C   UNL     1       2.902   2.979  20.027  0.00  0.00    +0.000 C 
ATOM     11  C   UNL     1       0.953   2.254  18.684  0.00  0.00    +0.000 C 
ATOM     12  C   UNL     1       3.037   2.975  17.491  0.00  0.00    +0.000 C 
ENDROOT
BRANCH   1  14
ATOM     13  C   UNL     1       7.354   4.793  14.269  0.00  0.00    +0.000 C 
ATOM     14  O   UNL     1       7.318   4.694  15.687  0.00  0.00    +0.000 OA
ENDBRANCH   1  14
BRANCH   6  15
ATOM     15  O   UNL     1       6.466   7.385  16.488  0.00  0.00    +0.000 OA
ATOM     16  C   UNL     1       7.427   7.751  17.463  0.00  0.00    +0.000 C 
ENDBRANCH   6  15
BRANCH   7  17
ATOM     17  C   UNL     1       2.750   6.148  19.957  0.00  0.00    +0.000 C 
BRANCH  17  18
ATOM     18  C   UNL     1       1.642   6.923  20.660  0.00  0.00    +0.000 C 
BRANCH  18  19
ATOM     19  N   UNL     1       1.896   8.367  20.751  0.00  0.00    +0.000 NA
ATOM     20  C   UNL     1       1.968   9.007  19.415  0.00  0.00    +0.000 C 
ATOM     21  C   UNL     1       0.644   8.998  18.606  0.00  0.00    +0.000 C 
ATOM     22  N   UNL     1      -0.445   9.545  19.429  0.00  0.00    +0.000 N 
ATOM     23  C   UNL     1      -0.565   8.969  20.782  0.00  0.00    +0.000 C 
ATOM     24  C   UNL     1       0.801   9.029  21.501  0.00  0.00    +0.000 C 
BRANCH  22  25
ATOM     25  C   UNL     1      -1.457  10.338  18.902  0.00  0.00    +0.000 A 
ATOM     26  C   UNL     1      -2.411   9.715  18.065  0.00  0.00    +0.000 A 
ATOM     27  C   UNL     1      -3.475  10.406  17.482  0.00  0.00    +0.000 A 
ATOM     28  C   UNL     1      -3.638  11.754  17.738  0.00  0.00    +0.000 A 
ATOM     29  C   UNL     1      -2.739  12.403  18.583  0.00  0.00    +0.000 A 
ATOM     30  C   UNL     1      -1.661  11.716  19.179  0.00  0.00    +0.000 A 
BRANCH  30  31
ATOM     31  O   UNL     1      -0.762  12.376  19.986  0.00  0.00    +0.000 OA
ATOM     32  C   UNL     1      -1.303  12.990  21.154  0.00  0.00    +0.000 C 
ENDBRANCH  30  31
ENDBRANCH  22  25
ENDBRANCH  18  19
ENDBRANCH  17  18
ENDBRANCH   7  17
TORSDOF 7
ENDMDL
MODEL 5
REMARK VINA RESULT:      -7.0      1.355      1.929
REMARK  Name = 
REMARK  12 active torsions:
REMARK  status: ('A' for Active; 'I' for Inactive)
REMARK    1  A    between atoms: C_1  and  O_2
REMARK    2  A    between atoms: O_2  and  C_3
REMARK    3  A    between atoms: C_8  and  O_9
REMARK    4  A    between atoms: O_9  and  C_10
REMARK    5  A    between atoms: C_11  and  C_12
REMARK    6  A    between atoms: C_12  and  C_13
REMARK    7  A    between atoms: C_13  and  N_14
REMARK    8  A    between atoms: N_17  and  C_18
REMARK    9  A    between atoms: C_23  and  O_24
REMARK   10  A    between atoms: O_24  and  C_25
REMARK   11  A    between atoms: C_29  and  C_30
REMARK   12  A    between atoms: C_29  and  C_31
REMARK                            x       y       z     vdW  Elec       q    Type
REMARK                         _______ _______ _______ _____ _____    ______ ____
ROOT
ATOM      1  C   UNL     1       6.011   5.044  16.505  0.00  0.00    +0.000 A 
ATOM      2  C   UNL     1       5.081   4.037  16.815  0.00  0.00    +0.000 A 
ATOM      3  C   UNL     1       3.848   4.336  17.417  0.00  0.00    +0.000 A 
ATOM      4  C   UNL     1       3.519   5.657  17.707  0.00  0.00    +0.000 A 
ATOM      5  C   UNL     1       4.411   6.660  17.298  0.00  0.00    +0.000 A 
ATOM      6  C   UNL     1       5.669   6.376  16.753  0.00  0.00    +0.000 A 
ATOM      7  C   UNL     1       2.249   6.010  18.459  0.00  0.00    +0.000 C 
ATOM      8  O   UNL     1       1.327   4.905  18.590  0.00  0.00    +0.000 OA
ATOM      9  C   UNL     1       1.879   3.600  18.809  0.00  0.00    +0.000 C 
ATOM     10  C   UNL     1       2.554   3.442  20.180  0.00  0.00    +0.000 C 
ATOM     11  C   UNL     1       0.674   2.647  18.780  0.00  0.00    +0.000 C 
ATOM     12  C   UNL     1       2.839   3.244  17.665  0.00  0.00    +0.000 C 
ENDROOT
BRANCH   1  14
ATOM     13  C   UNL     1       7.363   4.702  14.584  0.00  0.00    +0.000 C 
ATOM     14  O   UNL     1       7.251   4.758  16.000  0.00  0.00    +0.000 OA
ENDBRANCH   1  14
BRANCH   6  15
ATOM     15  O   UNL     1       6.406   7.514  16.546  0.00  0.00    +0.000 OA
ATOM     16  C   UNL     1       7.480   7.808  17.423  0.00  0.00    +0.000 C 
ENDBRANCH   6  15
BRANCH   7  17
ATOM     17  C   UNL     1       2.468   6.598  19.866  0.00  0.00    +0.000 C 
BRANCH  17  18
ATOM     18  C   UNL     1       2.160   8.080  20.045  0.00  0.00    +0.000 C 
BRANCH  18  19
ATOM     19  N   UNL     1       0.746   8.420  19.841  0.00  0.00    +0.000 NA
ATOM     20  C   UNL     1       0.105   8.916  21.083  0.00  0.00    +0.000 C 
ATOM     21  C   UNL     1       0.651  10.268  21.613  0.00  0.00    +0.000 C 
ATOM     22  N   UNL     1       0.631  11.270  20.535  0.00  0.00    +0.000 N 
ATOM     23  C   UNL     1       1.235  10.837  19.260  0.00  0.00    +0.000 C 
ATOM     24  C   UNL     1       0.622   9.488  18.820  0.00  0.00    +0.000 C 
BRANCH  22  25
ATOM     25  C   UNL     1       0.326  12.606  20.760  0.00  0.00    +0.000 A 
ATOM     26  C   UNL     1      -1.020  13.007  20.598  0.00  0.00    +0.000 A 
ATOM     27  C   UNL     1      -1.450  14.321  20.800  0.00  0.00    +0.000 A 
ATOM     28  C   UNL     1      -0.543  15.283  21.200  0.00  0.00    +0.000 A 
ATOM     29  C   UNL     1       0.790  14.925  21.402  0.00  0.00    +0.000 A 
ATOM     30  C   UNL     1       1.236  13.603  21.201  0.00  0.00    +0.000 A 
BRANCH  30  31
ATOM     31  O   UNL     1       2.560  13.269  21.374  0.00  0.00    +0.000 OA
ATOM     32  C   UNL     1       3.510  14.144  20.767  0.00  0.00    +0.000 C 
ENDBRANCH  30  31
ENDBRANCH  22  25
ENDBRANCH  18  19
ENDBRANCH  17  18
ENDBRANCH   7  17
TORSDOF 7
ENDMDL
MODEL 6
REMARK VINA RESULT:      -7.0      1.538      1.975
REMARK  Name = 
REMARK  12 active torsions:
REMARK  status: ('A' for Active; 'I' for Inactive)
REMARK    1  A    between atoms: C_1  and  O_2
REMARK    2  A    between atoms: O_2  and  C_3
REMARK    3  A    between atoms: C_8  and  O_9
REMARK    4  A    between atoms: O_9  and  C_10
REMARK    5  A    between atoms: C_11  and  C_12
REMARK    6  A    between atoms: C_12  and  C_13
REMARK    7  A    between atoms: C_13  and  N_14
REMARK    8  A    between atoms: N_17  and  C_18
REMARK    9  A    between atoms: C_23  and  O_24
REMARK   10  A    between atoms: O_24  and  C_25
REMARK   11  A    between atoms: C_29  and  C_30
REMARK   12  A    between atoms: C_29  and  C_31
REMARK                            x       y       z     vdW  Elec       q    Type
REMARK                         _______ _______ _______ _____ _____    ______ ____
ROOT
ATOM      1  C   UNL     1       5.753   4.769  16.473  0.00  0.00    +0.000 A 
ATOM      2  C   UNL     1       4.845   3.760  16.837  0.00  0.00    +0.000 A 
ATOM      3  C   UNL     1       3.635   4.058  17.484  0.00  0.00    +0.000 A 
ATOM      4  C   UNL     1       3.305   5.381  17.765  0.00  0.00    +0.000 A 
ATOM      5  C   UNL     1       4.171   6.385  17.304  0.00  0.00    +0.000 A 
ATOM      6  C   UNL     1       5.408   6.103  16.712  0.00  0.00    +0.000 A 
ATOM      7  C   UNL     1       2.064   5.736  18.562  0.00  0.00    +0.000 C 
ATOM      8  O   UNL     1       1.158   4.625  18.748  0.00  0.00    +0.000 OA
ATOM      9  C   UNL     1       1.731   3.329  18.966  0.00  0.00    +0.000 C 
ATOM     10  C   UNL     1       2.462   3.200  20.311  0.00  0.00    +0.000 C 
ATOM     11  C   UNL     1       0.534   2.365  19.002  0.00  0.00    +0.000 C 
ATOM     12  C   UNL     1       2.647   2.962  17.790  0.00  0.00    +0.000 C 
ENDROOT
BRANCH   1  14
ATOM     13  C   UNL     1       7.077   4.603  14.510  0.00  0.00    +0.000 C 
ATOM     14  O   UNL     1       6.974   4.485  15.923  0.00  0.00    +0.000 OA
ENDBRANCH   1  14
BRANCH   6  15
ATOM     15  O   UNL     1       6.126   7.243  16.457  0.00  0.00    +0.000 OA
ATOM     16  C   UNL     1       7.132   7.643  17.371  0.00  0.00    +0.000 C 
ENDBRANCH   6  15
BRANCH   7  17
ATOM     17  C   UNL     1       2.334   6.349  19.949  0.00  0.00    +0.000 C 
BRANCH  17  18
ATOM     18  C   UNL     1       1.939   7.809  20.141  0.00  0.00    +0.000 C 
BRANCH  18  19
ATOM     19  N   UNL     1       0.978   8.023  21.232  0.00  0.00    +0.000 NA
ATOM     20  C   UNL     1       1.396   9.121  22.137  0.00  0.00    +0.000 C 
ATOM     21  C   UNL     1       1.420  10.533  21.494  0.00  0.00    +0.000 C 
ATOM     22  N   UNL     1       0.130  10.806  20.843  0.00  0.00    +0.000 N 
ATOM     23  C   UNL     1      -0.360   9.745  19.942  0.00  0.00    +0.000 C 
ATOM     24  C   UNL     1      -0.348   8.386  20.677  0.00  0.00    +0.000 C 
BRANCH  22  25
ATOM     25  C   UNL     1      -0.460  12.063  20.847  0.00  0.00    +0.000 A 
ATOM     26  C   UNL     1      -0.191  12.918  19.754  0.00  0.00    +0.000 A 
ATOM     27  C   UNL     1      -0.731  14.202  19.644  0.00  0.00    +0.000 A 
ATOM     28  C   UNL     1      -1.586  14.670  20.621  0.00  0.00    +0.000 A 
ATOM     29  C   UNL     1      -1.905  13.849  21.702  0.00  0.00    +0.000 A 
ATOM     30  C   UNL     1      -1.367  12.552  21.825  0.00  0.00    +0.000 A 
BRANCH  30  31
ATOM     31  O   UNL     1      -1.665  11.763  22.913  0.00  0.00    +0.000 OA
ATOM     32  C   UNL     1      -2.926  12.005  23.536  0.00  0.00    +0.000 C 
ENDBRANCH  30  31
ENDBRANCH  22  25
ENDBRANCH  18  19
ENDBRANCH  17  18
ENDBRANCH   7  17
TORSDOF 7
ENDMDL
MODEL 7
REMARK VINA RESULT:      -6.9      2.221      3.039
REMARK  Name = 
REMARK  12 active torsions:
REMARK  status: ('A' for Active; 'I' for Inactive)
REMARK    1  A    between atoms: C_1  and  O_2
REMARK    2  A    between atoms: O_2  and  C_3
REMARK    3  A    between atoms: C_8  and  O_9
REMARK    4  A    between atoms: O_9  and  C_10
REMARK    5  A    between atoms: C_11  and  C_12
REMARK    6  A    between atoms: C_12  and  C_13
REMARK    7  A    between atoms: C_13  and  N_14
REMARK    8  A    between atoms: N_17  and  C_18
REMARK    9  A    between atoms: C_23  and  O_24
REMARK   10  A    between atoms: O_24  and  C_25
REMARK   11  A    between atoms: C_29  and  C_30
REMARK   12  A    between atoms: C_29  and  C_31
REMARK                            x       y       z     vdW  Elec       q    Type
REMARK                         _______ _______ _______ _____ _____    ______ ____
ROOT
ATOM      1  C   UNL     1       6.878   5.402  18.578  0.00  0.00    +0.000 A 
ATOM      2  C   UNL     1       5.815   4.682  19.147  0.00  0.00    +0.000 A 
ATOM      3  C   UNL     1       4.476   5.013  18.881  0.00  0.00    +0.000 A 
ATOM      4  C   UNL     1       4.179   6.068  18.023  0.00  0.00    +0.000 A 
ATOM      5  C   UNL     1       5.248   6.712  17.381  0.00  0.00    +0.000 A 
ATOM      6  C   UNL     1       6.587   6.435  17.681  0.00  0.00    +0.000 A 
ATOM      7  C   UNL     1       2.751   6.529  17.800  0.00  0.00    +0.000 C 
ATOM      8  O   UNL     1       1.759   5.621  18.329  0.00  0.00    +0.000 OA
ATOM      9  C   UNL     1       2.052   4.968  19.571  0.00  0.00    +0.000 C 
ATOM     10  C   UNL     1       2.089   5.923  20.774  0.00  0.00    +0.000 C 
ATOM     11  C   UNL     1       0.882   3.996  19.796  0.00  0.00    +0.000 C 
ATOM     12  C   UNL     1       3.358   4.172  19.444  0.00  0.00    +0.000 C 
ENDROOT
BRANCH   1  14
ATOM     13  C   UNL     1       8.557   5.352  20.255  0.00  0.00    +0.000 C 
ATOM     14  O   UNL     1       8.184   5.147  18.898  0.00  0.00    +0.000 OA
ENDBRANCH   1  14
BRANCH   6  15
ATOM     15  O   UNL     1       7.445   7.273  17.016  0.00  0.00    +0.000 OA
ATOM     16  C   UNL     1       7.908   8.443  17.668  0.00  0.00    +0.000 C 
ENDBRANCH   6  15
BRANCH   7  17
ATOM     17  C   UNL     1       2.428   7.934  18.343  0.00  0.00    +0.000 C 
BRANCH  17  18
ATOM     18  C   UNL     1       0.970   8.375  18.281  0.00  0.00    +0.000 C 
BRANCH  18  19
ATOM     19  N   UNL     1       0.786   9.736  17.759  0.00  0.00    +0.000 NA
ATOM     20  C   UNL     1      -0.643  10.131  17.724  0.00  0.00    +0.000 C 
ATOM     21  C   UNL     1      -1.328  10.259  19.110  0.00  0.00    +0.000 C 
ATOM     22  N   UNL     1      -0.528  11.134  19.981  0.00  0.00    +0.000 N 
ATOM     23  C   UNL     1       0.911  10.812  20.050  0.00  0.00    +0.000 C 
ATOM     24  C   UNL     1       1.494  10.712  18.623  0.00  0.00    +0.000 C 
BRANCH  22  25
ATOM     25  C   UNL     1      -1.102  12.020  20.884  0.00  0.00    +0.000 A 
ATOM     26  C   UNL     1      -1.986  12.997  20.374  0.00  0.00    +0.000 A 
ATOM     27  C   UNL     1      -2.627  13.938  21.183  0.00  0.00    +0.000 A 
ATOM     28  C   UNL     1      -2.423  13.917  22.549  0.00  0.00    +0.000 A 
ATOM     29  C   UNL     1      -1.584  12.950  23.100  0.00  0.00    +0.000 A 
ATOM     30  C   UNL     1      -0.931  11.995  22.294  0.00  0.00    +0.000 A 
BRANCH  30  31
ATOM     31  O   UNL     1      -0.080  11.065  22.847  0.00  0.00    +0.000 OA
ATOM     32  C   UNL     1      -0.680   9.844  23.276  0.00  0.00    +0.000 C 
ENDBRANCH  30  31
ENDBRANCH  22  25
ENDBRANCH  18  19
ENDBRANCH  17  18
ENDBRANCH   7  17
TORSDOF 7
ENDMDL
MODEL 8
REMARK VINA RESULT:      -6.9      1.667      2.418
REMARK  Name = 
REMARK  12 active torsions:
REMARK  status: ('A' for Active; 'I' for Inactive)
REMARK    1  A    between atoms: C_1  and  O_2
REMARK    2  A    between atoms: O_2  and  C_3
REMARK    3  A    between atoms: C_8  and  O_9
REMARK    4  A    between atoms: O_9  and  C_10
REMARK    5  A    between atoms: C_11  and  C_12
REMARK    6  A    between atoms: C_12  and  C_13
REMARK    7  A    between atoms: C_13  and  N_14
REMARK    8  A    between atoms: N_17  and  C_18
REMARK    9  A    between atoms: C_23  and  O_24
REMARK   10  A    between atoms: O_24  and  C_25
REMARK   11  A    between atoms: C_29  and  C_30
REMARK   12  A    between atoms: C_29  and  C_31
REMARK                            x       y       z     vdW  Elec       q    Type
REMARK                         _______ _______ _______ _____ _____    ______ ____
ROOT
ATOM      1  C   UNL     1       5.929   4.857  16.556  0.00  0.00    +0.000 A 
ATOM      2  C   UNL     1       5.026   3.811  16.810  0.00  0.00    +0.000 A 
ATOM      3  C   UNL     1       3.783   4.044  17.420  0.00  0.00    +0.000 A 
ATOM      4  C   UNL     1       3.415   5.339  17.774  0.00  0.00    +0.000 A 
ATOM      5  C   UNL     1       4.281   6.386  17.421  0.00  0.00    +0.000 A 
ATOM      6  C   UNL     1       5.548   6.165  16.869  0.00  0.00    +0.000 A 
ATOM      7  C   UNL     1       2.133   5.618  18.536  0.00  0.00    +0.000 C 
ATOM      8  O   UNL     1       1.242   4.483  18.606  0.00  0.00    +0.000 OA
ATOM      9  C   UNL     1       1.830   3.185  18.762  0.00  0.00    +0.000 C 
ATOM     10  C   UNL     1       2.504   2.976  20.127  0.00  0.00    +0.000 C 
ATOM     11  C   UNL     1       0.652   2.201  18.679  0.00  0.00    +0.000 C 
ATOM     12  C   UNL     1       2.804   2.913  17.607  0.00  0.00    +0.000 C 
ENDROOT
BRANCH   1  14
ATOM     13  C   UNL     1       7.326   4.784  14.638  0.00  0.00    +0.000 C 
ATOM     14  O   UNL     1       7.179   4.632  16.044  0.00  0.00    +0.000 OA
ENDBRANCH   1  14
BRANCH   6  15
ATOM     15  O   UNL     1       6.254   7.332  16.723  0.00  0.00    +0.000 OA
ATOM     16  C   UNL     1       7.415   7.538  17.510  0.00  0.00    +0.000 C 
ENDBRANCH   6  15
BRANCH   7  17
ATOM     17  C   UNL     1       2.331   6.141  19.972  0.00  0.00    +0.000 C 
BRANCH  17  18
ATOM     18  C   UNL     1       1.375   7.232  20.441  0.00  0.00    +0.000 C 
BRANCH  18  19
ATOM     19  N   UNL     1       2.019   8.537  20.640  0.00  0.00    +0.000 NA
ATOM     20  C   UNL     1       1.816   9.442  19.483  0.00  0.00    +0.000 C 
ATOM     21  C   UNL     1       0.349   9.881  19.237  0.00  0.00    +0.000 C 
ATOM     22  N   UNL     1      -0.224  10.424  20.478  0.00  0.00    +0.000 N 
ATOM     23  C   UNL     1      -0.041   9.584  21.679  0.00  0.00    +0.000 C 
ATOM     24  C   UNL     1       1.450   9.208  21.834  0.00  0.00    +0.000 C 
BRANCH  22  25
ATOM     25  C   UNL     1      -1.102  11.500  20.491  0.00  0.00    +0.000 A 
ATOM     26  C   UNL     1      -2.339  11.345  19.823  0.00  0.00    +0.000 A 
ATOM     27  C   UNL     1      -3.304  12.352  19.770  0.00  0.00    +0.000 A 
ATOM     28  C   UNL     1      -3.075  13.554  20.413  0.00  0.00    +0.000 A 
ATOM     29  C   UNL     1      -1.882  13.739  21.110  0.00  0.00    +0.000 A 
ATOM     30  C   UNL     1      -0.899  12.730  21.171  0.00  0.00    +0.000 A 
BRANCH  30  31
ATOM     31  O   UNL     1       0.287  12.937  21.837  0.00  0.00    +0.000 OA
ATOM     32  C   UNL     1       0.753  14.285  21.881  0.00  0.00    +0.000 C 
ENDBRANCH  30  31
ENDBRANCH  22  25
ENDBRANCH  18  19
ENDBRANCH  17  18
ENDBRANCH   7  17
TORSDOF 7
ENDMDL
MODEL 9
REMARK VINA RESULT:      -6.8      1.890      2.896
REMARK  Name = 
REMARK  12 active torsions:
REMARK  status: ('A' for Active; 'I' for Inactive)
REMARK    1  A    between atoms: C_1  and  O_2
REMARK    2  A    between atoms: O_2  and  C_3
REMARK    3  A    between atoms: C_8  and  O_9
REMARK    4  A    between atoms: O_9  and  C_10
REMARK    5  A    between atoms: C_11  and  C_12
REMARK    6  A    between atoms: C_12  and  C_13
REMARK    7  A    between atoms: C_13  and  N_14
REMARK    8  A    between atoms: N_17  and  C_18
REMARK    9  A    between atoms: C_23  and  O_24
REMARK   10  A    between atoms: O_24  and  C_25
REMARK   11  A    between atoms: C_29  and  C_30
REMARK   12  A    between atoms: C_29  and  C_31
REMARK                            x       y       z     vdW  Elec       q    Type
REMARK                         _______ _______ _______ _____ _____    ______ ____
ROOT
ATOM      1  C   UNL     1       5.776   4.899  16.791  0.00  0.00    +0.000 A 
ATOM      2  C   UNL     1       4.906   3.839  17.098  0.00  0.00    +0.000 A 
ATOM      3  C   UNL     1       3.669   4.061  17.725  0.00  0.00    +0.000 A 
ATOM      4  C   UNL     1       3.275   5.358  18.043  0.00  0.00    +0.000 A 
ATOM      5  C   UNL     1       4.106   6.414  17.638  0.00  0.00    +0.000 A 
ATOM      6  C   UNL     1       5.367   6.207  17.068  0.00  0.00    +0.000 A 
ATOM      7  C   UNL     1       2.001   5.630  18.821  0.00  0.00    +0.000 C 
ATOM      8  O   UNL     1       1.141   4.476  18.947  0.00  0.00    +0.000 OA
ATOM      9  C   UNL     1       1.766   3.199  19.135  0.00  0.00    +0.000 C 
ATOM     10  C   UNL     1       2.471   3.054  20.492  0.00  0.00    +0.000 C 
ATOM     11  C   UNL     1       0.612   2.183  19.108  0.00  0.00    +0.000 C 
ATOM     12  C   UNL     1       2.723   2.913  17.969  0.00  0.00    +0.000 C 
ENDROOT
BRANCH   1  14
ATOM     13  C   UNL     1       7.136   4.791  14.849  0.00  0.00    +0.000 C 
ATOM     14  O   UNL     1       7.021   4.688  16.262  0.00  0.00    +0.000 OA
ENDBRANCH   1  14
BRANCH   6  15
ATOM     15  O   UNL     1       6.040   7.386  16.869  0.00  0.00    +0.000 OA
ATOM     16  C   UNL     1       7.248   7.616  17.572  0.00  0.00    +0.000 C 
ENDBRANCH   6  15
BRANCH   7  17
ATOM     17  C   UNL     1       2.212   6.206  20.234  0.00  0.00    +0.000 C 
BRANCH  17  18
ATOM     18  C   UNL     1       1.307   7.361  20.646  0.00  0.00    +0.000 C 
BRANCH  18  19
ATOM     19  N   UNL     1       2.014   8.639  20.807  0.00  0.00    +0.000 NA
ATOM     20  C   UNL     1       1.416   9.716  19.981  0.00  0.00    +0.000 C 
ATOM     21  C   UNL     1      -0.024  10.132  20.381  0.00  0.00    +0.000 C 
ATOM     22  N   UNL     1      -0.072  10.439  21.819  0.00  0.00    +0.000 N 
ATOM     23  C   UNL     1       0.525   9.418  22.702  0.00  0.00    +0.000 C 
ATOM     24  C   UNL     1       1.954   9.079  22.222  0.00  0.00    +0.000 C 
BRANCH  22  25
ATOM     25  C   UNL     1      -0.852  11.463  22.341  0.00  0.00    +0.000 A 
ATOM     26  C   UNL     1      -2.045  11.103  23.009  0.00  0.00    +0.000 A 
ATOM     27  C   UNL     1      -2.908  12.042  23.580  0.00  0.00    +0.000 A 
ATOM     28  C   UNL     1      -2.591  13.385  23.522  0.00  0.00    +0.000 A 
ATOM     29  C   UNL     1      -1.408  13.783  22.900  0.00  0.00    +0.000 A 
ATOM     30  C   UNL     1      -0.529  12.845  22.321  0.00  0.00    +0.000 A 
BRANCH  30  31
ATOM     31  O   UNL     1       0.620  13.253  21.682  0.00  0.00    +0.000 OA
ATOM     32  C   UNL     1       0.601  14.575  21.144  0.00  0.00    +0.000 C 
ENDBRANCH  30  31
ENDBRANCH  22  25
ENDBRANCH  18  19
ENDBRANCH  17  18
ENDBRANCH   7  17
TORSDOF 7
ENDMDL
