MODEL 1
REMARK VINA RESULT:      -7.9      0.000      0.000
REMARK  Name = 
REMARK  10 active torsions:
REMARK  status: ('A' for Active; 'I' for Inactive)
REMARK    1  A    between atoms: C_1  and  N_2
REMARK    2  A    between atoms: N_2  and  C_3
REMARK    3  A    between atoms: N_2  and  C_4
REMARK    4  A    between atoms: C_4  and  C_5
REMARK    5  A    between atoms: C_5  and  O_6
REMARK    6  A    between atoms: O_6  and  C_7
REMARK    7  A    between atoms: C_10  and  C_11
REMARK    8  A    between atoms: C_12  and  C_13
REMARK    9  A    between atoms: C_17  and  C_18
REMARK   10  A    between atoms: C_23  and  N_24
REMARK                            x       y       z     vdW  Elec       q    Type
REMARK                         _______ _______ _______ _____ _____    ______ ____
ROOT
ATOM      1  C   UNL     1       0.956  10.526  18.219  0.00  0.00    +0.000 C 
ATOM      2  O   UNL     1       1.936  11.229  18.515  0.00  0.00    +0.000 OA
ATOM      3  N   UNL     1      -0.329  11.017  18.522  0.00  0.00    +0.000 N 
ATOM      4  C   UNL     1      -0.383  12.279  19.308  0.00  0.00    +0.000 C 
ATOM      5  C   UNL     1      -1.706  12.232  20.095  0.00  0.00    +0.000 C 
ATOM      6  C   UNL     1      -2.553  11.570  19.015  0.00  0.00    +0.000 A 
ATOM      7  C   UNL     1      -1.697  10.862  18.111  0.00  0.00    +0.000 A 
ATOM      8  C   UNL     1      -2.241  10.410  16.928  0.00  0.00    +0.000 A 
ATOM      9  C   UNL     1      -3.598  10.759  16.616  0.00  0.00    +0.000 A 
ATOM     10  C   UNL     1      -4.403  11.587  17.488  0.00  0.00    +0.000 A 
ATOM     11  C   UNL     1      -5.640  12.201  17.123  0.00  0.00    +0.000 A 
ATOM     12  C   UNL     1      -6.430  12.909  18.039  0.00  0.00    +0.000 A 
ATOM     13  C   UNL     1      -6.062  12.936  19.364  0.00  0.00    +0.000 A 
ATOM     14  C   UNL     1      -4.837  12.389  19.735  0.00  0.00    +0.000 A 
ATOM     15  C   UNL     1      -3.938  11.830  18.790  0.00  0.00    +0.000 A 
ENDROOT
BRANCH   9  16
ATOM     16  N   UNL     1      -4.092  10.475  15.312  0.00  0.00    +0.000 N 
ATOM     17  H   UNL     1      -4.857  11.091  15.031  0.00  0.00    +0.000 HD
ATOM     18  H   UNL     1      -3.357  10.464  14.615  0.00  0.00    +0.000 HD
ENDBRANCH   9  16
BRANCH   1  20
ATOM     19  C   UNL     1       2.144   8.305  18.375  0.00  0.00    +0.000 C 
ATOM     20  C   UNL     1       1.286   9.126  17.691  0.00  0.00    +0.000 C 
BRANCH  19  24
ATOM     21  C   UNL     1       3.679   4.182  17.777  0.00  0.00    +0.000 A 
ATOM     22  C   UNL     1       4.530   5.283  17.889  0.00  0.00    +0.000 A 
ATOM     23  C   UNL     1       4.039   6.610  18.052  0.00  0.00    +0.000 A 
ATOM     24  C   UNL     1       2.667   6.900  18.100  0.00  0.00    +0.000 A 
ATOM     25  C   UNL     1       1.813   5.787  17.902  0.00  0.00    +0.000 A 
ATOM     26  C   UNL     1       2.308   4.452  17.737  0.00  0.00    +0.000 A 
BRANCH  21  27
ATOM     27  O   UNL     1       4.080   2.857  17.702  0.00  0.00    +0.000 OA
BRANCH  27  28
ATOM     28  C   UNL     1       3.567   1.975  18.731  0.00  0.00    +0.000 C 
BRANCH  28  29
ATOM     29  C   UNL     1       3.906   2.431  20.189  0.00  0.00    +0.000 C 
BRANCH  29  31
ATOM     30  C   UNL     1       2.579   4.165  21.319  0.00  0.00    +0.000 C 
ATOM     31  N   UNL     1       2.713   2.734  21.033  0.00  0.00    +0.000 NA
ATOM     32  C   UNL     1       1.466   2.275  20.400  0.00  0.00    +0.000 C 
ENDBRANCH  29  31
ENDBRANCH  28  29
ENDBRANCH  27  28
ENDBRANCH  21  27
ENDBRANCH  19  24
ENDBRANCH   1  20
BRANCH   5  33
ATOM     33  C   UNL     1      -2.141  13.623  20.566  0.00  0.00    +0.000 C 
ATOM     34 CL   UNL     1      -2.441  13.696  22.319  0.00  0.00    +0.000 Cl
ENDBRANCH   5  33
TORSDOF 8
ENDMDL
MODEL 2
REMARK VINA RESULT:      -7.8      2.514      3.457
REMARK  Name = 
REMARK  10 active torsions:
REMARK  status: ('A' for Active; 'I' for Inactive)
REMARK    1  A    between atoms: C_1  and  N_2
REMARK    2  A    between atoms: N_2  and  C_3
REMARK    3  A    between atoms: N_2  and  C_4
REMARK    4  A    between atoms: C_4  and  C_5
REMARK    5  A    between atoms: C_5  and  O_6
REMARK    6  A    between atoms: O_6  and  C_7
REMARK    7  A    between atoms: C_10  and  C_11
REMARK    8  A    between atoms: C_12  and  C_13
REMARK    9  A    between atoms: C_17  and  C_18
REMARK   10  A    between atoms: C_23  and  N_24
REMARK                            x       y       z     vdW  Elec       q    Type
REMARK                         _______ _______ _______ _____ _____    ______ ____
ROOT
ATOM      1  C   UNL     1       0.988  10.467  18.452  0.00  0.00    +0.000 C 
ATOM      2  O   UNL     1       1.931  11.181  18.832  0.00  0.00    +0.000 OA
ATOM      3  N   UNL     1      -0.324  10.935  18.657  0.00  0.00    +0.000 N 
ATOM      4  C   UNL     1      -0.461  12.186  19.449  0.00  0.00    +0.000 C 
ATOM      5  C   UNL     1      -1.841  12.110  20.128  0.00  0.00    +0.000 C 
ATOM      6  C   UNL     1      -2.589  11.448  18.977  0.00  0.00    +0.000 A 
ATOM      7  C   UNL     1      -1.652  10.763  18.137  0.00  0.00    +0.000 A 
ATOM      8  C   UNL     1      -2.094  10.317  16.909  0.00  0.00    +0.000 A 
ATOM      9  C   UNL     1      -3.427  10.650  16.494  0.00  0.00    +0.000 A 
ATOM     10  C   UNL     1      -4.312  11.455  17.308  0.00  0.00    +0.000 A 
ATOM     11  C   UNL     1      -5.526  12.054  16.852  0.00  0.00    +0.000 A 
ATOM     12  C   UNL     1      -6.397  12.740  17.710  0.00  0.00    +0.000 A 
ATOM     13  C   UNL     1      -6.136  12.757  19.061  0.00  0.00    +0.000 A 
ATOM     14  C   UNL     1      -4.935  12.224  19.522  0.00  0.00    +0.000 A 
ATOM     15  C   UNL     1      -3.956  11.690  18.646  0.00  0.00    +0.000 A 
ENDROOT
BRANCH   9  16
ATOM     16  N   UNL     1      -3.811  10.374  15.152  0.00  0.00    +0.000 N 
ATOM     17  H   UNL     1      -3.234  10.859  14.463  0.00  0.00    +0.000 HD
ATOM     18  H   UNL     1      -3.852   9.380  14.959  0.00  0.00    +0.000 HD
ENDBRANCH   9  16
BRANCH   1  20
ATOM     19  C   UNL     1       2.626   8.564  18.191  0.00  0.00    +0.000 C 
ATOM     20  C   UNL     1       1.382   9.078  17.937  0.00  0.00    +0.000 C 
BRANCH  19  24
ATOM     21  C   UNL     1       4.493   4.752  16.891  0.00  0.00    +0.000 A 
ATOM     22  C   UNL     1       3.263   4.790  17.550  0.00  0.00    +0.000 A 
ATOM     23  C   UNL     1       2.676   6.010  17.994  0.00  0.00    +0.000 A 
ATOM     24  C   UNL     1       3.300   7.252  17.807  0.00  0.00    +0.000 A 
ATOM     25  C   UNL     1       4.585   7.194  17.212  0.00  0.00    +0.000 A 
ATOM     26  C   UNL     1       5.175   5.965  16.767  0.00  0.00    +0.000 A 
BRANCH  21  27
ATOM     27  O   UNL     1       5.087   3.619  16.356  0.00  0.00    +0.000 OA
BRANCH  27  28
ATOM     28  C   UNL     1       6.003   3.836  15.255  0.00  0.00    +0.000 C 
BRANCH  28  29
ATOM     29  C   UNL     1       5.301   4.015  13.867  0.00  0.00    +0.000 C 
BRANCH  29  31
ATOM     30  C   UNL     1       5.056   3.025  11.630  0.00  0.00    +0.000 C 
ATOM     31  N   UNL     1       5.971   3.301  12.740  0.00  0.00    +0.000 NA
ATOM     32  C   UNL     1       7.114   4.065  12.213  0.00  0.00    +0.000 C 
ENDBRANCH  29  31
ENDBRANCH  28  29
ENDBRANCH  27  28
ENDBRANCH  21  27
ENDBRANCH  19  24
ENDBRANCH   1  20
BRANCH   5  33
ATOM     33  C   UNL     1      -2.334  13.488  20.577  0.00  0.00    +0.000 C 
ATOM     34 CL   UNL     1      -2.904  13.502  22.264  0.00  0.00    +0.000 Cl
ENDBRANCH   5  33
TORSDOF 8
ENDMDL
MODEL 3
REMARK VINA RESULT:      -7.7      1.276      1.708
REMARK  Name = 
REMARK  10 active torsions:
REMARK  status: ('A' for Active; 'I' for Inactive)
REMARK    1  A    between atoms: C_1  and  N_2
REMARK    2  A    between atoms: N_2  and  C_3
REMARK    3  A    between atoms: N_2  and  C_4
REMARK    4  A    between atoms: C_4  and  C_5
REMARK    5  A    between atoms: C_5  and  O_6
REMARK    6  A    between atoms: O_6  and  C_7
REMARK    7  A    between atoms: C_10  and  C_11
REMARK    8  A    between atoms: C_12  and  C_13
REMARK    9  A    between atoms: C_17  and  C_18
REMARK   10  A    between atoms: C_23  and  N_24
REMARK                            x       y       z     vdW  Elec       q    Type
REMARK                         _______ _______ _______ _____ _____    ______ ____
ROOT
ATOM      1  C   UNL     1       0.260  12.018  19.105  0.00  0.00    +0.000 C 
ATOM      2  O   UNL     1       1.029  12.913  19.490  0.00  0.00    +0.000 OA
ATOM      3  N   UNL     1      -1.123  12.202  19.298  0.00  0.00    +0.000 N 
ATOM      4  C   UNL     1      -1.525  13.397  20.086  0.00  0.00    +0.000 C 
ATOM      5  C   UNL     1      -2.864  13.036  20.754  0.00  0.00    +0.000 C 
ATOM      6  C   UNL     1      -3.447  12.230  19.599  0.00  0.00    +0.000 A 
ATOM      7  C   UNL     1      -2.382  11.756  18.768  0.00  0.00    +0.000 A 
ATOM      8  C   UNL     1      -2.711  11.226  17.538  0.00  0.00    +0.000 A 
ATOM      9  C   UNL     1      -4.080  11.272  17.112  0.00  0.00    +0.000 A 
ATOM     10  C   UNL     1      -5.120  11.876  17.917  0.00  0.00    +0.000 A 
ATOM     11  C   UNL     1      -6.429  12.208  17.451  0.00  0.00    +0.000 A 
ATOM     12  C   UNL     1      -7.431  12.697  18.299  0.00  0.00    +0.000 A 
ATOM     13  C   UNL     1      -7.191  12.769  19.652  0.00  0.00    +0.000 A 
ATOM     14  C   UNL     1      -5.909  12.499  20.124  0.00  0.00    +0.000 A 
ATOM     15  C   UNL     1      -4.832  12.180  19.257  0.00  0.00    +0.000 A 
ENDROOT
BRANCH   9  16
ATOM     16  N   UNL     1      -4.388  10.920  15.768  0.00  0.00    +0.000 N 
ATOM     17  H   UNL     1      -3.831  11.434  15.083  0.00  0.00    +0.000 HD
ATOM     18  H   UNL     1      -4.332   9.921  15.609  0.00  0.00    +0.000 HD
ENDBRANCH   9  16
BRANCH   1  20
ATOM     19  C   UNL     1       1.190   9.697  19.447  0.00  0.00    +0.000 C 
ATOM     20  C   UNL     1       0.939  10.741  18.597  0.00  0.00    +0.000 C 
BRANCH  19  24
ATOM     21  C   UNL     1       3.286   5.816  18.938  0.00  0.00    +0.000 A 
ATOM     22  C   UNL     1       3.273   6.790  17.938  0.00  0.00    +0.000 A 
ATOM     23  C   UNL     1       2.577   8.024  18.088  0.00  0.00    +0.000 A 
ATOM     24  C   UNL     1       1.850   8.338  19.246  0.00  0.00    +0.000 A 
ATOM     25  C   UNL     1       1.801   7.309  20.219  0.00  0.00    +0.000 A 
ATOM     26  C   UNL     1       2.501   6.066  20.067  0.00  0.00    +0.000 A 
BRANCH  21  27
ATOM     27  O   UNL     1       4.006   4.632  18.901  0.00  0.00    +0.000 OA
BRANCH  27  28
ATOM     28  C   UNL     1       3.364   3.514  18.238  0.00  0.00    +0.000 C 
BRANCH  28  29
ATOM     29  C   UNL     1       3.187   2.251  19.145  0.00  0.00    +0.000 C 
BRANCH  29  31
ATOM     30  C   UNL     1       1.640   2.618  21.020  0.00  0.00    +0.000 C 
ATOM     31  N   UNL     1       1.804   2.061  19.675  0.00  0.00    +0.000 NA
ATOM     32  C   UNL     1       0.795   2.678  18.798  0.00  0.00    +0.000 C 
ENDBRANCH  29  31
ENDBRANCH  28  29
ENDBRANCH  27  28
ENDBRANCH  21  27
ENDBRANCH  19  24
ENDBRANCH   1  20
BRANCH   5  33
ATOM     33  C   UNL     1      -3.638  14.280  21.196  0.00  0.00    +0.000 C 
ATOM     34 CL   UNL     1      -4.199  14.183  22.883  0.00  0.00    +0.000 Cl
ENDBRANCH   5  33
TORSDOF 8
ENDMDL
MODEL 4
REMARK VINA RESULT:      -7.7      1.701      2.469
REMARK  Name = 
REMARK  10 active torsions:
REMARK  status: ('A' for Active; 'I' for Inactive)
REMARK    1  A    between atoms: C_1  and  N_2
REMARK    2  A    between atoms: N_2  and  C_3
REMARK    3  A    between atoms: N_2  and  C_4
REMARK    4  A    between atoms: C_4  and  C_5
REMARK    5  A    between atoms: C_5  and  O_6
REMARK    6  A    between atoms: O_6  and  C_7
REMARK    7  A    between atoms: C_10  and  C_11
REMARK    8  A    between atoms: C_12  and  C_13
REMARK    9  A    between atoms: C_17  and  C_18
REMARK   10  A    between atoms: C_23  and  N_24
REMARK                            x       y       z     vdW  Elec       q    Type
REMARK                         _______ _______ _______ _____ _____    ______ ____
ROOT
ATOM      1  C   UNL     1       0.057  12.593  20.621  0.00  0.00    +0.000 C 
ATOM      2  O   UNL     1       0.522  13.507  21.321  0.00  0.00    +0.000 OA
ATOM      3  N   UNL     1      -1.337  12.550  20.425  0.00  0.00    +0.000 N 
ATOM      4  C   UNL     1      -2.141  13.527  21.205  0.00  0.00    +0.000 C 
ATOM      5  C   UNL     1      -3.523  12.877  21.405  0.00  0.00    +0.000 C 
ATOM      6  C   UNL     1      -3.624  12.208  20.040  0.00  0.00    +0.000 A 
ATOM      7  C   UNL     1      -2.308  12.033  19.502  0.00  0.00    +0.000 A 
ATOM      8  C   UNL     1      -2.197  11.680  18.173  0.00  0.00    +0.000 A 
ATOM      9  C   UNL     1      -3.389  11.610  17.377  0.00  0.00    +0.000 A 
ATOM     10  C   UNL     1      -4.696  11.920  17.914  0.00  0.00    +0.000 A 
ATOM     11  C   UNL     1      -5.871  12.144  17.132  0.00  0.00    +0.000 A 
ATOM     12  C   UNL     1      -7.134  12.339  17.708  0.00  0.00    +0.000 A 
ATOM     13  C   UNL     1      -7.279  12.212  19.070  0.00  0.00    +0.000 A 
ATOM     14  C   UNL     1      -6.143  12.044  19.856  0.00  0.00    +0.000 A 
ATOM     15  C   UNL     1      -4.835  12.028  19.306  0.00  0.00    +0.000 A 
ENDROOT
BRANCH   9  16
ATOM     16  N   UNL     1      -3.259  11.454  15.969  0.00  0.00    +0.000 N 
ATOM     17  H   UNL     1      -4.075  11.017  15.537  0.00  0.00    +0.000 HD
ATOM     18  H   UNL     1      -3.022  12.323  15.504  0.00  0.00    +0.000 HD
ENDBRANCH   9  16
BRANCH   1  20
ATOM     19  C   UNL     1       0.671  10.228  19.989  0.00  0.00    +0.000 C 
ATOM     20  C   UNL     1       1.065  11.527  20.176  0.00  0.00    +0.000 C 
BRANCH  19  24
ATOM     21  C   UNL     1       2.691   6.476  18.742  0.00  0.00    +0.000 A 
ATOM     22  C   UNL     1       2.260   6.687  20.053  0.00  0.00    +0.000 A 
ATOM     23  C   UNL     1       1.638   7.902  20.462  0.00  0.00    +0.000 A 
ATOM     24  C   UNL     1       1.426   8.970  19.577  0.00  0.00    +0.000 A 
ATOM     25  C   UNL     1       1.942   8.776  18.271  0.00  0.00    +0.000 A 
ATOM     26  C   UNL     1       2.569   7.554  17.861  0.00  0.00    +0.000 A 
BRANCH  21  27
ATOM     27  O   UNL     1       3.226   5.295  18.250  0.00  0.00    +0.000 OA
BRANCH  27  28
ATOM     28  C   UNL     1       3.843   4.418  19.224  0.00  0.00    +0.000 C 
BRANCH  28  29
ATOM     29  C   UNL     1       3.096   3.057  19.421  0.00  0.00    +0.000 C 
BRANCH  29  31
ATOM     30  C   UNL     1       0.822   2.330  18.835  0.00  0.00    +0.000 C 
ATOM     31  N   UNL     1       1.635   3.190  19.698  0.00  0.00    +0.000 NA
ATOM     32  C   UNL     1       1.315   2.868  21.098  0.00  0.00    +0.000 C 
ENDBRANCH  29  31
ENDBRANCH  28  29
ENDBRANCH  27  28
ENDBRANCH  21  27
ENDBRANCH  19  24
ENDBRANCH   1  20
BRANCH   5  33
ATOM     33  C   UNL     1      -4.597  13.911  21.755  0.00  0.00    +0.000 C 
ATOM     34 CL   UNL     1      -5.590  13.429  23.152  0.00  0.00    +0.000 Cl
ENDBRANCH   5  33
TORSDOF 8
ENDMDL
MODEL 5
REMARK VINA RESULT:      -7.6      1.607      2.443
REMARK  Name = 
REMARK  10 active torsions:
REMARK  status: ('A' for Active; 'I' for Inactive)
REMARK    1  A    between atoms: C_1  and  N_2
REMARK    2  A    between atoms: N_2  and  C_3
REMARK    3  A    between atoms: N_2  and  C_4
REMARK    4  A    between atoms: C_4  and  C_5
REMARK    5  A    between atoms: C_5  and  O_6
REMARK    6  A    between atoms: O_6  and  C_7
REMARK    7  A    between atoms: C_10  and  C_11
REMARK    8  A    between atoms: C_12  and  C_13
REMARK    9  A    between atoms: C_17  and  C_18
REMARK   10  A    between atoms: C_23  and  N_24
REMARK                            x       y       z     vdW  Elec       q    Type
REMARK                         _______ _______ _______ _____ _____    ______ ____
ROOT
ATOM      1  C   UNL     1       0.210  12.672  20.083  0.00  0.00    +0.000 C 
ATOM      2  O   UNL     1       0.751  13.622  20.673  0.00  0.00    +0.000 OA
ATOM      3  N   UNL     1      -1.196  12.648  20.015  0.00  0.00    +0.000 N 
ATOM      4  C   UNL     1      -1.911  13.695  20.791  0.00  0.00    +0.000 C 
ATOM      5  C   UNL     1      -3.280  13.092  21.158  0.00  0.00    +0.000 C 
ATOM      6  C   UNL     1      -3.513  12.332  19.857  0.00  0.00    +0.000 A 
ATOM      7  C   UNL     1      -2.254  12.090  19.219  0.00  0.00    +0.000 A 
ATOM      8  C   UNL     1      -2.268  11.643  17.915  0.00  0.00    +0.000 A 
ATOM      9  C   UNL     1      -3.528  11.545  17.234  0.00  0.00    +0.000 A 
ATOM     10  C   UNL     1      -4.777  11.921  17.860  0.00  0.00    +0.000 A 
ATOM     11  C   UNL     1      -6.013  12.116  17.172  0.00  0.00    +0.000 A 
ATOM     12  C   UNL     1      -7.216  12.381  17.840  0.00  0.00    +0.000 A 
ATOM     13  C   UNL     1      -7.241  12.352  19.216  0.00  0.00    +0.000 A 
ATOM     14  C   UNL     1      -6.041  12.213  19.909  0.00  0.00    +0.000 A 
ATOM     15  C   UNL     1      -4.788  12.129  19.248  0.00  0.00    +0.000 A 
ENDROOT
BRANCH   9  16
ATOM     16  N   UNL     1      -3.527  11.288  15.834  0.00  0.00    +0.000 N 
ATOM     17  H   UNL     1      -2.602  11.380  15.411  0.00  0.00    +0.000 HD
ATOM     18  H   UNL     1      -3.945  10.393  15.606  0.00  0.00    +0.000 HD
ENDBRANCH   9  16
BRANCH   1  20
ATOM     19  C   UNL     1       0.786  10.240  19.732  0.00  0.00    +0.000 C 
ATOM     20  C   UNL     1       1.156  11.555  19.629  0.00  0.00    +0.000 C 
BRANCH  19  24
ATOM     21  C   UNL     1       3.035   6.527  18.800  0.00  0.00    +0.000 A 
ATOM     22  C   UNL     1       2.887   7.559  17.871  0.00  0.00    +0.000 A 
ATOM     23  C   UNL     1       2.141   8.739  18.159  0.00  0.00    +0.000 A 
ATOM     24  C   UNL     1       1.498   8.937  19.389  0.00  0.00    +0.000 A 
ATOM     25  C   UNL     1       1.584   7.848  20.292  0.00  0.00    +0.000 A 
ATOM     26  C   UNL     1       2.334   6.660  20.002  0.00  0.00    +0.000 A 
BRANCH  21  27
ATOM     27  O   UNL     1       3.811   5.391  18.626  0.00  0.00    +0.000 OA
BRANCH  27  28
ATOM     28  C   UNL     1       3.444   4.529  17.521  0.00  0.00    +0.000 C 
BRANCH  28  29
ATOM     29  C   UNL     1       1.948   4.069  17.540  0.00  0.00    +0.000 C 
BRANCH  29  31
ATOM     30  C   UNL     1       3.005   1.903  18.026  0.00  0.00    +0.000 C 
ATOM     31  N   UNL     1       1.745   2.648  17.950  0.00  0.00    +0.000 NA
ATOM     32  C   UNL     1       1.074   2.547  19.255  0.00  0.00    +0.000 C 
ENDBRANCH  29  31
ENDBRANCH  28  29
ENDBRANCH  27  28
ENDBRANCH  21  27
ENDBRANCH  19  24
ENDBRANCH   1  20
BRANCH   5  33
ATOM     33  C   UNL     1      -4.301  14.172  21.526  0.00  0.00    +0.000 C 
ATOM     34 CL   UNL     1      -3.808  15.798  20.994  0.00  0.00    +0.000 Cl
ENDBRANCH   5  33
TORSDOF 8
ENDMDL
MODEL 6
REMARK VINA RESULT:      -7.6      3.746      4.897
REMARK  Name = 
REMARK  10 active torsions:
REMARK  status: ('A' for Active; 'I' for Inactive)
REMARK    1  A    between atoms: C_1  and  N_2
REMARK    2  A    between atoms: N_2  and  C_3
REMARK    3  A    between atoms: N_2  and  C_4
REMARK    4  A    between atoms: C_4  and  C_5
REMARK    5  A    between atoms: C_5  and  O_6
REMARK    6  A    between atoms: O_6  and  C_7
REMARK    7  A    between atoms: C_10  and  C_11
REMARK    8  A    between atoms: C_12  and  C_13
REMARK    9  A    between atoms: C_17  and  C_18
REMARK   10  A    between atoms: C_23  and  N_24
REMARK                            x       y       z     vdW  Elec       q    Type
REMARK                         _______ _______ _______ _____ _____    ______ ____
ROOT
ATOM      1  C   UNL     1      -0.004  10.344  22.116  0.00  0.00    +0.000 C 
ATOM      2  O   UNL     1      -0.194  10.224  23.337  0.00  0.00    +0.000 OA
ATOM      3  N   UNL     1      -0.116  11.629  21.551  0.00  0.00    +0.000 N 
ATOM      4  C   UNL     1      -0.601  12.706  22.454  0.00  0.00    +0.000 C 
ATOM      5  C   UNL     1      -1.302  13.737  21.549  0.00  0.00    +0.000 C 
ATOM      6  C   UNL     1      -0.346  13.638  20.365  0.00  0.00    +0.000 A 
ATOM      7  C   UNL     1       0.328  12.375  20.407  0.00  0.00    +0.000 A 
ATOM      8  C   UNL     1       1.413  12.197  19.574  0.00  0.00    +0.000 A 
ATOM      9  C   UNL     1       1.872  13.309  18.792  0.00  0.00    +0.000 A 
ATOM     10  C   UNL     1       1.252  14.614  18.866  0.00  0.00    +0.000 A 
ATOM     11  C   UNL     1       1.813  15.820  18.344  0.00  0.00    +0.000 A 
ATOM     12  C   UNL     1       1.123  17.039  18.353  0.00  0.00    +0.000 A 
ATOM     13  C   UNL     1      -0.183  17.070  18.784  0.00  0.00    +0.000 A 
ATOM     14  C   UNL     1      -0.736  15.920  19.342  0.00  0.00    +0.000 A 
ATOM     15  C   UNL     1       0.010  14.725  19.511  0.00  0.00    +0.000 A 
ENDROOT
BRANCH   9  16
ATOM     16  N   UNL     1       3.108  13.190  18.097  0.00  0.00    +0.000 N 
ATOM     17  H   UNL     1       3.894  12.974  18.712  0.00  0.00    +0.000 HD
ATOM     18  H   UNL     1       3.055  12.532  17.328  0.00  0.00    +0.000 HD
ENDBRANCH   9  16
BRANCH   1  20
ATOM     19  C   UNL     1       1.427   8.637  20.930  0.00  0.00    +0.000 C 
ATOM     20  C   UNL     1       0.183   9.032  21.347  0.00  0.00    +0.000 C 
BRANCH  19  24
ATOM     21  C   UNL     1       2.664   5.075  18.587  0.00  0.00    +0.000 A 
ATOM     22  C   UNL     1       2.204   4.976  19.901  0.00  0.00    +0.000 A 
ATOM     23  C   UNL     1       1.834   6.121  20.664  0.00  0.00    +0.000 A 
ATOM     24  C   UNL     1       1.917   7.423  20.150  0.00  0.00    +0.000 A 
ATOM     25  C   UNL     1       2.464   7.518  18.846  0.00  0.00    +0.000 A 
ATOM     26  C   UNL     1       2.838   6.366  18.078  0.00  0.00    +0.000 A 
BRANCH  21  27
ATOM     27  O   UNL     1       2.962   4.007  17.754  0.00  0.00    +0.000 OA
BRANCH  27  28
ATOM     28  C   UNL     1       4.369   3.708  17.576  0.00  0.00    +0.000 C 
BRANCH  28  29
ATOM     29  C   UNL     1       4.934   4.109  16.173  0.00  0.00    +0.000 C 
BRANCH  29  31
ATOM     30  C   UNL     1       6.925   4.763  14.887  0.00  0.00    +0.000 C 
ATOM     31  N   UNL     1       6.423   4.060  16.071  0.00  0.00    +0.000 NA
ATOM     32  C   UNL     1       7.070   4.642  17.258  0.00  0.00    +0.000 C 
ENDBRANCH  29  31
ENDBRANCH  28  29
ENDBRANCH  27  28
ENDBRANCH  21  27
ENDBRANCH  19  24
ENDBRANCH   1  20
BRANCH   5  33
ATOM     33  C   UNL     1      -1.429  15.103  22.228  0.00  0.00    +0.000 C 
ATOM     34 CL   UNL     1       0.111  15.681  22.909  0.00  0.00    +0.000 Cl
ENDBRANCH   5  33
TORSDOF 8
ENDMDL
MODEL 7
REMARK VINA RESULT:      -7.5      3.576      5.434
REMARK  Name = 
REMARK  10 active torsions:
REMARK  status: ('A' for Active; 'I' for Inactive)
REMARK    1  A    between atoms: C_1  and  N_2
REMARK    2  A    between atoms: N_2  and  C_3
REMARK    3  A    between atoms: N_2  and  C_4
REMARK    4  A    between atoms: C_4  and  C_5
REMARK    5  A    between atoms: C_5  and  O_6
REMARK    6  A    between atoms: O_6  and  C_7
REMARK    7  A    between atoms: C_10  and  C_11
REMARK    8  A    between atoms: C_12  and  C_13
REMARK    9  A    between atoms: C_17  and  C_18
REMARK   10  A    between atoms: C_23  and  N_24
REMARK                            x       y       z     vdW  Elec       q    Type
REMARK                         _______ _______ _______ _____ _____    ______ ____
ROOT
ATOM      1  C   UNL     1       1.563   8.569  19.389  0.00  0.00    +0.000 C 
ATOM      2  O   UNL     1       1.290   7.857  20.369  0.00  0.00    +0.000 OA
ATOM      3  N   UNL     1       1.073   9.889  19.369  0.00  0.00    +0.000 N 
ATOM      4  C   UNL     1       0.142  10.262  20.467  0.00  0.00    +0.000 C 
ATOM      5  C   UNL     1      -0.768  11.366  19.898  0.00  0.00    +0.000 C 
ATOM      6  C   UNL     1       0.289  12.077  19.060  0.00  0.00    +0.000 A 
ATOM      7  C   UNL     1       1.354  11.164  18.770  0.00  0.00    +0.000 A 
ATOM      8  C   UNL     1       2.520  11.680  18.244  0.00  0.00    +0.000 A 
ATOM      9  C   UNL     1       2.645  13.104  18.113  0.00  0.00    +0.000 A 
ATOM     10  C   UNL     1       1.603  14.014  18.535  0.00  0.00    +0.000 A 
ATOM     11  C   UNL     1       1.762  15.424  18.696  0.00  0.00    +0.000 A 
ATOM     12  C   UNL     1       0.691  16.273  19.009  0.00  0.00    +0.000 A 
ATOM     13  C   UNL     1      -0.583  15.757  19.065  0.00  0.00    +0.000 A 
ATOM     14  C   UNL     1      -0.757  14.379  18.962  0.00  0.00    +0.000 A 
ATOM     15  C   UNL     1       0.336  13.484  18.829  0.00  0.00    +0.000 A 
ENDROOT
BRANCH   9  16
ATOM     16  N   UNL     1       3.915  13.647  17.769  0.00  0.00    +0.000 N 
ATOM     17  H   UNL     1       4.630  13.470  18.477  0.00  0.00    +0.000 HD
ATOM     18  H   UNL     1       4.227  13.348  16.853  0.00  0.00    +0.000 HD
ENDBRANCH   9  16
BRANCH   1  20
ATOM     19  C   UNL     1       3.214   6.883  18.494  0.00  0.00    +0.000 C 
ATOM     20  C   UNL     1       2.284   7.857  18.239  0.00  0.00    +0.000 C 
BRANCH  19  24
ATOM     21  C   UNL     1       5.647   4.452  15.686  0.00  0.00    +0.000 A 
ATOM     22  C   UNL     1       4.517   3.940  16.325  0.00  0.00    +0.000 A 
ATOM     23  C   UNL     1       3.752   4.709  17.249  0.00  0.00    +0.000 A 
ATOM     24  C   UNL     1       4.089   6.028  17.585  0.00  0.00    +0.000 A 
ATOM     25  C   UNL     1       5.284   6.509  16.994  0.00  0.00    +0.000 A 
ATOM     26  C   UNL     1       6.055   5.734  16.066  0.00  0.00    +0.000 A 
BRANCH  21  27
ATOM     27  O   UNL     1       6.391   3.798  14.716  0.00  0.00    +0.000 OA
BRANCH  27  28
ATOM     28  C   UNL     1       6.744   4.578  13.547  0.00  0.00    +0.000 C 
BRANCH  28  29
ATOM     29  C   UNL     1       6.677   3.779  12.203  0.00  0.00    +0.000 C 
BRANCH  29  31
ATOM     30  C   UNL     1       4.369   3.297  11.504  0.00  0.00    +0.000 C 
ATOM     31  N   UNL     1       5.578   2.769  12.141  0.00  0.00    +0.000 NA
ATOM     32  C   UNL     1       5.990   1.560  11.410  0.00  0.00    +0.000 C 
ENDBRANCH  29  31
ENDBRANCH  28  29
ENDBRANCH  27  28
ENDBRANCH  21  27
ENDBRANCH  19  24
ENDBRANCH   1  20
BRANCH   5  33
ATOM     33  C   UNL     1      -1.442  12.180  21.005  0.00  0.00    +0.000 C 
ATOM     34 CL   UNL     1      -0.301  12.707  22.266  0.00  0.00    +0.000 Cl
ENDBRANCH   5  33
TORSDOF 8
ENDMDL
MODEL 8
REMARK VINA RESULT:      -7.5      1.958      2.854
REMARK  Name = 
REMARK  10 active torsions:
REMARK  status: ('A' for Active; 'I' for Inactive)
REMARK    1  A    between atoms: C_1  and  N_2
REMARK    2  A    between atoms: N_2  and  C_3
REMARK    3  A    between atoms: N_2  and  C_4
REMARK    4  A    between atoms: C_4  and  C_5
REMARK    5  A    between atoms: C_5  and  O_6
REMARK    6  A    between atoms: O_6  and  C_7
REMARK    7  A    between atoms: C_10  and  C_11
REMARK    8  A    between atoms: C_12  and  C_13
REMARK    9  A    between atoms: C_17  and  C_18
REMARK   10  A    between atoms: C_23  and  N_24
REMARK                            x       y       z     vdW  Elec       q    Type
REMARK                         _______ _______ _______ _____ _____    ______ ____
ROOT
ATOM      1  C   UNL     1       0.379  11.755  21.021  0.00  0.00    +0.000 C 
ATOM      2  O   UNL     1       1.027  12.667  21.560  0.00  0.00    +0.000 OA
ATOM      3  N   UNL     1      -0.947  12.024  20.631  0.00  0.00    +0.000 N 
ATOM      4  C   UNL     1      -1.499  13.343  21.041  0.00  0.00    +0.000 C 
ATOM      5  C   UNL     1      -3.021  13.146  21.170  0.00  0.00    +0.000 C 
ATOM      6  C   UNL     1      -3.196  12.196  19.990  0.00  0.00    +0.000 A 
ATOM      7  C   UNL     1      -1.946  11.555  19.712  0.00  0.00    +0.000 A 
ATOM      8  C   UNL     1      -1.831  10.855  18.529  0.00  0.00    +0.000 A 
ATOM      9  C   UNL     1      -2.922  10.891  17.597  0.00  0.00    +0.000 A 
ATOM     10  C   UNL     1      -4.125  11.655  17.846  0.00  0.00    +0.000 A 
ATOM     11  C   UNL     1      -5.117  11.965  16.866  0.00  0.00    +0.000 A 
ATOM     12  C   UNL     1      -6.314  12.621  17.184  0.00  0.00    +0.000 A 
ATOM     13  C   UNL     1      -6.602  12.892  18.502  0.00  0.00    +0.000 A 
ATOM     14  C   UNL     1      -5.631  12.646  19.469  0.00  0.00    +0.000 A 
ATOM     15  C   UNL     1      -4.342  12.152  19.141  0.00  0.00    +0.000 A 
ENDROOT
BRANCH   9  16
ATOM     16  N   UNL     1      -2.726  10.349  16.297  0.00  0.00    +0.000 N 
ATOM     17  H   UNL     1      -1.741  10.282  16.036  0.00  0.00    +0.000 HD
ATOM     18  H   UNL     1      -3.197   9.460  16.175  0.00  0.00    +0.000 HD
ENDBRANCH   9  16
BRANCH   1  20
ATOM     19  C   UNL     1       1.185   9.692  19.811  0.00  0.00    +0.000 C 
ATOM     20  C   UNL     1       1.070  10.388  20.986  0.00  0.00    +0.000 C 
BRANCH  19  24
ATOM     21  C   UNL     1       2.760   5.679  18.751  0.00  0.00    +0.000 A 
ATOM     22  C   UNL     1       2.229   5.959  20.011  0.00  0.00    +0.000 A 
ATOM     23  C   UNL     1       1.750   7.254  20.363  0.00  0.00    +0.000 A 
ATOM     24  C   UNL     1       1.789   8.335  19.470  0.00  0.00    +0.000 A 
ATOM     25  C   UNL     1       2.406   8.061  18.224  0.00  0.00    +0.000 A 
ATOM     26  C   UNL     1       2.889   6.758  17.871  0.00  0.00    +0.000 A 
BRANCH  21  27
ATOM     27  O   UNL     1       3.168   4.430  18.307  0.00  0.00    +0.000 OA
BRANCH  27  28
ATOM     28  C   UNL     1       4.559   4.313  17.917  0.00  0.00    +0.000 C 
BRANCH  28  29
ATOM     29  C   UNL     1       5.572   4.621  19.069  0.00  0.00    +0.000 C 
BRANCH  29  31
ATOM     30  C   UNL     1       7.152   4.682  17.186  0.00  0.00    +0.000 C 
ATOM     31  N   UNL     1       7.003   4.639  18.643  0.00  0.00    +0.000 NA
ATOM     32  C   UNL     1       7.727   5.787  19.211  0.00  0.00    +0.000 C 
ENDBRANCH  29  31
ENDBRANCH  28  29
ENDBRANCH  27  28
ENDBRANCH  21  27
ENDBRANCH  19  24
ENDBRANCH   1  20
BRANCH   5  33
ATOM     33  C   UNL     1      -3.778  14.475  21.111  0.00  0.00    +0.000 C 
ATOM     34 CL   UNL     1      -4.944  14.665  22.443  0.00  0.00    +0.000 Cl
ENDBRANCH   5  33
TORSDOF 8
ENDMDL
MODEL 9
REMARK VINA RESULT:      -7.4      2.030      2.893
REMARK  Name = 
REMARK  10 active torsions:
REMARK  status: ('A' for Active; 'I' for Inactive)
REMARK    1  A    between atoms: C_1  and  N_2
REMARK    2  A    between atoms: N_2  and  C_3
REMARK    3  A    between atoms: N_2  and  C_4
REMARK    4  A    between atoms: C_4  and  C_5
REMARK    5  A    between atoms: C_5  and  O_6
REMARK    6  A    between atoms: O_6  and  C_7
REMARK    7  A    between atoms: C_10  and  C_11
REMARK    8  A    between atoms: C_12  and  C_13
REMARK    9  A    between atoms: C_17  and  C_18
REMARK   10  A    between atoms: C_23  and  N_24
REMARK                            x       y       z     vdW  Elec       q    Type
REMARK                         _______ _______ _______ _____ _____    ______ ____
ROOT
ATOM      1  C   UNL     1       0.379  12.402  19.686  0.00  0.00    +0.000 C 
ATOM      2  O   UNL     1       1.016  13.333  20.206  0.00  0.00    +0.000 OA
ATOM      3  N   UNL     1      -1.027  12.477  19.689  0.00  0.00    +0.000 N 
ATOM      4  C   UNL     1      -1.625  13.603  20.453  0.00  0.00    +0.000 C 
ATOM      5  C   UNL     1      -3.012  13.116  20.914  0.00  0.00    +0.000 C 
ATOM      6  C   UNL     1      -3.366  12.323  19.661  0.00  0.00    +0.000 A 
ATOM      7  C   UNL     1      -2.162  11.965  18.973  0.00  0.00    +0.000 A 
ATOM      8  C   UNL     1      -2.276  11.468  17.691  0.00  0.00    +0.000 A 
ATOM      9  C   UNL     1      -3.573  11.433  17.079  0.00  0.00    +0.000 A 
ATOM     10  C   UNL     1      -4.758  11.923  17.749  0.00  0.00    +0.000 A 
ATOM     11  C   UNL     1      -6.012  12.179  17.115  0.00  0.00    +0.000 A 
ATOM     12  C   UNL     1      -7.157  12.557  17.830  0.00  0.00    +0.000 A 
ATOM     13  C   UNL     1      -7.111  12.586  19.205  0.00  0.00    +0.000 A 
ATOM     14  C   UNL     1      -5.889  12.389  19.844  0.00  0.00    +0.000 A 
ATOM     15  C   UNL     1      -4.682  12.188  19.126  0.00  0.00    +0.000 A 
ENDROOT
BRANCH   9  16
ATOM     16  N   UNL     1      -3.664  11.120  15.694  0.00  0.00    +0.000 N 
ATOM     17  H   UNL     1      -3.726  10.117  15.514  0.00  0.00    +0.000 HD
ATOM     18  H   UNL     1      -4.416  11.620  15.234  0.00  0.00    +0.000 HD
ENDBRANCH   9  16
BRANCH   1  20
ATOM     19  C   UNL     1       0.906   9.934  19.649  0.00  0.00    +0.000 C 
ATOM     20  C   UNL     1       1.219  11.203  19.236  0.00  0.00    +0.000 C 
BRANCH  19  24
ATOM     21  C   UNL     1       2.953   6.058  18.948  0.00  0.00    +0.000 A 
ATOM     22  C   UNL     1       2.815   7.017  17.943  0.00  0.00    +0.000 A 
ATOM     23  C   UNL     1       2.132   8.249  18.158  0.00  0.00    +0.000 A 
ATOM     24  C   UNL     1       1.547   8.576  19.390  0.00  0.00    +0.000 A 
ATOM     25  C   UNL     1       1.621   7.561  20.376  0.00  0.00    +0.000 A 
ATOM     26  C   UNL     1       2.307   6.320  20.159  0.00  0.00    +0.000 A 
BRANCH  21  27
ATOM     27  O   UNL     1       3.672   4.877  18.841  0.00  0.00    +0.000 OA
BRANCH  27  28
ATOM     28  C   UNL     1       5.047   4.922  19.297  0.00  0.00    +0.000 C 
BRANCH  28  29
ATOM     29  C   UNL     1       6.103   4.892  18.142  0.00  0.00    +0.000 C 
BRANCH  29  31
ATOM     30  C   UNL     1       7.412   6.770  17.244  0.00  0.00    +0.000 C 
ATOM     31  N   UNL     1       6.105   6.109  17.276  0.00  0.00    +0.000 NA
ATOM     32  C   UNL     1       5.717   5.794  15.892  0.00  0.00    +0.000 C 
ENDBRANCH  29  31
ENDBRANCH  28  29
ENDBRANCH  27  28
ENDBRANCH  21  27
ENDBRANCH  19  24
ENDBRANCH   1  20
BRANCH   5  33
ATOM     33  C   UNL     1      -3.934  14.280  21.284  0.00  0.00    +0.000 C 
ATOM     34 CL   UNL     1      -4.715  14.065  22.869  0.00  0.00    +0.000 Cl
ENDBRANCH   5  33
TORSDOF 8
ENDMDL
