MODEL 1
REMARK VINA RESULT:      -8.4      0.000      0.000
REMARK  Name = 
REMARK  13 active torsions:
REMARK  status: ('A' for Active; 'I' for Inactive)
REMARK    1  A    between atoms: C_1  and  C_2
REMARK    2  A    between atoms: C_2  and  C_3
REMARK    3  A    between atoms: C_3  and  C_4
REMARK    4  A    between atoms: C_9  and  C_10
REMARK    5  A    between atoms: C_10  and  C_11
REMARK    6  A    between atoms: C_11  and  C_12
REMARK    7  A    between atoms: C_12  and  O_14
REMARK    8  A    between atoms: C_15  and  C_16
REMARK    9  A    between atoms: C_15  and  C_17
REMARK   10  A    between atoms: C_19  and  C_20
REMARK   11  A    between atoms: N_22  and  C_23
REMARK   12  A    between atoms: C_23  and  C_24
REMARK   13  A    between atoms: C_24  and  C_25
REMARK                            x       y       z     vdW  Elec       q    Type
REMARK                         _______ _______ _______ _____ _____    ______ ____
ROOT
ATOM      1  C   UNL     1       4.759   3.893  18.296  0.00  0.00    +0.000 A 
ATOM      2  N   UNL     1       5.238   4.714  17.331  0.00  0.00    +0.000 NA
ATOM      3  C   UNL     1       6.206   5.497  17.937  0.00  0.00    +0.000 A 
ATOM      4  C   UNL     1       6.302   5.126  19.253  0.00  0.00    +0.000 A 
ATOM      5  O   UNL     1       5.417   4.125  19.491  0.00  0.00    +0.000 OA
ENDROOT
BRANCH   1   8
ATOM      6  C   UNL     1       1.334   2.131  18.132  0.00  0.00    +0.000 C 
ATOM      7  C   UNL     1       2.445   3.165  17.970  0.00  0.00    +0.000 C 
ATOM      8  C   UNL     1       3.754   2.849  18.201  0.00  0.00    +0.000 C 
ATOM      9  C   UNL     1       4.178   1.397  18.406  0.00  0.00    +0.000 C 
BRANCH   7  10
ATOM     10  C   UNL     1       2.001   4.532  17.487  0.00  0.00    +0.000 C 
BRANCH  10  11
ATOM     11  C   UNL     1       1.971   5.756  18.401  0.00  0.00    +0.000 A 
ATOM     12  C   UNL     1       2.359   6.972  17.750  0.00  0.00    +0.000 A 
ATOM     13  C   UNL     1       2.381   8.201  18.416  0.00  0.00    +0.000 A 
ATOM     14  C   UNL     1       2.064   8.255  19.759  0.00  0.00    +0.000 A 
ATOM     15  C   UNL     1       1.727   7.082  20.431  0.00  0.00    +0.000 A 
ATOM     16  C   UNL     1       1.655   5.826  19.777  0.00  0.00    +0.000 A 
BRANCH  16  17
ATOM     17  C   UNL     1       1.244   4.671  20.687  0.00  0.00    +0.000 C 
BRANCH  17  18
ATOM     18  C   UNL     1       2.427   4.156  21.493  0.00  0.00    +0.000 C 
BRANCH  18  19
ATOM     19  C   UNL     1       2.529   2.670  21.761  0.00  0.00    +0.000 C 
ATOM     20  O   UNL     1       3.536   1.978  21.712  0.00  0.00    +0.000 OA
BRANCH  19  21
ATOM     21  O   UNL     1       1.309   2.215  22.135  0.00  0.00    +0.000 OA
ATOM     22  H   UNL     1       1.158   2.207  23.104  0.00  0.00    +0.000 HD
ENDBRANCH  19  21
ENDBRANCH  18  19
ENDBRANCH  17  18
ENDBRANCH  16  17
ENDBRANCH  10  11
ENDBRANCH   7  10
ENDBRANCH   1   8
BRANCH   3  23
ATOM     23  C   UNL     1       7.064   6.518  17.322  0.00  0.00    +0.000 C 
ATOM     24  O   UNL     1       7.612   6.316  16.251  0.00  0.00    +0.000 OA
ATOM     25  N   UNL     1       7.193   7.719  18.010  0.00  0.00    +0.000 N 
ATOM     26  H   UNL     1       6.988   7.682  19.002  0.00  0.00    +0.000 HD
BRANCH  25  27
ATOM     27  C   UNL     1       8.003   8.826  17.502  0.00  0.00    +0.000 C 
BRANCH  27  28
ATOM     28  C   UNL     1       8.871   9.508  18.582  0.00  0.00    +0.000 C 
BRANCH  28  29
ATOM     29  C   UNL     1       9.356  10.899  18.228  0.00  0.00    +0.000 A 
ATOM     30  C   UNL     1      10.718  11.218  18.358  0.00  0.00    +0.000 A 
ATOM     31  C   UNL     1      11.177  12.511  18.087  0.00  0.00    +0.000 A 
ATOM     32  C   UNL     1      10.279  13.489  17.670  0.00  0.00    +0.000 A 
ATOM     33 CL   UNL     1      10.826  15.099  17.402  0.00  0.00    +0.000 Cl
ATOM     34  C   UNL     1       8.935  13.175  17.481  0.00  0.00    +0.000 A 
ATOM     35  C   UNL     1       8.477  11.879  17.750  0.00  0.00    +0.000 A 
ENDBRANCH  28  29
ENDBRANCH  27  28
ENDBRANCH  25  27
ENDBRANCH   3  23
TORSDOF 11
ENDMDL
MODEL 2
REMARK VINA RESULT:      -8.3      2.587      3.275
REMARK  Name = 
REMARK  13 active torsions:
REMARK  status: ('A' for Active; 'I' for Inactive)
REMARK    1  A    between atoms: C_1  and  C_2
REMARK    2  A    between atoms: C_2  and  C_3
REMARK    3  A    between atoms: C_3  and  C_4
REMARK    4  A    between atoms: C_9  and  C_10
REMARK    5  A    between atoms: C_10  and  C_11
REMARK    6  A    between atoms: C_11  and  C_12
REMARK    7  A    between atoms: C_12  and  O_14
REMARK    8  A    between atoms: C_15  and  C_16
REMARK    9  A    between atoms: C_15  and  C_17
REMARK   10  A    between atoms: C_19  and  C_20
REMARK   11  A    between atoms: N_22  and  C_23
REMARK   12  A    between atoms: C_23  and  C_24
REMARK   13  A    between atoms: C_24  and  C_25
REMARK                            x       y       z     vdW  Elec       q    Type
REMARK                         _______ _______ _______ _____ _____    ______ ____
ROOT
ATOM      1  C   UNL     1       4.642   4.839  18.426  0.00  0.00    +0.000 A 
ATOM      2  N   UNL     1       5.081   5.896  17.701  0.00  0.00    +0.000 NA
ATOM      3  C   UNL     1       6.416   6.060  18.028  0.00  0.00    +0.000 A 
ATOM      4  C   UNL     1       6.762   5.091  18.933  0.00  0.00    +0.000 A 
ATOM      5  O   UNL     1       5.674   4.319  19.185  0.00  0.00    +0.000 OA
ENDROOT
BRANCH   1   8
ATOM      6  C   UNL     1       1.103   3.820  19.566  0.00  0.00    +0.000 C 
ATOM      7  C   UNL     1       2.381   4.623  19.338  0.00  0.00    +0.000 C 
ATOM      8  C   UNL     1       3.330   4.216  18.443  0.00  0.00    +0.000 C 
ATOM      9  C   UNL     1       3.045   3.071  17.475  0.00  0.00    +0.000 C 
BRANCH   7  10
ATOM     10  C   UNL     1       2.491   5.914  20.125  0.00  0.00    +0.000 C 
BRANCH  10  11
ATOM     11  C   UNL     1       2.060   7.264  19.554  0.00  0.00    +0.000 A 
ATOM     12  C   UNL     1       2.401   7.443  18.174  0.00  0.00    +0.000 A 
ATOM     13  C   UNL     1       2.076   8.607  17.471  0.00  0.00    +0.000 A 
ATOM     14  C   UNL     1       1.446   9.647  18.125  0.00  0.00    +0.000 A 
ATOM     15  C   UNL     1       1.143   9.521  19.478  0.00  0.00    +0.000 A 
ATOM     16  C   UNL     1       1.420   8.340  20.212  0.00  0.00    +0.000 A 
BRANCH  16  17
ATOM     17  C   UNL     1       0.987   8.397  21.676  0.00  0.00    +0.000 C 
BRANCH  17  18
ATOM     18  C   UNL     1      -0.336   9.131  21.831  0.00  0.00    +0.000 C 
BRANCH  18  19
ATOM     19  C   UNL     1      -0.359  10.424  22.619  0.00  0.00    +0.000 C 
ATOM     20  O   UNL     1      -0.052  11.538  22.219  0.00  0.00    +0.000 OA
BRANCH  19  21
ATOM     21  O   UNL     1      -0.845  10.165  23.856  0.00  0.00    +0.000 OA
ATOM     22  H   UNL     1      -1.644   9.596  23.868  0.00  0.00    +0.000 HD
ENDBRANCH  19  21
ENDBRANCH  18  19
ENDBRANCH  17  18
ENDBRANCH  16  17
ENDBRANCH  10  11
ENDBRANCH   7  10
ENDBRANCH   1   8
BRANCH   3  23
ATOM     23  C   UNL     1       7.371   7.036  17.486  0.00  0.00    +0.000 C 
ATOM     24  O   UNL     1       7.899   6.863  16.400  0.00  0.00    +0.000 OA
ATOM     25  N   UNL     1       7.614   8.164  18.262  0.00  0.00    +0.000 N 
ATOM     26  H   UNL     1       7.404   8.073  19.249  0.00  0.00    +0.000 HD
BRANCH  25  27
ATOM     27  C   UNL     1       8.528   9.222  17.833  0.00  0.00    +0.000 C 
BRANCH  27  28
ATOM     28  C   UNL     1       9.225   9.952  19.002  0.00  0.00    +0.000 C 
BRANCH  28  29
ATOM     29  C   UNL     1       9.940  11.232  18.622  0.00  0.00    +0.000 A 
ATOM     30  C   UNL     1      11.232  11.483  19.113  0.00  0.00    +0.000 A 
ATOM     31  C   UNL     1      11.889  12.682  18.816  0.00  0.00    +0.000 A 
ATOM     32  C   UNL     1      11.261  13.632  18.013  0.00  0.00    +0.000 A 
ATOM     33 CL   UNL     1      12.034  15.137  17.702  0.00  0.00    +0.000 Cl
ATOM     34  C   UNL     1      10.004  13.374  17.471  0.00  0.00    +0.000 A 
ATOM     35  C   UNL     1       9.350  12.171  17.767  0.00  0.00    +0.000 A 
ENDBRANCH  28  29
ENDBRANCH  27  28
ENDBRANCH  25  27
ENDBRANCH   3  23
TORSDOF 11
ENDMDL
MODEL 3
REMARK VINA RESULT:      -8.2      2.748      3.526
REMARK  Name = 
REMARK  13 active torsions:
REMARK  status: ('A' for Active; 'I' for Inactive)
REMARK    1  A    between atoms: C_1  and  C_2
REMARK    2  A    between atoms: C_2  and  C_3
REMARK    3  A    between atoms: C_3  and  C_4
REMARK    4  A    between atoms: C_9  and  C_10
REMARK    5  A    between atoms: C_10  and  C_11
REMARK    6  A    between atoms: C_11  and  C_12
REMARK    7  A    between atoms: C_12  and  O_14
REMARK    8  A    between atoms: C_15  and  C_16
REMARK    9  A    between atoms: C_15  and  C_17
REMARK   10  A    between atoms: C_19  and  C_20
REMARK   11  A    between atoms: N_22  and  C_23
REMARK   12  A    between atoms: C_23  and  C_24
REMARK   13  A    between atoms: C_24  and  C_25
REMARK                            x       y       z     vdW  Elec       q    Type
REMARK                         _______ _______ _______ _____ _____    ______ ____
ROOT
ATOM      1  C   UNL     1       3.864   4.470  17.827  0.00  0.00    +0.000 A 
ATOM      2  N   UNL     1       4.820   5.338  18.236  0.00  0.00    +0.000 NA
ATOM      3  C   UNL     1       5.759   5.383  17.220  0.00  0.00    +0.000 A 
ATOM      4  C   UNL     1       5.346   4.553  16.211  0.00  0.00    +0.000 A 
ATOM      5  O   UNL     1       4.167   3.985  16.567  0.00  0.00    +0.000 OA
ENDROOT
BRANCH   1   8
ATOM      6  C   UNL     1       1.071   4.196  20.470  0.00  0.00    +0.000 C 
ATOM      7  C   UNL     1       2.197   4.745  19.598  0.00  0.00    +0.000 C 
ATOM      8  C   UNL     1       2.634   4.075  18.491  0.00  0.00    +0.000 C 
ATOM      9  C   UNL     1       1.861   2.873  17.955  0.00  0.00    +0.000 C 
BRANCH   7  10
ATOM     10  C   UNL     1       2.748   6.094  20.015  0.00  0.00    +0.000 C 
BRANCH  10  11
ATOM     11  C   UNL     1       2.175   7.412  19.496  0.00  0.00    +0.000 A 
ATOM     12  C   UNL     1       2.426   7.645  18.105  0.00  0.00    +0.000 A 
ATOM     13  C   UNL     1       1.968   8.788  17.445  0.00  0.00    +0.000 A 
ATOM     14  C   UNL     1       1.287   9.759  18.152  0.00  0.00    +0.000 A 
ATOM     15  C   UNL     1       1.066   9.583  19.517  0.00  0.00    +0.000 A 
ATOM     16  C   UNL     1       1.481   8.417  20.209  0.00  0.00    +0.000 A 
BRANCH  16  17
ATOM     17  C   UNL     1       1.121   8.411  21.694  0.00  0.00    +0.000 C 
BRANCH  17  18
ATOM     18  C   UNL     1      -0.304   8.892  21.918  0.00  0.00    +0.000 C 
BRANCH  18  19
ATOM     19  C   UNL     1      -0.519  10.270  22.507  0.00  0.00    +0.000 C 
ATOM     20  O   UNL     1      -0.574  11.332  21.903  0.00  0.00    +0.000 OA
BRANCH  19  21
ATOM     21  O   UNL     1      -0.709  10.142  23.842  0.00  0.00    +0.000 OA
ATOM     22  H   UNL     1      -0.028   9.604  24.299  0.00  0.00    +0.000 HD
ENDBRANCH  19  21
ENDBRANCH  18  19
ENDBRANCH  17  18
ENDBRANCH  16  17
ENDBRANCH  10  11
ENDBRANCH   7  10
ENDBRANCH   1   8
BRANCH   3  23
ATOM     23  C   UNL     1       6.973   6.207  17.142  0.00  0.00    +0.000 C 
ATOM     24  O   UNL     1       7.693   6.174  16.157  0.00  0.00    +0.000 OA
ATOM     25  N   UNL     1       7.236   7.032  18.230  0.00  0.00    +0.000 N 
ATOM     26  H   UNL     1       6.796   6.763  19.102  0.00  0.00    +0.000 HD
BRANCH  25  27
ATOM     27  C   UNL     1       8.401   7.915  18.274  0.00  0.00    +0.000 C 
BRANCH  27  28
ATOM     28  C   UNL     1       8.121   9.340  17.748  0.00  0.00    +0.000 C 
BRANCH  28  29
ATOM     29  C   UNL     1       8.896  10.441  18.442  0.00  0.00    +0.000 A 
ATOM     30  C   UNL     1       9.249  10.302  19.794  0.00  0.00    +0.000 A 
ATOM     31  C   UNL     1       9.919  11.329  20.467  0.00  0.00    +0.000 A 
ATOM     32  C   UNL     1      10.253  12.497  19.785  0.00  0.00    +0.000 A 
ATOM     33 CL   UNL     1      11.015  13.793  20.624  0.00  0.00    +0.000 Cl
ATOM     34  C   UNL     1       9.962  12.627  18.429  0.00  0.00    +0.000 A 
ATOM     35  C   UNL     1       9.294  11.596  17.756  0.00  0.00    +0.000 A 
ENDBRANCH  28  29
ENDBRANCH  27  28
ENDBRANCH  25  27
ENDBRANCH   3  23
TORSDOF 11
ENDMDL
MODEL 4
REMARK VINA RESULT:      -7.7      5.927      8.795
REMARK  Name = 
REMARK  13 active torsions:
REMARK  status: ('A' for Active; 'I' for Inactive)
REMARK    1  A    between atoms: C_1  and  C_2
REMARK    2  A    between atoms: C_2  and  C_3
REMARK    3  A    between atoms: C_3  and  C_4
REMARK    4  A    between atoms: C_9  and  C_10
REMARK    5  A    between atoms: C_10  and  C_11
REMARK    6  A    between atoms: C_11  and  C_12
REMARK    7  A    between atoms: C_12  and  O_14
REMARK    8  A    between atoms: C_15  and  C_16
REMARK    9  A    between atoms: C_15  and  C_17
REMARK   10  A    between atoms: C_19  and  C_20
REMARK   11  A    between atoms: N_22  and  C_23
REMARK   12  A    between atoms: C_23  and  C_24
REMARK   13  A    between atoms: C_24  and  C_25
REMARK                            x       y       z     vdW  Elec       q    Type
REMARK                         _______ _______ _______ _____ _____    ______ ____
ROOT
ATOM      1  C   UNL     1       1.183  10.164  19.686  0.00  0.00    +0.000 A 
ATOM      2  N   UNL     1       1.751   9.261  18.851  0.00  0.00    +0.000 NA
ATOM      3  C   UNL     1       1.864   8.086  19.574  0.00  0.00    +0.000 A 
ATOM      4  C   UNL     1       1.351   8.297  20.827  0.00  0.00    +0.000 A 
ATOM      5  O   UNL     1       0.915   9.580  20.911  0.00  0.00    +0.000 OA
ENDROOT
BRANCH   1   8
ATOM      6  C   UNL     1      -0.656  13.243  18.271  0.00  0.00    +0.000 C 
ATOM      7  C   UNL     1      -0.362  11.838  18.791  0.00  0.00    +0.000 C 
ATOM      8  C   UNL     1       0.807  11.544  19.432  0.00  0.00    +0.000 C 
ATOM      9  C   UNL     1       1.762  12.657  19.855  0.00  0.00    +0.000 C 
BRANCH   7  10
ATOM     10  C   UNL     1      -1.471  10.823  18.593  0.00  0.00    +0.000 C 
BRANCH  10  11
ATOM     11  C   UNL     1      -2.842  11.202  18.035  0.00  0.00    +0.000 A 
ATOM     12  C   UNL     1      -3.748  11.709  19.023  0.00  0.00    +0.000 A 
ATOM     13  C   UNL     1      -5.044  12.123  18.704  0.00  0.00    +0.000 A 
ATOM     14  C   UNL     1      -5.499  12.003  17.406  0.00  0.00    +0.000 A 
ATOM     15  C   UNL     1      -4.657  11.471  16.432  0.00  0.00    +0.000 A 
ATOM     16  C   UNL     1      -3.324  11.080  16.712  0.00  0.00    +0.000 A 
BRANCH  16  17
ATOM     17  C   UNL     1      -2.563  10.544  15.501  0.00  0.00    +0.000 C 
BRANCH  17  18
ATOM     18  C   UNL     1      -3.489   9.801  14.552  0.00  0.00    +0.000 C 
BRANCH  18  19
ATOM     19  C   UNL     1      -3.142   9.767  13.078  0.00  0.00    +0.000 C 
ATOM     20  O   UNL     1      -2.098   9.376  12.574  0.00  0.00    +0.000 OA
BRANCH  19  21
ATOM     21  O   UNL     1      -4.217  10.191  12.373  0.00  0.00    +0.000 OA
ATOM     22  H   UNL     1      -4.793   9.471  12.038  0.00  0.00    +0.000 HD
ENDBRANCH  19  21
ENDBRANCH  18  19
ENDBRANCH  17  18
ENDBRANCH  16  17
ENDBRANCH  10  11
ENDBRANCH   7  10
ENDBRANCH   1   8
BRANCH   3  23
ATOM     23  C   UNL     1       2.373   6.785  19.119  0.00  0.00    +0.000 C 
ATOM     24  O   UNL     1       2.335   6.473  17.940  0.00  0.00    +0.000 OA
ATOM     25  N   UNL     1       2.915   5.954  20.093  0.00  0.00    +0.000 N 
ATOM     26  H   UNL     1       2.617   6.138  21.044  0.00  0.00    +0.000 HD
BRANCH  25  27
ATOM     27  C   UNL     1       3.472   4.640  19.774  0.00  0.00    +0.000 C 
BRANCH  27  28
ATOM     28  C   UNL     1       5.005   4.644  19.586  0.00  0.00    +0.000 C 
BRANCH  28  29
ATOM     29  C   UNL     1       5.472   4.738  18.147  0.00  0.00    +0.000 A 
ATOM     30  C   UNL     1       4.759   4.074  17.136  0.00  0.00    +0.000 A 
ATOM     31  C   UNL     1       5.202   4.105  15.811  0.00  0.00    +0.000 A 
ATOM     32  C   UNL     1       6.357   4.814  15.486  0.00  0.00    +0.000 A 
ATOM     33 CL   UNL     1       6.947   4.799  13.869  0.00  0.00    +0.000 Cl
ATOM     34  C   UNL     1       7.043   5.526  16.467  0.00  0.00    +0.000 A 
ATOM     35  C   UNL     1       6.595   5.496  17.793  0.00  0.00    +0.000 A 
ENDBRANCH  28  29
ENDBRANCH  27  28
ENDBRANCH  25  27
ENDBRANCH   3  23
TORSDOF 11
ENDMDL
MODEL 5
REMARK VINA RESULT:      -7.7      6.117      8.762
REMARK  Name = 
REMARK  13 active torsions:
REMARK  status: ('A' for Active; 'I' for Inactive)
REMARK    1  A    between atoms: C_1  and  C_2
REMARK    2  A    between atoms: C_2  and  C_3
REMARK    3  A    between atoms: C_3  and  C_4
REMARK    4  A    between atoms: C_9  and  C_10
REMARK    5  A    between atoms: C_10  and  C_11
REMARK    6  A    between atoms: C_11  and  C_12
REMARK    7  A    between atoms: C_12  and  O_14
REMARK    8  A    between atoms: C_15  and  C_16
REMARK    9  A    between atoms: C_15  and  C_17
REMARK   10  A    between atoms: C_19  and  C_20
REMARK   11  A    between atoms: N_22  and  C_23
REMARK   12  A    between atoms: C_23  and  C_24
REMARK   13  A    between atoms: C_24  and  C_25
REMARK                            x       y       z     vdW  Elec       q    Type
REMARK                         _______ _______ _______ _____ _____    ______ ____
ROOT
ATOM      1  C   UNL     1       1.125   9.848  19.343  0.00  0.00    +0.000 A 
ATOM      2  N   UNL     1       1.383   8.703  20.019  0.00  0.00    +0.000 NA
ATOM      3  C   UNL     1       1.993   7.851  19.114  0.00  0.00    +0.000 A 
ATOM      4  C   UNL     1       2.104   8.502  17.913  0.00  0.00    +0.000 A 
ATOM      5  O   UNL     1       1.578   9.746  18.040  0.00  0.00    +0.000 OA
ENDROOT
BRANCH   1   8
ATOM      6  C   UNL     1      -1.376  12.744  19.814  0.00  0.00    +0.000 C 
ATOM      7  C   UNL     1      -0.789  11.355  19.572  0.00  0.00    +0.000 C 
ATOM      8  C   UNL     1       0.526  11.083  19.818  0.00  0.00    +0.000 C 
ATOM      9  C   UNL     1       1.402  12.090  20.559  0.00  0.00    +0.000 C 
BRANCH   7  10
ATOM     10  C   UNL     1      -1.773  10.304  19.097  0.00  0.00    +0.000 C 
BRANCH  10  11
ATOM     11  C   UNL     1      -2.604  10.471  17.826  0.00  0.00    +0.000 A 
ATOM     12  C   UNL     1      -1.997   9.901  16.660  0.00  0.00    +0.000 A 
ATOM     13  C   UNL     1      -2.610   9.939  15.404  0.00  0.00    +0.000 A 
ATOM     14  C   UNL     1      -3.822  10.584  15.256  0.00  0.00    +0.000 A 
ATOM     15  C   UNL     1      -4.416  11.188  16.362  0.00  0.00    +0.000 A 
ATOM     16  C   UNL     1      -3.842  11.133  17.657  0.00  0.00    +0.000 A 
BRANCH  16  17
ATOM     17  C   UNL     1      -4.664  11.837  18.735  0.00  0.00    +0.000 C 
BRANCH  17  18
ATOM     18  C   UNL     1      -5.957  11.089  19.019  0.00  0.00    +0.000 C 
BRANCH  18  19
ATOM     19  C   UNL     1      -6.867  11.606  20.113  0.00  0.00    +0.000 C 
ATOM     20  O   UNL     1      -6.868  11.277  21.291  0.00  0.00    +0.000 OA
BRANCH  19  21
ATOM     21  O   UNL     1      -7.668  12.565  19.589  0.00  0.00    +0.000 OA
ATOM     22  H   UNL     1      -7.626  12.639  18.611  0.00  0.00    +0.000 HD
ENDBRANCH  19  21
ENDBRANCH  18  19
ENDBRANCH  17  18
ENDBRANCH  16  17
ENDBRANCH  10  11
ENDBRANCH   7  10
ENDBRANCH   1   8
BRANCH   3  23
ATOM     23  C   UNL     1       2.516   6.499  19.351  0.00  0.00    +0.000 C 
ATOM     24  O   UNL     1       1.763   5.545  19.469  0.00  0.00    +0.000 OA
ATOM     25  N   UNL     1       3.899   6.368  19.407  0.00  0.00    +0.000 N 
ATOM     26  H   UNL     1       4.412   7.214  19.625  0.00  0.00    +0.000 HD
BRANCH  25  27
ATOM     27  C   UNL     1       4.552   5.077  19.620  0.00  0.00    +0.000 C 
BRANCH  27  28
ATOM     28  C   UNL     1       5.980   4.999  19.037  0.00  0.00    +0.000 C 
BRANCH  28  29
ATOM     29  C   UNL     1       6.049   4.743  17.545  0.00  0.00    +0.000 A 
ATOM     30  C   UNL     1       4.951   4.169  16.884  0.00  0.00    +0.000 A 
ATOM     31  C   UNL     1       5.013   3.877  15.518  0.00  0.00    +0.000 A 
ATOM     32  C   UNL     1       6.171   4.171  14.801  0.00  0.00    +0.000 A 
ATOM     33 CL   UNL     1       6.280   3.750  13.136  0.00  0.00    +0.000 Cl
ATOM     34  C   UNL     1       7.247   4.793  15.430  0.00  0.00    +0.000 A 
ATOM     35  C   UNL     1       7.182   5.088  16.798  0.00  0.00    +0.000 A 
ENDBRANCH  28  29
ENDBRANCH  27  28
ENDBRANCH  25  27
ENDBRANCH   3  23
TORSDOF 11
ENDMDL
MODEL 6
REMARK VINA RESULT:      -7.6      4.984      8.463
REMARK  Name = 
REMARK  13 active torsions:
REMARK  status: ('A' for Active; 'I' for Inactive)
REMARK    1  A    between atoms: C_1  and  C_2
REMARK    2  A    between atoms: C_2  and  C_3
REMARK    3  A    between atoms: C_3  and  C_4
REMARK    4  A    between atoms: C_9  and  C_10
REMARK    5  A    between atoms: C_10  and  C_11
REMARK    6  A    between atoms: C_11  and  C_12
REMARK    7  A    between atoms: C_12  and  O_14
REMARK    8  A    between atoms: C_15  and  C_16
REMARK    9  A    between atoms: C_15  and  C_17
REMARK   10  A    between atoms: C_19  and  C_20
REMARK   11  A    between atoms: N_22  and  C_23
REMARK   12  A    between atoms: C_23  and  C_24
REMARK   13  A    between atoms: C_24  and  C_25
REMARK                            x       y       z     vdW  Elec       q    Type
REMARK                         _______ _______ _______ _____ _____    ______ ____
ROOT
ATOM      1  C   UNL     1       2.485   5.802  19.428  0.00  0.00    +0.000 A 
ATOM      2  N   UNL     1       2.122   6.875  20.171  0.00  0.00    +0.000 NA
ATOM      3  C   UNL     1       1.888   7.903  19.275  0.00  0.00    +0.000 A 
ATOM      4  C   UNL     1       2.099   7.429  18.006  0.00  0.00    +0.000 A 
ATOM      5  O   UNL     1       2.462   6.123  18.083  0.00  0.00    +0.000 OA
ENDROOT
BRANCH   1   8
ATOM      6  C   UNL     1       4.344   2.447  19.816  0.00  0.00    +0.000 C 
ATOM      7  C   UNL     1       4.053   3.934  19.629  0.00  0.00    +0.000 C 
ATOM      8  C   UNL     1       2.811   4.453  19.856  0.00  0.00    +0.000 C 
ATOM      9  C   UNL     1       1.728   3.610  20.525  0.00  0.00    +0.000 C 
BRANCH   7  10
ATOM     10  C   UNL     1       5.242   4.788  19.230  0.00  0.00    +0.000 C 
BRANCH  10  11
ATOM     11  C   UNL     1       5.706   4.924  17.781  0.00  0.00    +0.000 A 
ATOM     12  C   UNL     1       4.995   4.082  16.864  0.00  0.00    +0.000 A 
ATOM     13  C   UNL     1       5.266   4.076  15.493  0.00  0.00    +0.000 A 
ATOM     14  C   UNL     1       6.280   4.869  14.994  0.00  0.00    +0.000 A 
ATOM     15  C   UNL     1       7.019   5.665  15.866  0.00  0.00    +0.000 A 
ATOM     16  C   UNL     1       6.745   5.727  17.256  0.00  0.00    +0.000 A 
BRANCH  16  17
ATOM     17  C   UNL     1       7.655   6.678  18.031  0.00  0.00    +0.000 C 
BRANCH  17  18
ATOM     18  C   UNL     1       7.470   8.115  17.570  0.00  0.00    +0.000 C 
BRANCH  18  19
ATOM     19  C   UNL     1       8.348   9.189  18.178  0.00  0.00    +0.000 C 
ATOM     20  O   UNL     1       8.432  10.359  17.831  0.00  0.00    +0.000 OA
BRANCH  19  21
ATOM     21  O   UNL     1       9.005   8.659  19.238  0.00  0.00    +0.000 OA
ATOM     22  H   UNL     1       9.323   7.741  19.100  0.00  0.00    +0.000 HD
ENDBRANCH  19  21
ENDBRANCH  18  19
ENDBRANCH  17  18
ENDBRANCH  16  17
ENDBRANCH  10  11
ENDBRANCH   7  10
ENDBRANCH   1   8
BRANCH   3  23
ATOM     23  C   UNL     1       1.424   9.268  19.559  0.00  0.00    +0.000 C 
ATOM     24  O   UNL     1       1.562  10.162  18.739  0.00  0.00    +0.000 OA
ATOM     25  N   UNL     1       0.808   9.472  20.788  0.00  0.00    +0.000 N 
ATOM     26  H   UNL     1       1.025   8.792  21.508  0.00  0.00    +0.000 HD
BRANCH  25  27
ATOM     27  C   UNL     1       0.285  10.777  21.190  0.00  0.00    +0.000 C 
BRANCH  27  28
ATOM     28  C   UNL     1      -0.501  10.748  22.519  0.00  0.00    +0.000 C 
BRANCH  28  29
ATOM     29  C   UNL     1      -1.273  12.014  22.834  0.00  0.00    +0.000 A 
ATOM     30  C   UNL     1      -0.670  13.267  22.633  0.00  0.00    +0.000 A 
ATOM     31  C   UNL     1      -1.345  14.446  22.966  0.00  0.00    +0.000 A 
ATOM     32  C   UNL     1      -2.634  14.378  23.489  0.00  0.00    +0.000 A 
ATOM     33 CL   UNL     1      -3.444  15.820  23.965  0.00  0.00    +0.000 Cl
ATOM     34  C   UNL     1      -3.268  13.147  23.639  0.00  0.00    +0.000 A 
ATOM     35  C   UNL     1      -2.592  11.968  23.303  0.00  0.00    +0.000 A 
ENDBRANCH  28  29
ENDBRANCH  27  28
ENDBRANCH  25  27
ENDBRANCH   3  23
TORSDOF 11
ENDMDL
MODEL 7
REMARK VINA RESULT:      -7.5      4.987      8.492
REMARK  Name = 
REMARK  13 active torsions:
REMARK  status: ('A' for Active; 'I' for Inactive)
REMARK    1  A    between atoms: C_1  and  C_2
REMARK    2  A    between atoms: C_2  and  C_3
REMARK    3  A    between atoms: C_3  and  C_4
REMARK    4  A    between atoms: C_9  and  C_10
REMARK    5  A    between atoms: C_10  and  C_11
REMARK    6  A    between atoms: C_11  and  C_12
REMARK    7  A    between atoms: C_12  and  O_14
REMARK    8  A    between atoms: C_15  and  C_16
REMARK    9  A    between atoms: C_15  and  C_17
REMARK   10  A    between atoms: C_19  and  C_20
REMARK   11  A    between atoms: N_22  and  C_23
REMARK   12  A    between atoms: C_23  and  C_24
REMARK   13  A    between atoms: C_24  and  C_25
REMARK                            x       y       z     vdW  Elec       q    Type
REMARK                         _______ _______ _______ _____ _____    ______ ____
ROOT
ATOM      1  C   UNL     1       2.355   5.484  18.922  0.00  0.00    +0.000 A 
ATOM      2  N   UNL     1       1.873   6.024  20.067  0.00  0.00    +0.000 NA
ATOM      3  C   UNL     1       1.966   7.397  19.915  0.00  0.00    +0.000 A 
ATOM      4  C   UNL     1       2.490   7.661  18.676  0.00  0.00    +0.000 A 
ATOM      5  O   UNL     1       2.730   6.484  18.043  0.00  0.00    +0.000 OA
ENDROOT
BRANCH   1   8
ATOM      6  C   UNL     1       3.858   2.082  17.907  0.00  0.00    +0.000 C 
ATOM      7  C   UNL     1       3.666   3.450  18.558  0.00  0.00    +0.000 C 
ATOM      8  C   UNL     1       2.459   4.088  18.535  0.00  0.00    +0.000 C 
ATOM      9  C   UNL     1       1.204   3.360  18.062  0.00  0.00    +0.000 C 
BRANCH   7  10
ATOM     10  C   UNL     1       4.882   4.013  19.267  0.00  0.00    +0.000 C 
BRANCH  10  11
ATOM     11  C   UNL     1       5.869   4.957  18.582  0.00  0.00    +0.000 A 
ATOM     12  C   UNL     1       6.792   5.581  19.482  0.00  0.00    +0.000 A 
ATOM     13  C   UNL     1       7.781   6.466  19.043  0.00  0.00    +0.000 A 
ATOM     14  C   UNL     1       7.856   6.797  17.704  0.00  0.00    +0.000 A 
ATOM     15  C   UNL     1       6.943   6.242  16.810  0.00  0.00    +0.000 A 
ATOM     16  C   UNL     1       5.954   5.310  17.215  0.00  0.00    +0.000 A 
BRANCH  16  17
ATOM     17  C   UNL     1       5.069   4.804  16.077  0.00  0.00    +0.000 C 
BRANCH  17  18
ATOM     18  C   UNL     1       5.779   3.735  15.261  0.00  0.00    +0.000 C 
BRANCH  18  19
ATOM     19  C   UNL     1       6.433   4.135  13.955  0.00  0.00    +0.000 C 
ATOM     20  O   UNL     1       7.110   5.131  13.743  0.00  0.00    +0.000 OA
BRANCH  19  21
ATOM     21  O   UNL     1       6.199   3.163  13.041  0.00  0.00    +0.000 OA
ATOM     22  H   UNL     1       6.912   3.052  12.376  0.00  0.00    +0.000 HD
ENDBRANCH  19  21
ENDBRANCH  18  19
ENDBRANCH  17  18
ENDBRANCH  16  17
ENDBRANCH  10  11
ENDBRANCH   7  10
ENDBRANCH   1   8
BRANCH   3  23
ATOM     23  C   UNL     1       1.534   8.446  20.848  0.00  0.00    +0.000 C 
ATOM     24  O   UNL     1       1.837   8.400  22.029  0.00  0.00    +0.000 OA
ATOM     25  N   UNL     1       0.791   9.490  20.309  0.00  0.00    +0.000 N 
ATOM     26  H   UNL     1       0.321   9.290  19.434  0.00  0.00    +0.000 HD
BRANCH  25  27
ATOM     27  C   UNL     1       0.313  10.607  21.123  0.00  0.00    +0.000 C 
BRANCH  27  28
ATOM     28  C   UNL     1      -0.322  11.749  20.299  0.00  0.00    +0.000 C 
BRANCH  28  29
ATOM     29  C   UNL     1      -1.726  12.136  20.718  0.00  0.00    +0.000 A 
ATOM     30  C   UNL     1      -2.032  12.286  22.081  0.00  0.00    +0.000 A 
ATOM     31  C   UNL     1      -3.333  12.591  22.491  0.00  0.00    +0.000 A 
ATOM     32  C   UNL     1      -4.335  12.762  21.539  0.00  0.00    +0.000 A 
ATOM     33 CL   UNL     1      -5.953  13.068  22.039  0.00  0.00    +0.000 Cl
ATOM     34  C   UNL     1      -4.036  12.673  20.181  0.00  0.00    +0.000 A 
ATOM     35  C   UNL     1      -2.731  12.371  19.772  0.00  0.00    +0.000 A 
ENDBRANCH  28  29
ENDBRANCH  27  28
ENDBRANCH  25  27
ENDBRANCH   3  23
TORSDOF 11
ENDMDL
MODEL 8
REMARK VINA RESULT:      -7.4      5.059      8.343
REMARK  Name = 
REMARK  13 active torsions:
REMARK  status: ('A' for Active; 'I' for Inactive)
REMARK    1  A    between atoms: C_1  and  C_2
REMARK    2  A    between atoms: C_2  and  C_3
REMARK    3  A    between atoms: C_3  and  C_4
REMARK    4  A    between atoms: C_9  and  C_10
REMARK    5  A    between atoms: C_10  and  C_11
REMARK    6  A    between atoms: C_11  and  C_12
REMARK    7  A    between atoms: C_12  and  O_14
REMARK    8  A    between atoms: C_15  and  C_16
REMARK    9  A    between atoms: C_15  and  C_17
REMARK   10  A    between atoms: C_19  and  C_20
REMARK   11  A    between atoms: N_22  and  C_23
REMARK   12  A    between atoms: C_23  and  C_24
REMARK   13  A    between atoms: C_24  and  C_25
REMARK                            x       y       z     vdW  Elec       q    Type
REMARK                         _______ _______ _______ _____ _____    ______ ____
ROOT
ATOM      1  C   UNL     1       2.075   5.320  19.576  0.00  0.00    +0.000 A 
ATOM      2  N   UNL     1       2.070   6.221  18.565  0.00  0.00    +0.000 NA
ATOM      3  C   UNL     1       1.870   7.459  19.153  0.00  0.00    +0.000 A 
ATOM      4  C   UNL     1       1.772   7.283  20.509  0.00  0.00    +0.000 A 
ATOM      5  O   UNL     1       1.906   5.962  20.790  0.00  0.00    +0.000 OA
ENDROOT
BRANCH   1   8
ATOM      6  C   UNL     1       2.723   1.772  18.215  0.00  0.00    +0.000 C 
ATOM      7  C   UNL     1       2.754   3.288  18.394  0.00  0.00    +0.000 C 
ATOM      8  C   UNL     1       2.279   3.883  19.527  0.00  0.00    +0.000 C 
ATOM      9  C   UNL     1       1.912   3.045  20.749  0.00  0.00    +0.000 C 
BRANCH   7  10
ATOM     10  C   UNL     1       3.391   4.067  17.260  0.00  0.00    +0.000 C 
BRANCH  10  11
ATOM     11  C   UNL     1       4.893   4.339  17.193  0.00  0.00    +0.000 A 
ATOM     12  C   UNL     1       5.509   4.504  18.476  0.00  0.00    +0.000 A 
ATOM     13  C   UNL     1       6.878   4.746  18.622  0.00  0.00    +0.000 A 
ATOM     14  C   UNL     1       7.671   4.878  17.499  0.00  0.00    +0.000 A 
ATOM     15  C   UNL     1       7.093   4.768  16.236  0.00  0.00    +0.000 A 
ATOM     16  C   UNL     1       5.717   4.483  16.052  0.00  0.00    +0.000 A 
BRANCH  16  17
ATOM     17  C   UNL     1       5.290   4.380  14.589  0.00  0.00    +0.000 C 
BRANCH  17  18
ATOM     18  C   UNL     1       6.409   3.820  13.726  0.00  0.00    +0.000 C 
BRANCH  18  19
ATOM     19  C   UNL     1       6.066   3.281  12.354  0.00  0.00    +0.000 C 
ATOM     20  O   UNL     1       6.802   2.665  11.596  0.00  0.00    +0.000 OA
BRANCH  19  21
ATOM     21  O   UNL     1       4.759   3.538  12.105  0.00  0.00    +0.000 OA
ATOM     22  H   UNL     1       4.594   4.383  11.636  0.00  0.00    +0.000 HD
ENDBRANCH  19  21
ENDBRANCH  18  19
ENDBRANCH  17  18
ENDBRANCH  16  17
ENDBRANCH  10  11
ENDBRANCH   7  10
ENDBRANCH   1   8
BRANCH   3  23
ATOM     23  C   UNL     1       1.828   8.776  18.505  0.00  0.00    +0.000 C 
ATOM     24  O   UNL     1       2.324   8.951  17.404  0.00  0.00    +0.000 OA
ATOM     25  N   UNL     1       1.178   9.790  19.199  0.00  0.00    +0.000 N 
ATOM     26  H   UNL     1       1.094   9.655  20.200  0.00  0.00    +0.000 HD
BRANCH  25  27
ATOM     27  C   UNL     1       1.049  11.144  18.660  0.00  0.00    +0.000 C 
BRANCH  27  28
ATOM     28  C   UNL     1       0.008  12.011  19.402  0.00  0.00    +0.000 C 
BRANCH  28  29
ATOM     29  C   UNL     1      -1.425  11.817  18.950  0.00  0.00    +0.000 A 
ATOM     30  C   UNL     1      -2.475  12.371  19.701  0.00  0.00    +0.000 A 
ATOM     31  C   UNL     1      -3.807  12.160  19.330  0.00  0.00    +0.000 A 
ATOM     32  C   UNL     1      -4.096  11.404  18.196  0.00  0.00    +0.000 A 
ATOM     33 CL   UNL     1      -5.732  11.082  17.773  0.00  0.00    +0.000 Cl
ATOM     34  C   UNL     1      -3.065  10.897  17.408  0.00  0.00    +0.000 A 
ATOM     35  C   UNL     1      -1.731  11.112  17.779  0.00  0.00    +0.000 A 
ENDBRANCH  28  29
ENDBRANCH  27  28
ENDBRANCH  25  27
ENDBRANCH   3  23
TORSDOF 11
ENDMDL
MODEL 9
REMARK VINA RESULT:      -7.4      4.491      8.025
REMARK  Name = 
REMARK  13 active torsions:
REMARK  status: ('A' for Active; 'I' for Inactive)
REMARK    1  A    between atoms: C_1  and  C_2
REMARK    2  A    between atoms: C_2  and  C_3
REMARK    3  A    between atoms: C_3  and  C_4
REMARK    4  A    between atoms: C_9  and  C_10
REMARK    5  A    between atoms: C_10  and  C_11
REMARK    6  A    between atoms: C_11  and  C_12
REMARK    7  A    between atoms: C_12  and  O_14
REMARK    8  A    between atoms: C_15  and  C_16
REMARK    9  A    between atoms: C_15  and  C_17
REMARK   10  A    between atoms: C_19  and  C_20
REMARK   11  A    between atoms: N_22  and  C_23
REMARK   12  A    between atoms: C_23  and  C_24
REMARK   13  A    between atoms: C_24  and  C_25
REMARK                            x       y       z     vdW  Elec       q    Type
REMARK                         _______ _______ _______ _____ _____    ______ ____
ROOT
ATOM      1  C   UNL     1       2.383   5.357  18.852  0.00  0.00    +0.000 A 
ATOM      2  N   UNL     1       1.854   5.988  19.928  0.00  0.00    +0.000 NA
ATOM      3  C   UNL     1       2.020   7.343  19.700  0.00  0.00    +0.000 A 
ATOM      4  C   UNL     1       2.633   7.506  18.485  0.00  0.00    +0.000 A 
ATOM      5  O   UNL     1       2.858   6.283  17.941  0.00  0.00    +0.000 OA
ENDROOT
BRANCH   1   8
ATOM      6  C   UNL     1       3.787   1.851  18.080  0.00  0.00    +0.000 C 
ATOM      7  C   UNL     1       3.631   3.263  18.639  0.00  0.00    +0.000 C 
ATOM      8  C   UNL     1       2.446   3.936  18.556  0.00  0.00    +0.000 C 
ATOM      9  C   UNL     1       1.174   3.219  18.111  0.00  0.00    +0.000 C 
BRANCH   7  10
ATOM     10  C   UNL     1       4.855   3.831  19.330  0.00  0.00    +0.000 C 
BRANCH  10  11
ATOM     11  C   UNL     1       5.848   4.749  18.618  0.00  0.00    +0.000 A 
ATOM     12  C   UNL     1       6.713   5.465  19.508  0.00  0.00    +0.000 A 
ATOM     13  C   UNL     1       7.698   6.343  19.046  0.00  0.00    +0.000 A 
ATOM     14  C   UNL     1       7.826   6.573  17.691  0.00  0.00    +0.000 A 
ATOM     15  C   UNL     1       6.969   5.926  16.803  0.00  0.00    +0.000 A 
ATOM     16  C   UNL     1       5.987   5.000  17.234  0.00  0.00    +0.000 A 
BRANCH  16  17
ATOM     17  C   UNL     1       5.169   4.384  16.100  0.00  0.00    +0.000 C 
BRANCH  17  18
ATOM     18  C   UNL     1       5.477   5.055  14.771  0.00  0.00    +0.000 C 
BRANCH  18  19
ATOM     19  C   UNL     1       6.389   4.343  13.795  0.00  0.00    +0.000 C 
ATOM     20  O   UNL     1       7.241   4.849  13.076  0.00  0.00    +0.000 OA
BRANCH  19  21
ATOM     21  O   UNL     1       6.158   3.012  13.882  0.00  0.00    +0.000 OA
ATOM     22  H   UNL     1       5.632   2.741  14.665  0.00  0.00    +0.000 HD
ENDBRANCH  19  21
ENDBRANCH  18  19
ENDBRANCH  17  18
ENDBRANCH  16  17
ENDBRANCH  10  11
ENDBRANCH   7  10
ENDBRANCH   1   8
BRANCH   3  23
ATOM     23  C   UNL     1       1.579   8.466  20.538  0.00  0.00    +0.000 C 
ATOM     24  O   UNL     1       1.559   8.372  21.755  0.00  0.00    +0.000 OA
ATOM     25  N   UNL     1       1.216   9.632  19.875  0.00  0.00    +0.000 N 
ATOM     26  H   UNL     1       0.953   9.521  18.902  0.00  0.00    +0.000 HD
BRANCH  25  27
ATOM     27  C   UNL     1       0.774  10.830  20.589  0.00  0.00    +0.000 C 
BRANCH  27  28
ATOM     28  C   UNL     1      -0.761  10.987  20.649  0.00  0.00    +0.000 C 
BRANCH  28  29
ATOM     29  C   UNL     1      -1.463  10.926  19.307  0.00  0.00    +0.000 A 
ATOM     30  C   UNL     1      -2.584  11.738  19.068  0.00  0.00    +0.000 A 
ATOM     31  C   UNL     1      -3.277  11.659  17.856  0.00  0.00    +0.000 A 
ATOM     32  C   UNL     1      -2.844  10.777  16.870  0.00  0.00    +0.000 A 
ATOM     33 CL   UNL     1      -3.732  10.625  15.404  0.00  0.00    +0.000 Cl
ATOM     34  C   UNL     1      -1.700  10.007  17.069  0.00  0.00    +0.000 A 
ATOM     35  C   UNL     1      -1.005  10.090  18.282  0.00  0.00    +0.000 A 
ENDBRANCH  28  29
ENDBRANCH  27  28
ENDBRANCH  25  27
ENDBRANCH   3  23
TORSDOF 11
ENDMDL
