MODEL 1
REMARK VINA RESULT:      -8.4      0.000      0.000
REMARK  Name = 
REMARK  3 active torsions:
REMARK  status: ('A' for Active; 'I' for Inactive)
REMARK    1  A    between atoms: N_5  and  C_6
REMARK    2  A    between atoms: C_14  and  N_15
REMARK    3  A    between atoms: C_19  and  C_20
REMARK                            x       y       z     vdW  Elec       q    Type
REMARK                         _______ _______ _______ _____ _____    ______ ____
ROOT
ATOM      1  O   UNL     1       2.635   8.519  17.061  0.00  0.00    +0.000 OA
ATOM      2  C   UNL     1       2.288   8.187  18.189  0.00  0.00    +0.000 A 
ATOM      3  N   UNL     1       2.559   6.954  18.716  0.00  0.00    +0.000 NA
ATOM      4  C   UNL     1       2.234   6.688  19.930  0.00  0.00    +0.000 A 
ATOM      5  N   UNL     1       2.508   5.559  20.636  0.00  0.00    +0.000 N 
ATOM      6  O   UNL     1       1.548   7.566  20.761  0.00  0.00    +0.000 OA
ATOM      7  C   UNL     1       1.161   8.815  20.276  0.00  0.00    +0.000 A 
ATOM      8  C   UNL     1       0.418   9.714  21.060  0.00  0.00    +0.000 A 
ATOM      9  C   UNL     1       0.098  10.990  20.552  0.00  0.00    +0.000 A 
ATOM     10  C   UNL     1       0.515  11.375  19.268  0.00  0.00    +0.000 A 
ATOM     11  C   UNL     1       1.242  10.455  18.494  0.00  0.00    +0.000 A 
ATOM     12  C   UNL     1       1.549   9.179  18.996  0.00  0.00    +0.000 A 
ATOM     13  H   UNL     1       2.138   5.602  21.582  0.00  0.00    +0.000 HD
ENDROOT
BRANCH   5  14
ATOM     14  C   UNL     1       2.777   4.194  20.203  0.00  0.00    +0.000 C 
ATOM     15  C   UNL     1       1.501   3.542  19.652  0.00  0.00    +0.000 C 
ATOM     16  C   UNL     1       1.398   3.541  18.132  0.00  0.00    +0.000 C 
ATOM     17  C   UNL     1       2.652   2.945  17.512  0.00  0.00    +0.000 C 
ATOM     18  C   UNL     1       3.863   3.796  17.868  0.00  0.00    +0.000 C 
ATOM     19  C   UNL     1       4.049   3.967  19.377  0.00  0.00    +0.000 C 
ENDBRANCH   5  14
BRANCH  10  20
ATOM     20  C   UNL     1       0.202  12.752  18.718  0.00  0.00    +0.000 C 
ATOM     21  F   UNL     1      -0.115  13.656  19.685  0.00  0.00    +0.000 F 
ATOM     22  F   UNL     1       1.250  13.284  18.035  0.00  0.00    +0.000 F 
ATOM     23  F   UNL     1      -0.849  12.738  17.857  0.00  0.00    +0.000 F 
ENDBRANCH  10  20
BRANCH   8  24
ATOM     24  N   UNL     1      -0.060   9.366  22.406  0.00  0.00    +0.000 N 
ATOM     25  O   UNL     1      -0.914   8.477  22.526  0.00  0.00    +0.000 OA
ATOM     26  O   UNL     1       0.418   9.997  23.359  0.00  0.00    +0.000 OA
ENDBRANCH   8  24
TORSDOF 3
ENDMDL
MODEL 2
REMARK VINA RESULT:      -8.3      0.765      1.170
REMARK  Name = 
REMARK  3 active torsions:
REMARK  status: ('A' for Active; 'I' for Inactive)
REMARK    1  A    between atoms: N_5  and  C_6
REMARK    2  A    between atoms: C_14  and  N_15
REMARK    3  A    between atoms: C_19  and  C_20
REMARK                            x       y       z     vdW  Elec       q    Type
REMARK                         _______ _______ _______ _____ _____    ______ ____
ROOT
ATOM      1  O   UNL     1       2.248   9.109  17.076  0.00  0.00    +0.000 OA
ATOM      2  C   UNL     1       1.995   8.687  18.199  0.00  0.00    +0.000 A 
ATOM      3  N   UNL     1       2.397   7.456  18.637  0.00  0.00    +0.000 NA
ATOM      4  C   UNL     1       2.166   7.097  19.848  0.00  0.00    +0.000 A 
ATOM      5  N   UNL     1       2.573   5.959  20.470  0.00  0.00    +0.000 N 
ATOM      6  O   UNL     1       1.459   7.866  20.765  0.00  0.00    +0.000 OA
ATOM      7  C   UNL     1       0.943   9.102  20.376  0.00  0.00    +0.000 A 
ATOM      8  C   UNL     1       0.175   9.890  21.251  0.00  0.00    +0.000 A 
ATOM      9  C   UNL     1      -0.278  11.159  20.837  0.00  0.00    +0.000 A 
ATOM     10  C   UNL     1       0.031  11.648  19.557  0.00  0.00    +0.000 A 
ATOM     11  C   UNL     1       0.785  10.837  18.693  0.00  0.00    +0.000 A 
ATOM     12  C   UNL     1       1.225   9.567  19.101  0.00  0.00    +0.000 A 
ATOM     13  H   UNL     1       2.257   5.918  21.435  0.00  0.00    +0.000 HD
ENDROOT
BRANCH   5  14
ATOM     14  C   UNL     1       2.929   4.648  19.943  0.00  0.00    +0.000 C 
ATOM     15  C   UNL     1       2.378   3.536  20.848  0.00  0.00    +0.000 C 
ATOM     16  C   UNL     1       1.085   2.903  20.353  0.00  0.00    +0.000 C 
ATOM     17  C   UNL     1       1.234   2.439  18.914  0.00  0.00    +0.000 C 
ATOM     18  C   UNL     1       1.510   3.631  18.008  0.00  0.00    +0.000 C 
ATOM     19  C   UNL     1       2.742   4.431  18.437  0.00  0.00    +0.000 C 
ENDBRANCH   5  14
BRANCH  10  20
ATOM     20  C   UNL     1      -0.426  13.021  19.107  0.00  0.00    +0.000 C 
ATOM     21  F   UNL     1       0.533  13.978  19.245  0.00  0.00    +0.000 F 
ATOM     22  F   UNL     1      -0.790  13.039  17.798  0.00  0.00    +0.000 F 
ATOM     23  F   UNL     1      -1.502  13.463  19.810  0.00  0.00    +0.000 F 
ENDBRANCH  10  20
BRANCH   8  24
ATOM     24  N   UNL     1      -0.193   9.428  22.597  0.00  0.00    +0.000 N 
ATOM     25  O   UNL     1      -1.011   8.506  22.710  0.00  0.00    +0.000 OA
ATOM     26  O   UNL     1       0.335  10.004  23.558  0.00  0.00    +0.000 OA
ENDBRANCH   8  24
TORSDOF 3
ENDMDL
MODEL 3
REMARK VINA RESULT:      -8.3      0.157      1.009
REMARK  Name = 
REMARK  3 active torsions:
REMARK  status: ('A' for Active; 'I' for Inactive)
REMARK    1  A    between atoms: N_5  and  C_6
REMARK    2  A    between atoms: C_14  and  N_15
REMARK    3  A    between atoms: C_19  and  C_20
REMARK                            x       y       z     vdW  Elec       q    Type
REMARK                         _______ _______ _______ _____ _____    ______ ____
ROOT
ATOM      1  O   UNL     1       2.755   8.523  17.127  0.00  0.00    +0.000 OA
ATOM      2  C   UNL     1       2.389   8.174  18.243  0.00  0.00    +0.000 A 
ATOM      3  N   UNL     1       2.651   6.933  18.756  0.00  0.00    +0.000 NA
ATOM      4  C   UNL     1       2.306   6.647  19.959  0.00  0.00    +0.000 A 
ATOM      5  N   UNL     1       2.567   5.507  20.651  0.00  0.00    +0.000 N 
ATOM      6  O   UNL     1       1.606   7.512  20.792  0.00  0.00    +0.000 OA
ATOM      7  C   UNL     1       1.228   8.769  20.321  0.00  0.00    +0.000 A 
ATOM      8  C   UNL     1       0.472   9.656  21.107  0.00  0.00    +0.000 A 
ATOM      9  C   UNL     1       0.161  10.940  20.614  0.00  0.00    +0.000 A 
ATOM     10  C   UNL     1       0.600  11.345  19.343  0.00  0.00    +0.000 A 
ATOM     11  C   UNL     1       1.339  10.437  18.568  0.00  0.00    +0.000 A 
ATOM     12  C   UNL     1       1.638   9.153  19.054  0.00  0.00    +0.000 A 
ATOM     13  H   UNL     1       2.182   5.535  21.591  0.00  0.00    +0.000 HD
ENDROOT
BRANCH   5  14
ATOM     14  C   UNL     1       2.844   4.149  20.201  0.00  0.00    +0.000 C 
ATOM     15  C   UNL     1       1.542   3.440  19.798  0.00  0.00    +0.000 C 
ATOM     16  C   UNL     1       1.274   3.417  18.300  0.00  0.00    +0.000 C 
ATOM     17  C   UNL     1       2.475   2.865  17.550  0.00  0.00    +0.000 C 
ATOM     18  C   UNL     1       3.682   3.767  17.764  0.00  0.00    +0.000 C 
ATOM     19  C   UNL     1       4.025   3.963  19.242  0.00  0.00    +0.000 C 
ENDBRANCH   5  14
BRANCH  10  20
ATOM     20  C   UNL     1       0.296  12.731  18.811  0.00  0.00    +0.000 C 
ATOM     21  F   UNL     1       1.250  13.199  17.959  0.00  0.00    +0.000 F 
ATOM     22  F   UNL     1      -0.875  12.773  18.123  0.00  0.00    +0.000 F 
ATOM     23  F   UNL     1       0.191  13.654  19.802  0.00  0.00    +0.000 F 
ENDBRANCH  10  20
BRANCH   8  24
ATOM     24  N   UNL     1      -0.028   9.286  22.439  0.00  0.00    +0.000 N 
ATOM     25  O   UNL     1       0.511   9.780  23.439  0.00  0.00    +0.000 OA
ATOM     26  O   UNL     1      -0.969   8.481  22.488  0.00  0.00    +0.000 OA
ENDBRANCH   8  24
TORSDOF 3
ENDMDL
MODEL 4
REMARK VINA RESULT:      -7.2      1.106      1.644
REMARK  Name = 
REMARK  3 active torsions:
REMARK  status: ('A' for Active; 'I' for Inactive)
REMARK    1  A    between atoms: N_5  and  C_6
REMARK    2  A    between atoms: C_14  and  N_15
REMARK    3  A    between atoms: C_19  and  C_20
REMARK                            x       y       z     vdW  Elec       q    Type
REMARK                         _______ _______ _______ _____ _____    ______ ____
ROOT
ATOM      1  O   UNL     1       2.208   9.281  17.133  0.00  0.00    +0.000 OA
ATOM      2  C   UNL     1       1.924   8.883  18.257  0.00  0.00    +0.000 A 
ATOM      3  N   UNL     1       2.070   7.578  18.640  0.00  0.00    +0.000 NA
ATOM      4  C   UNL     1       1.825   7.232  19.852  0.00  0.00    +0.000 A 
ATOM      5  N   UNL     1       2.004   6.010  20.420  0.00  0.00    +0.000 N 
ATOM      6  O   UNL     1       1.348   8.101  20.826  0.00  0.00    +0.000 OA
ATOM      7  C   UNL     1       1.094   9.432  20.499  0.00  0.00    +0.000 A 
ATOM      8  C   UNL     1       0.560  10.334  21.435  0.00  0.00    +0.000 A 
ATOM      9  C   UNL     1       0.373  11.686  21.081  0.00  0.00    +0.000 A 
ATOM     10  C   UNL     1       0.719  12.144  19.799  0.00  0.00    +0.000 A 
ATOM     11  C   UNL     1       1.236  11.223  18.873  0.00  0.00    +0.000 A 
ATOM     12  C   UNL     1       1.409   9.874  19.224  0.00  0.00    +0.000 A 
ATOM     13  H   UNL     1       1.734   6.003  21.400  0.00  0.00    +0.000 HD
ENDROOT
BRANCH   5  14
ATOM     14  C   UNL     1       2.041   4.674  19.841  0.00  0.00    +0.000 C 
ATOM     15  C   UNL     1       3.334   4.470  19.038  0.00  0.00    +0.000 C 
ATOM     16  C   UNL     1       4.422   3.706  19.780  0.00  0.00    +0.000 C 
ATOM     17  C   UNL     1       3.879   2.394  20.322  0.00  0.00    +0.000 C 
ATOM     18  C   UNL     1       2.772   2.665  21.331  0.00  0.00    +0.000 C 
ATOM     19  C   UNL     1       1.635   3.511  20.753  0.00  0.00    +0.000 C 
ENDBRANCH   5  14
BRANCH  10  20
ATOM     20  C   UNL     1       0.550  13.600  19.411  0.00  0.00    +0.000 C 
ATOM     21  F   UNL     1       0.988  14.464  20.368  0.00  0.00    +0.000 F 
ATOM     22  F   UNL     1       1.234  13.914  18.279  0.00  0.00    +0.000 F 
ATOM     23  F   UNL     1      -0.749  13.925  19.177  0.00  0.00    +0.000 F 
ENDBRANCH  10  20
BRANCH   8  24
ATOM     24  N   UNL     1       0.165   9.913  22.788  0.00  0.00    +0.000 N 
ATOM     25  O   UNL     1      -1.038   9.888  23.079  0.00  0.00    +0.000 OA
ATOM     26  O   UNL     1       1.073   9.612  23.576  0.00  0.00    +0.000 OA
ENDBRANCH   8  24
TORSDOF 3
ENDMDL
MODEL 5
REMARK VINA RESULT:      -7.1      1.022      1.767
REMARK  Name = 
REMARK  3 active torsions:
REMARK  status: ('A' for Active; 'I' for Inactive)
REMARK    1  A    between atoms: N_5  and  C_6
REMARK    2  A    between atoms: C_14  and  N_15
REMARK    3  A    between atoms: C_19  and  C_20
REMARK                            x       y       z     vdW  Elec       q    Type
REMARK                         _______ _______ _______ _____ _____    ______ ____
ROOT
ATOM      1  O   UNL     1       2.243   9.442  17.171  0.00  0.00    +0.000 OA
ATOM      2  C   UNL     1       1.963   8.923  18.246  0.00  0.00    +0.000 A 
ATOM      3  N   UNL     1       2.213   7.607  18.521  0.00  0.00    +0.000 NA
ATOM      4  C   UNL     1       1.965   7.136  19.689  0.00  0.00    +0.000 A 
ATOM      5  N   UNL     1       2.236   5.889  20.158  0.00  0.00    +0.000 N 
ATOM      6  O   UNL     1       1.383   7.871  20.716  0.00  0.00    +0.000 OA
ATOM      7  C   UNL     1       1.022   9.199  20.495  0.00  0.00    +0.000 A 
ATOM      8  C   UNL     1       0.381   9.965  21.484  0.00  0.00    +0.000 A 
ATOM      9  C   UNL     1       0.085  11.322  21.239  0.00  0.00    +0.000 A 
ATOM     10  C   UNL     1       0.426  11.920  20.014  0.00  0.00    +0.000 A 
ATOM     11  C   UNL     1       1.050  11.132  19.033  0.00  0.00    +0.000 A 
ATOM     12  C   UNL     1       1.333   9.777  19.274  0.00  0.00    +0.000 A 
ATOM     13  H   UNL     1       1.939   5.772  21.124  0.00  0.00    +0.000 HD
ENDROOT
BRANCH   5  14
ATOM     14  C   UNL     1       2.409   4.617  19.469  0.00  0.00    +0.000 C 
ATOM     15  C   UNL     1       3.755   4.583  18.731  0.00  0.00    +0.000 C 
ATOM     16  C   UNL     1       4.860   3.838  19.468  0.00  0.00    +0.000 C 
ATOM     17  C   UNL     1       4.394   2.445  19.861  0.00  0.00    +0.000 C 
ATOM     18  C   UNL     1       3.217   2.542  20.821  0.00  0.00    +0.000 C 
ATOM     19  C   UNL     1       2.049   3.349  20.251  0.00  0.00    +0.000 C 
ENDBRANCH   5  14
BRANCH  10  20
ATOM     20  C   UNL     1       0.139  13.383  19.746  0.00  0.00    +0.000 C 
ATOM     21  F   UNL     1      -0.241  13.629  18.462  0.00  0.00    +0.000 F 
ATOM     22  F   UNL     1      -0.860  13.865  20.532  0.00  0.00    +0.000 F 
ATOM     23  F   UNL     1       1.221  14.173  19.976  0.00  0.00    +0.000 F 
ENDBRANCH  10  20
BRANCH   8  24
ATOM     24  N   UNL     1      -0.014   9.394  22.780  0.00  0.00    +0.000 N 
ATOM     25  O   UNL     1      -0.954   8.590  22.817  0.00  0.00    +0.000 OA
ATOM     26  O   UNL     1       0.619   9.763  23.779  0.00  0.00    +0.000 OA
ENDBRANCH   8  24
TORSDOF 3
ENDMDL
MODEL 6
REMARK VINA RESULT:      -7.0      3.111      4.414
REMARK  Name = 
REMARK  3 active torsions:
REMARK  status: ('A' for Active; 'I' for Inactive)
REMARK    1  A    between atoms: N_5  and  C_6
REMARK    2  A    between atoms: C_14  and  N_15
REMARK    3  A    between atoms: C_19  and  C_20
REMARK                            x       y       z     vdW  Elec       q    Type
REMARK                         _______ _______ _______ _____ _____    ______ ____
ROOT
ATOM      1  O   UNL     1       0.339   9.629  24.045  0.00  0.00    +0.000 OA
ATOM      2  C   UNL     1       0.277   9.690  22.822  0.00  0.00    +0.000 A 
ATOM      3  N   UNL     1       0.896   8.786  22.003  0.00  0.00    +0.000 NA
ATOM      4  C   UNL     1       0.737   8.857  20.731  0.00  0.00    +0.000 A 
ATOM      5  N   UNL     1       1.198   7.995  19.786  0.00  0.00    +0.000 N 
ATOM      6  O   UNL     1       0.007   9.853  20.093  0.00  0.00    +0.000 OA
ATOM      7  C   UNL     1      -0.591  10.861  20.849  0.00  0.00    +0.000 A 
ATOM      8  C   UNL     1      -1.293  11.919  20.246  0.00  0.00    +0.000 A 
ATOM      9  C   UNL     1      -1.932  12.886  21.049  0.00  0.00    +0.000 A 
ATOM     10  C   UNL     1      -1.877  12.802  22.450  0.00  0.00    +0.000 A 
ATOM     11  C   UNL     1      -1.157  11.747  23.032  0.00  0.00    +0.000 A 
ATOM     12  C   UNL     1      -0.509  10.791  22.231  0.00  0.00    +0.000 A 
ATOM     13  H   UNL     1       0.930   8.280  18.847  0.00  0.00    +0.000 HD
ENDROOT
BRANCH   5  14
ATOM     14  C   UNL     1       2.329   7.077  19.789  0.00  0.00    +0.000 C 
ATOM     15  C   UNL     1       2.043   5.873  20.698  0.00  0.00    +0.000 C 
ATOM     16  C   UNL     1       1.587   4.621  19.962  0.00  0.00    +0.000 C 
ATOM     17  C   UNL     1       2.561   4.271  18.849  0.00  0.00    +0.000 C 
ATOM     18  C   UNL     1       2.601   5.392  17.820  0.00  0.00    +0.000 C 
ATOM     19  C   UNL     1       2.960   6.748  18.431  0.00  0.00    +0.000 C 
ENDBRANCH   5  14
BRANCH  10  20
ATOM     20  C   UNL     1      -2.581  13.818  23.327  0.00  0.00    +0.000 C 
ATOM     21  F   UNL     1      -1.753  14.412  24.231  0.00  0.00    +0.000 F 
ATOM     22  F   UNL     1      -3.135  14.827  22.604  0.00  0.00    +0.000 F 
ATOM     23  F   UNL     1      -3.591  13.266  24.049  0.00  0.00    +0.000 F 
ENDBRANCH  10  20
BRANCH   8  24
ATOM     24  N   UNL     1      -1.375  12.069  18.786  0.00  0.00    +0.000 N 
ATOM     25  O   UNL     1      -0.643  12.898  18.228  0.00  0.00    +0.000 OA
ATOM     26  O   UNL     1      -2.191  11.355  18.187  0.00  0.00    +0.000 OA
ENDBRANCH   8  24
TORSDOF 3
ENDMDL
MODEL 7
REMARK VINA RESULT:      -6.9      3.021      4.260
REMARK  Name = 
REMARK  3 active torsions:
REMARK  status: ('A' for Active; 'I' for Inactive)
REMARK    1  A    between atoms: N_5  and  C_6
REMARK    2  A    between atoms: C_14  and  N_15
REMARK    3  A    between atoms: C_19  and  C_20
REMARK                            x       y       z     vdW  Elec       q    Type
REMARK                         _______ _______ _______ _____ _____    ______ ____
ROOT
ATOM      1  O   UNL     1       0.380   9.566  24.001  0.00  0.00    +0.000 OA
ATOM      2  C   UNL     1       0.349   9.621  22.777  0.00  0.00    +0.000 A 
ATOM      3  N   UNL     1       0.966   8.699  21.977  0.00  0.00    +0.000 NA
ATOM      4  C   UNL     1       0.839   8.767  20.701  0.00  0.00    +0.000 A 
ATOM      5  N   UNL     1       1.301   7.890  19.771  0.00  0.00    +0.000 N 
ATOM      6  O   UNL     1       0.147   9.776  20.042  0.00  0.00    +0.000 OA
ATOM      7  C   UNL     1      -0.445  10.802  20.778  0.00  0.00    +0.000 A 
ATOM      8  C   UNL     1      -1.107  11.873  20.154  0.00  0.00    +0.000 A 
ATOM      9  C   UNL     1      -1.742  12.859  20.937  0.00  0.00    +0.000 A 
ATOM     10  C   UNL     1      -1.722  12.781  22.339  0.00  0.00    +0.000 A 
ATOM     11  C   UNL     1      -1.041  11.712  22.943  0.00  0.00    +0.000 A 
ATOM     12  C   UNL     1      -0.397  10.738  22.162  0.00  0.00    +0.000 A 
ATOM     13  H   UNL     1       1.062   8.176  18.825  0.00  0.00    +0.000 HD
ENDROOT
BRANCH   5  14
ATOM     14  C   UNL     1       2.411   6.946  19.806  0.00  0.00    +0.000 C 
ATOM     15  C   UNL     1       2.034   5.702  20.624  0.00  0.00    +0.000 C 
ATOM     16  C   UNL     1       1.608   4.502  19.789  0.00  0.00    +0.000 C 
ATOM     17  C   UNL     1       2.654   4.189  18.732  0.00  0.00    +0.000 C 
ATOM     18  C   UNL     1       2.792   5.363  17.772  0.00  0.00    +0.000 C 
ATOM     19  C   UNL     1       3.133   6.675  18.481  0.00  0.00    +0.000 C 
ENDBRANCH   5  14
BRANCH  10  20
ATOM     20  C   UNL     1      -2.423  13.818  23.194  0.00  0.00    +0.000 C 
ATOM     21  F   UNL     1      -3.522  13.332  23.834  0.00  0.00    +0.000 F 
ATOM     22  F   UNL     1      -1.613  14.318  24.165  0.00  0.00    +0.000 F 
ATOM     23  F   UNL     1      -2.852  14.883  22.468  0.00  0.00    +0.000 F 
ENDBRANCH  10  20
BRANCH   8  24
ATOM     24  N   UNL     1      -1.150  12.018  18.691  0.00  0.00    +0.000 N 
ATOM     25  O   UNL     1      -1.827  11.218  18.031  0.00  0.00    +0.000 OA
ATOM     26  O   UNL     1      -0.489  12.939  18.192  0.00  0.00    +0.000 OA
ENDBRANCH   8  24
TORSDOF 3
ENDMDL
MODEL 8
REMARK VINA RESULT:      -6.9      2.955      4.434
REMARK  Name = 
REMARK  3 active torsions:
REMARK  status: ('A' for Active; 'I' for Inactive)
REMARK    1  A    between atoms: N_5  and  C_6
REMARK    2  A    between atoms: C_14  and  N_15
REMARK    3  A    between atoms: C_19  and  C_20
REMARK                            x       y       z     vdW  Elec       q    Type
REMARK                         _______ _______ _______ _____ _____    ______ ____
ROOT
ATOM      1  O   UNL     1       2.013   4.850  21.473  0.00  0.00    +0.000 OA
ATOM      2  C   UNL     1       2.273   5.528  20.485  0.00  0.00    +0.000 A 
ATOM      3  N   UNL     1       2.993   5.049  19.426  0.00  0.00    +0.000 NA
ATOM      4  C   UNL     1       3.173   5.782  18.386  0.00  0.00    +0.000 A 
ATOM      5  N   UNL     1       3.776   5.436  17.219  0.00  0.00    +0.000 N 
ATOM      6  O   UNL     1       2.728   7.094  18.275  0.00  0.00    +0.000 OA
ATOM      7  C   UNL     1       2.054   7.687  19.342  0.00  0.00    +0.000 A 
ATOM      8  C   UNL     1       1.634   9.028  19.297  0.00  0.00    +0.000 A 
ATOM      9  C   UNL     1       0.905   9.572  20.375  0.00  0.00    +0.000 A 
ATOM     10  C   UNL     1       0.591   8.786  21.496  0.00  0.00    +0.000 A 
ATOM     11  C   UNL     1       1.035   7.454  21.528  0.00  0.00    +0.000 A 
ATOM     12  C   UNL     1       1.772   6.917  20.459  0.00  0.00    +0.000 A 
ATOM     13  H   UNL     1       3.786   6.203  16.552  0.00  0.00    +0.000 HD
ENDROOT
BRANCH   5  14
ATOM     14  C   UNL     1       4.777   4.421  16.916  0.00  0.00    +0.000 C 
ATOM     15  C   UNL     1       5.000   4.320  15.400  0.00  0.00    +0.000 C 
ATOM     16  C   UNL     1       6.229   5.062  14.892  0.00  0.00    +0.000 C 
ATOM     17  C   UNL     1       7.464   4.648  15.674  0.00  0.00    +0.000 C 
ATOM     18  C   UNL     1       7.302   5.024  17.141  0.00  0.00    +0.000 C 
ATOM     19  C   UNL     1       6.047   4.421  17.775  0.00  0.00    +0.000 C 
ENDBRANCH   5  14
BRANCH  10  20
ATOM     20  C   UNL     1      -0.215   9.348  22.650  0.00  0.00    +0.000 C 
ATOM     21  F   UNL     1      -0.712  10.591  22.402  0.00  0.00    +0.000 F 
ATOM     22  F   UNL     1      -1.286   8.569  22.958  0.00  0.00    +0.000 F 
ATOM     23  F   UNL     1       0.519   9.457  23.788  0.00  0.00    +0.000 F 
ENDBRANCH  10  20
BRANCH   8  24
ATOM     24  N   UNL     1       1.944   9.905  18.159  0.00  0.00    +0.000 N 
ATOM     25  O   UNL     1       2.244   9.392  17.073  0.00  0.00    +0.000 OA
ATOM     26  O   UNL     1       1.897  11.128  18.355  0.00  0.00    +0.000 OA
ENDBRANCH   8  24
TORSDOF 3
ENDMDL
MODEL 9
REMARK VINA RESULT:      -6.9      4.544      8.321
REMARK  Name = 
REMARK  3 active torsions:
REMARK  status: ('A' for Active; 'I' for Inactive)
REMARK    1  A    between atoms: N_5  and  C_6
REMARK    2  A    between atoms: C_14  and  N_15
REMARK    3  A    between atoms: C_19  and  C_20
REMARK                            x       y       z     vdW  Elec       q    Type
REMARK                         _______ _______ _______ _____ _____    ______ ____
ROOT
ATOM      1  O   UNL     1       0.369   9.645  23.420  0.00  0.00    +0.000 OA
ATOM      2  C   UNL     1      -0.222  10.446  22.704  0.00  0.00    +0.000 A 
ATOM      3  N   UNL     1      -1.075  11.394  23.198  0.00  0.00    +0.000 NA
ATOM      4  C   UNL     1      -1.610  12.252  22.407  0.00  0.00    +0.000 A 
ATOM      5  N   UNL     1      -2.399  13.309  22.737  0.00  0.00    +0.000 N 
ATOM      6  O   UNL     1      -1.430  12.256  21.029  0.00  0.00    +0.000 OA
ATOM      7  C   UNL     1      -0.639  11.275  20.433  0.00  0.00    +0.000 A 
ATOM      8  C   UNL     1      -0.473  11.205  19.039  0.00  0.00    +0.000 A 
ATOM      9  C   UNL     1       0.382  10.232  18.482  0.00  0.00    +0.000 A 
ATOM     10  C   UNL     1       1.073   9.329  19.306  0.00  0.00    +0.000 A 
ATOM     11  C   UNL     1       0.880   9.405  20.695  0.00  0.00    +0.000 A 
ATOM     12  C   UNL     1       0.018  10.367  21.249  0.00  0.00    +0.000 A 
ATOM     13  H   UNL     1      -2.691  13.837  21.919  0.00  0.00    +0.000 HD
ENDROOT
BRANCH   5  14
ATOM     14  C   UNL     1      -3.256  13.547  23.891  0.00  0.00    +0.000 C 
ATOM     15  C   UNL     1      -3.692  15.019  23.944  0.00  0.00    +0.000 C 
ATOM     16  C   UNL     1      -5.088  15.283  23.398  0.00  0.00    +0.000 C 
ATOM     17  C   UNL     1      -6.104  14.368  24.062  0.00  0.00    +0.000 C 
ATOM     18  C   UNL     1      -5.780  12.915  23.746  0.00  0.00    +0.000 C 
ATOM     19  C   UNL     1      -4.361  12.518  24.158  0.00  0.00    +0.000 C 
ENDBRANCH   5  14
BRANCH  10  20
ATOM     20  C   UNL     1       2.016   8.296  18.725  0.00  0.00    +0.000 C 
ATOM     21  F   UNL     1       1.429   7.499  17.789  0.00  0.00    +0.000 F 
ATOM     22  F   UNL     1       3.090   8.863  18.114  0.00  0.00    +0.000 F 
ATOM     23  F   UNL     1       2.514   7.458  19.672  0.00  0.00    +0.000 F 
ENDBRANCH  10  20
BRANCH   8  24
ATOM     24  N   UNL     1      -1.180  12.111  18.122  0.00  0.00    +0.000 N 
ATOM     25  O   UNL     1      -2.226  11.723  17.586  0.00  0.00    +0.000 OA
ATOM     26  O   UNL     1      -0.676  13.226  17.927  0.00  0.00    +0.000 OA
ENDBRANCH   8  24
TORSDOF 3
ENDMDL
