MODEL 1
REMARK VINA RESULT:      -7.9      0.000      0.000
REMARK  Name = 
REMARK  9 active torsions:
REMARK  status: ('A' for Active; 'I' for Inactive)
REMARK    1  A    between atoms: C_1  and  O_2
REMARK    2  A    between atoms: O_2  and  C_3
REMARK    3  A    between atoms: C_8  and  O_9
REMARK    4  A    between atoms: O_9  and  C_10
REMARK    5  A    between atoms: C_13  and  C_14
REMARK    6  A    between atoms: C_14  and  C_15
REMARK    7  A    between atoms: N_18  and  C_19
REMARK    8  A    between atoms: C_19  and  C_20
REMARK    9  A    between atoms: C_24  and  C_25
REMARK                            x       y       z     vdW  Elec       q    Type
REMARK                         _______ _______ _______ _____ _____    ______ ____
ROOT
ATOM      1  C   UNL     1       1.914   4.552  20.628  0.00  0.00    +0.000 C 
ATOM      2  C   UNL     1       2.997   3.490  20.832  0.00  0.00    +0.000 C 
ATOM      3  C   UNL     1       3.854   3.293  19.583  0.00  0.00    +0.000 C 
ATOM      4  N   UNL     1       3.086   2.987  18.363  0.00  0.00    +0.000 NA
ATOM      5  C   UNL     1       1.951   3.901  18.156  0.00  0.00    +0.000 C 
ATOM      6  C   UNL     1       1.088   4.114  19.407  0.00  0.00    +0.000 C 
ENDROOT
BRANCH   1   7
ATOM      7  C   UNL     1       2.429   5.999  20.445  0.00  0.00    +0.000 C 
BRANCH   7  16
ATOM      8  C   UNL     1       0.601  11.689  21.004  0.00  0.00    +0.000 A 
ATOM      9  C   UNL     1       0.509  10.449  21.665  0.00  0.00    +0.000 A 
ATOM     10  C   UNL     1       0.894   9.312  20.982  0.00  0.00    +0.000 A 
ATOM     11  C   UNL     1       1.349   9.418  19.680  0.00  0.00    +0.000 A 
ATOM     12  C   UNL     1       1.364  10.604  18.971  0.00  0.00    +0.000 A 
ATOM     13  C   UNL     1       0.977  11.765  19.640  0.00  0.00    +0.000 A 
ATOM     14  C   UNL     1       1.794   8.109  19.238  0.00  0.00    +0.000 C 
ATOM     15  O   UNL     1       2.426   7.929  18.213  0.00  0.00    +0.000 OA
ATOM     16  C   UNL     1       1.346   7.066  20.248  0.00  0.00    +0.000 C 
ATOM     17  C   UNL     1       0.994   7.907  21.497  0.00  0.00    +0.000 C 
BRANCH   8  19
ATOM     18  C   UNL     1      -0.852  12.807  22.467  0.00  0.00    +0.000 C 
ATOM     19  O   UNL     1       0.329  12.867  21.664  0.00  0.00    +0.000 OA
ENDBRANCH   8  19
BRANCH  13  20
ATOM     20  O   UNL     1       0.977  13.010  19.057  0.00  0.00    +0.000 OA
ATOM     21  C   UNL     1      -0.140  13.332  18.232  0.00  0.00    +0.000 C 
ENDBRANCH  13  20
ENDBRANCH   7  16
ENDBRANCH   1   7
BRANCH   4  22
ATOM     22  C   UNL     1       4.025   3.033  17.219  0.00  0.00    +0.000 C 
BRANCH  22  23
ATOM     23  C   UNL     1       4.906   4.258  17.121  0.00  0.00    +0.000 A 
ATOM     24  C   UNL     1       4.590   5.284  16.217  0.00  0.00    +0.000 A 
ATOM     25  C   UNL     1       5.333   6.464  16.193  0.00  0.00    +0.000 A 
ATOM     26  C   UNL     1       6.393   6.639  17.080  0.00  0.00    +0.000 A 
ATOM     27  C   UNL     1       6.731   5.627  17.993  0.00  0.00    +0.000 A 
ATOM     28  C   UNL     1       5.995   4.430  17.989  0.00  0.00    +0.000 A 
BRANCH  27  29
ATOM     29  C   UNL     1       7.841   5.821  18.996  0.00  0.00    +0.000 C 
ATOM     30  F   UNL     1       8.451   7.036  18.905  0.00  0.00    +0.000 F 
ATOM     31  F   UNL     1       7.398   5.728  20.282  0.00  0.00    +0.000 F 
ATOM     32  F   UNL     1       8.832   4.896  18.874  0.00  0.00    +0.000 F 
ENDBRANCH  27  29
ENDBRANCH  22  23
ENDBRANCH   4  22
TORSDOF 7
ENDMDL
MODEL 2
REMARK VINA RESULT:      -7.9      1.936      2.382
REMARK  Name = 
REMARK  9 active torsions:
REMARK  status: ('A' for Active; 'I' for Inactive)
REMARK    1  A    between atoms: C_1  and  O_2
REMARK    2  A    between atoms: O_2  and  C_3
REMARK    3  A    between atoms: C_8  and  O_9
REMARK    4  A    between atoms: O_9  and  C_10
REMARK    5  A    between atoms: C_13  and  C_14
REMARK    6  A    between atoms: C_14  and  C_15
REMARK    7  A    between atoms: N_18  and  C_19
REMARK    8  A    between atoms: C_19  and  C_20
REMARK    9  A    between atoms: C_24  and  C_25
REMARK                            x       y       z     vdW  Elec       q    Type
REMARK                         _______ _______ _______ _____ _____    ______ ____
ROOT
ATOM      1  C   UNL     1       1.436   4.126  21.131  0.00  0.00    +0.000 C 
ATOM      2  C   UNL     1       2.380   3.018  21.605  0.00  0.00    +0.000 C 
ATOM      3  C   UNL     1       3.376   2.608  20.522  0.00  0.00    +0.000 C 
ATOM      4  N   UNL     1       2.753   2.214  19.245  0.00  0.00    +0.000 NA
ATOM      5  C   UNL     1       1.744   3.178  18.777  0.00  0.00    +0.000 C 
ATOM      6  C   UNL     1       0.745   3.605  19.860  0.00  0.00    +0.000 C 
ENDROOT
BRANCH   1   7
ATOM      7  C   UNL     1       2.100   5.497  20.866  0.00  0.00    +0.000 C 
BRANCH   7  16
ATOM      8  C   UNL     1       0.762  11.348  20.937  0.00  0.00    +0.000 A 
ATOM      9  C   UNL     1       0.500  10.165  21.654  0.00  0.00    +0.000 A 
ATOM     10  C   UNL     1       0.835   8.959  21.075  0.00  0.00    +0.000 A 
ATOM     11  C   UNL     1       1.408   8.941  19.816  0.00  0.00    +0.000 A 
ATOM     12  C   UNL     1       1.592  10.073  19.045  0.00  0.00    +0.000 A 
ATOM     13  C   UNL     1       1.258  11.304  19.610  0.00  0.00    +0.000 A 
ATOM     14  C   UNL     1       1.767   7.573  19.489  0.00  0.00    +0.000 C 
ATOM     15  O   UNL     1       2.465   7.274  18.538  0.00  0.00    +0.000 OA
ATOM     16  C   UNL     1       1.141   6.639  20.511  0.00  0.00    +0.000 C 
ATOM     17  C   UNL     1       0.762   7.586  21.674  0.00  0.00    +0.000 C 
BRANCH   8  19
ATOM     18  C   UNL     1      -0.841  12.887  21.689  0.00  0.00    +0.000 C 
ATOM     19  O   UNL     1       0.544  12.585  21.502  0.00  0.00    +0.000 OA
ENDBRANCH   8  19
BRANCH  13  20
ATOM     20  O   UNL     1       1.422  12.505  18.961  0.00  0.00    +0.000 OA
ATOM     21  C   UNL     1       2.535  12.607  18.075  0.00  0.00    +0.000 C 
ENDBRANCH  13  20
ENDBRANCH   7  16
ENDBRANCH   1   7
BRANCH   4  22
ATOM     22  C   UNL     1       3.838   2.049  18.250  0.00  0.00    +0.000 C 
BRANCH  22  23
ATOM     23  C   UNL     1       4.623   3.294  17.899  0.00  0.00    +0.000 A 
ATOM     24  C   UNL     1       5.338   3.979  18.893  0.00  0.00    +0.000 A 
ATOM     25  C   UNL     1       6.150   5.064  18.564  0.00  0.00    +0.000 A 
ATOM     26  C   UNL     1       6.266   5.470  17.236  0.00  0.00    +0.000 A 
ATOM     27  C   UNL     1       5.559   4.803  16.223  0.00  0.00    +0.000 A 
ATOM     28  C   UNL     1       4.720   3.730  16.570  0.00  0.00    +0.000 A 
BRANCH  27  29
ATOM     29  C   UNL     1       5.715   5.195  14.775  0.00  0.00    +0.000 C 
ATOM     30  F   UNL     1       7.015   5.297  14.376  0.00  0.00    +0.000 F 
ATOM     31  F   UNL     1       5.141   4.292  13.930  0.00  0.00    +0.000 F 
ATOM     32  F   UNL     1       5.141   6.394  14.487  0.00  0.00    +0.000 F 
ENDBRANCH  27  29
ENDBRANCH  22  23
ENDBRANCH   4  22
TORSDOF 7
ENDMDL
MODEL 3
REMARK VINA RESULT:      -7.9      0.738      1.033
REMARK  Name = 
REMARK  9 active torsions:
REMARK  status: ('A' for Active; 'I' for Inactive)
REMARK    1  A    between atoms: C_1  and  O_2
REMARK    2  A    between atoms: O_2  and  C_3
REMARK    3  A    between atoms: C_8  and  O_9
REMARK    4  A    between atoms: O_9  and  C_10
REMARK    5  A    between atoms: C_13  and  C_14
REMARK    6  A    between atoms: C_14  and  C_15
REMARK    7  A    between atoms: N_18  and  C_19
REMARK    8  A    between atoms: C_19  and  C_20
REMARK    9  A    between atoms: C_24  and  C_25
REMARK                            x       y       z     vdW  Elec       q    Type
REMARK                         _______ _______ _______ _____ _____    ______ ____
ROOT
ATOM      1  C   UNL     1       1.673   4.663  20.893  0.00  0.00    +0.000 C 
ATOM      2  C   UNL     1       2.708   3.576  21.194  0.00  0.00    +0.000 C 
ATOM      3  C   UNL     1       3.609   3.291  19.994  0.00  0.00    +0.000 C 
ATOM      4  N   UNL     1       2.881   2.951  18.757  0.00  0.00    +0.000 NA
ATOM      5  C   UNL     1       1.789   3.891  18.459  0.00  0.00    +0.000 C 
ATOM      6  C   UNL     1       0.884   4.193  19.661  0.00  0.00    +0.000 C 
ENDROOT
BRANCH   1   7
ATOM      7  C   UNL     1       2.245   6.081  20.665  0.00  0.00    +0.000 C 
BRANCH   7  16
ATOM      8  C   UNL     1       0.652  11.861  20.388  0.00  0.00    +0.000 A 
ATOM      9  C   UNL     1       0.477  10.724  21.200  0.00  0.00    +0.000 A 
ATOM     10  C   UNL     1       0.839   9.493  20.691  0.00  0.00    +0.000 A 
ATOM     11  C   UNL     1       1.352   9.407  19.409  0.00  0.00    +0.000 A 
ATOM     12  C   UNL     1       1.448  10.486  18.552  0.00  0.00    +0.000 A 
ATOM     13  C   UNL     1       1.086  11.741  19.044  0.00  0.00    +0.000 A 
ATOM     14  C   UNL     1       1.756   8.035  19.163  0.00  0.00    +0.000 C 
ATOM     15  O   UNL     1       2.422   7.696  18.202  0.00  0.00    +0.000 OA
ATOM     16  C   UNL     1       1.221   7.153  20.279  0.00  0.00    +0.000 C 
ATOM     17  C   UNL     1       0.855   8.166  21.389  0.00  0.00    +0.000 C 
BRANCH   8  19
ATOM     18  C   UNL     1       1.557  13.746  21.451  0.00  0.00    +0.000 C 
ATOM     19  O   UNL     1       0.405  13.126  20.874  0.00  0.00    +0.000 OA
ENDBRANCH   8  19
BRANCH  13  20
ATOM     20  O   UNL     1       1.166  12.896  18.304  0.00  0.00    +0.000 OA
ATOM     21  C   UNL     1       2.473  13.339  17.945  0.00  0.00    +0.000 C 
ENDBRANCH  13  20
ENDBRANCH   7  16
ENDBRANCH   1   7
BRANCH   4  22
ATOM     22  C   UNL     1       3.868   2.910  17.654  0.00  0.00    +0.000 C 
BRANCH  22  23
ATOM     23  C   UNL     1       4.721   4.146  17.469  0.00  0.00    +0.000 A 
ATOM     24  C   UNL     1       4.306   5.165  16.598  0.00  0.00    +0.000 A 
ATOM     25  C   UNL     1       5.029   6.353  16.500  0.00  0.00    +0.000 A 
ATOM     26  C   UNL     1       6.169   6.543  17.278  0.00  0.00    +0.000 A 
ATOM     27  C   UNL     1       6.607   5.538  18.154  0.00  0.00    +0.000 A 
ATOM     28  C   UNL     1       5.888   4.332  18.224  0.00  0.00    +0.000 A 
BRANCH  27  29
ATOM     29  C   UNL     1       7.807   5.747  19.044  0.00  0.00    +0.000 C 
ATOM     30  F   UNL     1       8.784   4.813  18.870  0.00  0.00    +0.000 F 
ATOM     31  F   UNL     1       8.407   6.951  18.827  0.00  0.00    +0.000 F 
ATOM     32  F   UNL     1       7.495   5.718  20.368  0.00  0.00    +0.000 F 
ENDBRANCH  27  29
ENDBRANCH  22  23
ENDBRANCH   4  22
TORSDOF 7
ENDMDL
MODEL 4
REMARK VINA RESULT:      -7.8      4.572      9.450
REMARK  Name = 
REMARK  9 active torsions:
REMARK  status: ('A' for Active; 'I' for Inactive)
REMARK    1  A    between atoms: C_1  and  O_2
REMARK    2  A    between atoms: O_2  and  C_3
REMARK    3  A    between atoms: C_8  and  O_9
REMARK    4  A    between atoms: O_9  and  C_10
REMARK    5  A    between atoms: C_13  and  C_14
REMARK    6  A    between atoms: C_14  and  C_15
REMARK    7  A    between atoms: N_18  and  C_19
REMARK    8  A    between atoms: C_19  and  C_20
REMARK    9  A    between atoms: C_24  and  C_25
REMARK                            x       y       z     vdW  Elec       q    Type
REMARK                         _______ _______ _______ _____ _____    ______ ____
ROOT
ATOM      1  C   UNL     1      -0.034   9.846  19.437  0.00  0.00    +0.000 C 
ATOM      2  C   UNL     1      -0.582  11.050  18.665  0.00  0.00    +0.000 C 
ATOM      3  C   UNL     1       0.048  12.364  19.125  0.00  0.00    +0.000 C 
ATOM      4  N   UNL     1      -0.062  12.614  20.574  0.00  0.00    +0.000 NA
ATOM      5  C   UNL     1       0.339  11.455  21.388  0.00  0.00    +0.000 C 
ATOM      6  C   UNL     1      -0.279  10.129  20.928  0.00  0.00    +0.000 C 
ENDROOT
BRANCH   1   7
ATOM      7  C   UNL     1       1.454   9.515  19.183  0.00  0.00    +0.000 C 
BRANCH   7  16
ATOM      8  C   UNL     1       5.267   5.040  17.972  0.00  0.00    +0.000 A 
ATOM      9  C   UNL     1       4.722   6.194  17.376  0.00  0.00    +0.000 A 
ATOM     10  C   UNL     1       3.632   6.789  17.978  0.00  0.00    +0.000 A 
ATOM     11  C   UNL     1       3.104   6.241  19.133  0.00  0.00    +0.000 A 
ATOM     12  C   UNL     1       3.553   5.060  19.692  0.00  0.00    +0.000 A 
ATOM     13  C   UNL     1       4.653   4.439  19.099  0.00  0.00    +0.000 A 
ATOM     14  C   UNL     1       2.051   7.114  19.620  0.00  0.00    +0.000 C 
ATOM     15  O   UNL     1       1.542   6.998  20.720  0.00  0.00    +0.000 OA
ATOM     16  C   UNL     1       1.728   8.146  18.552  0.00  0.00    +0.000 C 
ATOM     17  C   UNL     1       2.949   8.072  17.606  0.00  0.00    +0.000 C 
BRANCH   8  19
ATOM     18  C   UNL     1       7.610   5.120  17.898  0.00  0.00    +0.000 C 
ATOM     19  O   UNL     1       6.414   4.459  17.478  0.00  0.00    +0.000 OA
ENDBRANCH   8  19
BRANCH  13  20
ATOM     20  O   UNL     1       5.214   3.278  19.576  0.00  0.00    +0.000 OA
ATOM     21  C   UNL     1       4.318   2.297  20.092  0.00  0.00    +0.000 C 
ENDBRANCH  13  20
ENDBRANCH   7  16
ENDBRANCH   1   7
BRANCH   4  22
ATOM     22  C   UNL     1       0.765  13.801  20.888  0.00  0.00    +0.000 C 
BRANCH  22  23
ATOM     23  C   UNL     1       0.726  14.932  19.884  0.00  0.00    +0.000 A 
ATOM     24  C   UNL     1      -0.378  15.798  19.841  0.00  0.00    +0.000 A 
ATOM     25  C   UNL     1      -0.378  16.906  18.994  0.00  0.00    +0.000 A 
ATOM     26  C   UNL     1       0.728  17.169  18.189  0.00  0.00    +0.000 A 
ATOM     27  C   UNL     1       1.843  16.316  18.211  0.00  0.00    +0.000 A 
ATOM     28  C   UNL     1       1.821  15.186  19.046  0.00  0.00    +0.000 A 
BRANCH  27  29
ATOM     29  C   UNL     1       3.070  16.616  17.387  0.00  0.00    +0.000 C 
ATOM     30  F   UNL     1       3.520  15.546  16.671  0.00  0.00    +0.000 F 
ATOM     31  F   UNL     1       2.852  17.603  16.474  0.00  0.00    +0.000 F 
ATOM     32  F   UNL     1       4.125  17.030  18.140  0.00  0.00    +0.000 F 
ENDBRANCH  27  29
ENDBRANCH  22  23
ENDBRANCH   4  22
TORSDOF 7
ENDMDL
MODEL 5
REMARK VINA RESULT:      -7.8      3.544      4.183
REMARK  Name = 
REMARK  9 active torsions:
REMARK  status: ('A' for Active; 'I' for Inactive)
REMARK    1  A    between atoms: C_1  and  O_2
REMARK    2  A    between atoms: O_2  and  C_3
REMARK    3  A    between atoms: C_8  and  O_9
REMARK    4  A    between atoms: O_9  and  C_10
REMARK    5  A    between atoms: C_13  and  C_14
REMARK    6  A    between atoms: C_14  and  C_15
REMARK    7  A    between atoms: N_18  and  C_19
REMARK    8  A    between atoms: C_19  and  C_20
REMARK    9  A    between atoms: C_24  and  C_25
REMARK                            x       y       z     vdW  Elec       q    Type
REMARK                         _______ _______ _______ _____ _____    ______ ____
ROOT
ATOM      1  C   UNL     1       3.486   4.766  18.528  0.00  0.00    +0.000 C 
ATOM      2  C   UNL     1       4.738   4.076  19.076  0.00  0.00    +0.000 C 
ATOM      3  C   UNL     1       5.976   4.376  18.234  0.00  0.00    +0.000 C 
ATOM      4  N   UNL     1       5.825   4.061  16.801  0.00  0.00    +0.000 NA
ATOM      5  C   UNL     1       4.581   4.596  16.225  0.00  0.00    +0.000 C 
ATOM      6  C   UNL     1       3.332   4.310  17.069  0.00  0.00    +0.000 C 
ENDROOT
BRANCH   1   7
ATOM      7  C   UNL     1       3.484   6.309  18.619  0.00  0.00    +0.000 C 
BRANCH   7  16
ATOM      8  C   UNL     1       0.383  10.534  21.544  0.00  0.00    +0.000 A 
ATOM      9  C   UNL     1       0.789   9.194  21.684  0.00  0.00    +0.000 A 
ATOM     10  C   UNL     1       1.290   8.541  20.575  0.00  0.00    +0.000 A 
ATOM     11  C   UNL     1       1.372   9.212  19.368  0.00  0.00    +0.000 A 
ATOM     12  C   UNL     1       0.896  10.494  19.172  0.00  0.00    +0.000 A 
ATOM     13  C   UNL     1       0.383  11.171  20.278  0.00  0.00    +0.000 A 
ATOM     14  C   UNL     1       2.033   8.350  18.404  0.00  0.00    +0.000 C 
ATOM     15  O   UNL     1       2.425   8.737  17.318  0.00  0.00    +0.000 OA
ATOM     16  C   UNL     1       2.140   6.949  18.984  0.00  0.00    +0.000 C 
ATOM     17  C   UNL     1       1.886   7.168  20.493  0.00  0.00    +0.000 C 
BRANCH   8  19
ATOM     18  C   UNL     1      -1.380  11.002  23.019  0.00  0.00    +0.000 C 
ATOM     19  O   UNL     1      -0.030  11.269  22.634  0.00  0.00    +0.000 OA
ENDBRANCH   8  19
BRANCH  13  20
ATOM     20  O   UNL     1      -0.092  12.460  20.223  0.00  0.00    +0.000 OA
ATOM     21  C   UNL     1      -0.050  13.105  18.952  0.00  0.00    +0.000 C 
ENDBRANCH  13  20
ENDBRANCH   7  16
ENDBRANCH   1   7
BRANCH   4  22
ATOM     22  C   UNL     1       7.014   4.595  16.098  0.00  0.00    +0.000 C 
BRANCH  22  23
ATOM     23  C   UNL     1       6.940   4.635  14.588  0.00  0.00    +0.000 A 
ATOM     24  C   UNL     1       7.891   5.359  13.854  0.00  0.00    +0.000 A 
ATOM     25  C   UNL     1       7.897   5.317  12.460  0.00  0.00    +0.000 A 
ATOM     26  C   UNL     1       6.959   4.540  11.783  0.00  0.00    +0.000 A 
ATOM     27  C   UNL     1       5.994   3.809  12.493  0.00  0.00    +0.000 A 
ATOM     28  C   UNL     1       5.979   3.882  13.897  0.00  0.00    +0.000 A 
BRANCH  27  29
ATOM     29  C   UNL     1       5.006   2.921  11.778  0.00  0.00    +0.000 C 
ATOM     30  F   UNL     1       4.827   3.250  10.467  0.00  0.00    +0.000 F 
ATOM     31  F   UNL     1       5.391   1.614  11.779  0.00  0.00    +0.000 F 
ATOM     32  F   UNL     1       3.768   2.947  12.342  0.00  0.00    +0.000 F 
ENDBRANCH  27  29
ENDBRANCH  22  23
ENDBRANCH   4  22
TORSDOF 7
ENDMDL
MODEL 6
REMARK VINA RESULT:      -7.8      5.450     10.423
REMARK  Name = 
REMARK  9 active torsions:
REMARK  status: ('A' for Active; 'I' for Inactive)
REMARK    1  A    between atoms: C_1  and  O_2
REMARK    2  A    between atoms: O_2  and  C_3
REMARK    3  A    between atoms: C_8  and  O_9
REMARK    4  A    between atoms: O_9  and  C_10
REMARK    5  A    between atoms: C_13  and  C_14
REMARK    6  A    between atoms: C_14  and  C_15
REMARK    7  A    between atoms: N_18  and  C_19
REMARK    8  A    between atoms: C_19  and  C_20
REMARK    9  A    between atoms: C_24  and  C_25
REMARK                            x       y       z     vdW  Elec       q    Type
REMARK                         _______ _______ _______ _____ _____    ______ ____
ROOT
ATOM      1  C   UNL     1       0.503  10.606  18.449  0.00  0.00    +0.000 C 
ATOM      2  C   UNL     1       0.516  12.112  18.729  0.00  0.00    +0.000 C 
ATOM      3  C   UNL     1       0.453  12.421  20.223  0.00  0.00    +0.000 C 
ATOM      4  N   UNL     1      -0.685  11.798  20.924  0.00  0.00    +0.000 NA
ATOM      5  C   UNL     1      -0.835  10.367  20.615  0.00  0.00    +0.000 C 
ATOM      6  C   UNL     1      -0.763  10.044  19.117  0.00  0.00    +0.000 C 
ENDROOT
BRANCH   1   7
ATOM      7  C   UNL     1       1.756   9.833  18.920  0.00  0.00    +0.000 C 
BRANCH   7  16
ATOM      8  C   UNL     1       5.170   5.017  17.830  0.00  0.00    +0.000 A 
ATOM      9  C   UNL     1       4.675   6.166  17.184  0.00  0.00    +0.000 A 
ATOM     10  C   UNL     1       3.665   6.880  17.797  0.00  0.00    +0.000 A 
ATOM     11  C   UNL     1       3.166   6.449  19.013  0.00  0.00    +0.000 A 
ATOM     12  C   UNL     1       3.560   5.277  19.629  0.00  0.00    +0.000 A 
ATOM     13  C   UNL     1       4.579   4.539  19.026  0.00  0.00    +0.000 A 
ATOM     14  C   UNL     1       2.206   7.427  19.492  0.00  0.00    +0.000 C 
ATOM     15  O   UNL     1       1.752   7.422  20.622  0.00  0.00    +0.000 OA
ATOM     16  C   UNL     1       1.897   8.408  18.373  0.00  0.00    +0.000 C 
ATOM     17  C   UNL     1       3.055   8.182  17.373  0.00  0.00    +0.000 C 
BRANCH   8  19
ATOM     18  C   UNL     1       6.869   4.978  16.214  0.00  0.00    +0.000 C 
ATOM     19  O   UNL     1       6.243   4.322  17.319  0.00  0.00    +0.000 OA
ENDBRANCH   8  19
BRANCH  13  20
ATOM     20  O   UNL     1       5.083   3.373  19.553  0.00  0.00    +0.000 OA
ATOM     21  C   UNL     1       4.134   2.412  20.008  0.00  0.00    +0.000 C 
ENDBRANCH  13  20
ENDBRANCH   7  16
ENDBRANCH   1   7
BRANCH   4  22
ATOM     22  C   UNL     1      -0.491  12.015  22.375  0.00  0.00    +0.000 C 
BRANCH  22  23
ATOM     23  C   UNL     1      -1.606  12.733  23.103  0.00  0.00    +0.000 A 
ATOM     24  C   UNL     1      -2.861  12.122  23.248  0.00  0.00    +0.000 A 
ATOM     25  C   UNL     1      -3.862  12.727  24.008  0.00  0.00    +0.000 A 
ATOM     26  C   UNL     1      -3.618  13.944  24.640  0.00  0.00    +0.000 A 
ATOM     27  C   UNL     1      -2.373  14.578  24.507  0.00  0.00    +0.000 A 
ATOM     28  C   UNL     1      -1.380  13.974  23.716  0.00  0.00    +0.000 A 
BRANCH  27  29
ATOM     29  C   UNL     1      -2.074  15.868  25.229  0.00  0.00    +0.000 C 
ATOM     30  F   UNL     1      -3.168  16.663  25.400  0.00  0.00    +0.000 F 
ATOM     31  F   UNL     1      -1.573  15.658  26.479  0.00  0.00    +0.000 F 
ATOM     32  F   UNL     1      -1.154  16.635  24.582  0.00  0.00    +0.000 F 
ENDBRANCH  27  29
ENDBRANCH  22  23
ENDBRANCH   4  22
TORSDOF 7
ENDMDL
MODEL 7
REMARK VINA RESULT:      -7.8      5.569     10.560
REMARK  Name = 
REMARK  9 active torsions:
REMARK  status: ('A' for Active; 'I' for Inactive)
REMARK    1  A    between atoms: C_1  and  O_2
REMARK    2  A    between atoms: O_2  and  C_3
REMARK    3  A    between atoms: C_8  and  O_9
REMARK    4  A    between atoms: O_9  and  C_10
REMARK    5  A    between atoms: C_13  and  C_14
REMARK    6  A    between atoms: C_14  and  C_15
REMARK    7  A    between atoms: N_18  and  C_19
REMARK    8  A    between atoms: C_19  and  C_20
REMARK    9  A    between atoms: C_24  and  C_25
REMARK                            x       y       z     vdW  Elec       q    Type
REMARK                         _______ _______ _______ _____ _____    ______ ____
ROOT
ATOM      1  C   UNL     1       0.171  10.601  18.559  0.00  0.00    +0.000 C 
ATOM      2  C   UNL     1       0.159  12.125  18.699  0.00  0.00    +0.000 C 
ATOM      3  C   UNL     1       0.240  12.570  20.158  0.00  0.00    +0.000 C 
ATOM      4  N   UNL     1      -0.799  11.986  21.028  0.00  0.00    +0.000 NA
ATOM      5  C   UNL     1      -0.928  10.529  20.866  0.00  0.00    +0.000 C 
ATOM      6  C   UNL     1      -0.999  10.070  19.404  0.00  0.00    +0.000 C 
ENDROOT
BRANCH   1   7
ATOM      7  C   UNL     1       1.492   9.906  18.962  0.00  0.00    +0.000 C 
BRANCH   7  16
ATOM      8  C   UNL     1       5.085   5.236  17.817  0.00  0.00    +0.000 A 
ATOM      9  C   UNL     1       4.516   6.353  17.174  0.00  0.00    +0.000 A 
ATOM     10  C   UNL     1       3.496   7.028  17.812  0.00  0.00    +0.000 A 
ATOM     11  C   UNL     1       3.057   6.592  19.050  0.00  0.00    +0.000 A 
ATOM     12  C   UNL     1       3.525   5.447  19.666  0.00  0.00    +0.000 A 
ATOM     13  C   UNL     1       4.556   4.747  19.038  0.00  0.00    +0.000 A 
ATOM     14  C   UNL     1       2.070   7.532  19.548  0.00  0.00    +0.000 C 
ATOM     15  O   UNL     1       1.655   7.521  20.693  0.00  0.00    +0.000 OA
ATOM     16  C   UNL     1       1.680   8.482  18.428  0.00  0.00    +0.000 C 
ATOM     17  C   UNL     1       2.813   8.295  17.393  0.00  0.00    +0.000 C 
BRANCH   8  19
ATOM     18  C   UNL     1       6.469   4.985  15.940  0.00  0.00    +0.000 C 
ATOM     19  O   UNL     1       6.171   4.583  17.279  0.00  0.00    +0.000 OA
ENDBRANCH   8  19
BRANCH  13  20
ATOM     20  O   UNL     1       5.130   3.613  19.562  0.00  0.00    +0.000 OA
ATOM     21  C   UNL     1       4.247   2.551  19.912  0.00  0.00    +0.000 C 
ENDBRANCH  13  20
ENDBRANCH   7  16
ENDBRANCH   1   7
BRANCH   4  22
ATOM     22  C   UNL     1      -0.464  12.342  22.426  0.00  0.00    +0.000 C 
BRANCH  22  23
ATOM     23  C   UNL     1      -1.510  13.125  23.188  0.00  0.00    +0.000 A 
ATOM     24  C   UNL     1      -1.178  14.354  23.779  0.00  0.00    +0.000 A 
ATOM     25  C   UNL     1      -2.157  15.135  24.392  0.00  0.00    +0.000 A 
ATOM     26  C   UNL     1      -3.482  14.702  24.413  0.00  0.00    +0.000 A 
ATOM     27  C   UNL     1      -3.839  13.476  23.832  0.00  0.00    +0.000 A 
ATOM     28  C   UNL     1      -2.839  12.682  23.243  0.00  0.00    +0.000 A 
BRANCH  27  29
ATOM     29  C   UNL     1      -5.276  13.018  23.798  0.00  0.00    +0.000 C 
ATOM     30  F   UNL     1      -6.172  14.017  24.036  0.00  0.00    +0.000 F 
ATOM     31  F   UNL     1      -5.623  12.494  22.589  0.00  0.00    +0.000 F 
ATOM     32  F   UNL     1      -5.544  12.050  24.717  0.00  0.00    +0.000 F 
ENDBRANCH  27  29
ENDBRANCH  22  23
ENDBRANCH   4  22
TORSDOF 7
ENDMDL
MODEL 8
REMARK VINA RESULT:      -7.8      5.854     10.629
REMARK  Name = 
REMARK  9 active torsions:
REMARK  status: ('A' for Active; 'I' for Inactive)
REMARK    1  A    between atoms: C_1  and  O_2
REMARK    2  A    between atoms: O_2  and  C_3
REMARK    3  A    between atoms: C_8  and  O_9
REMARK    4  A    between atoms: O_9  and  C_10
REMARK    5  A    between atoms: C_13  and  C_14
REMARK    6  A    between atoms: C_14  and  C_15
REMARK    7  A    between atoms: N_18  and  C_19
REMARK    8  A    between atoms: C_19  and  C_20
REMARK    9  A    between atoms: C_24  and  C_25
REMARK                            x       y       z     vdW  Elec       q    Type
REMARK                         _______ _______ _______ _____ _____    ______ ____
ROOT
ATOM      1  C   UNL     1       0.971  10.522  18.452  0.00  0.00    +0.000 C 
ATOM      2  C   UNL     1       1.233  11.953  18.926  0.00  0.00    +0.000 C 
ATOM      3  C   UNL     1       0.428  12.302  20.177  0.00  0.00    +0.000 C 
ATOM      4  N   UNL     1      -1.024  12.084  20.042  0.00  0.00    +0.000 NA
ATOM      5  C   UNL     1      -1.356  10.764  19.480  0.00  0.00    +0.000 C 
ATOM      6  C   UNL     1      -0.545  10.399  18.230  0.00  0.00    +0.000 C 
ENDROOT
BRANCH   1   7
ATOM      7  C   UNL     1       1.475   9.406  19.396  0.00  0.00    +0.000 C 
BRANCH   7  16
ATOM      8  C   UNL     1       5.206   4.915  18.002  0.00  0.00    +0.000 A 
ATOM      9  C   UNL     1       4.652   6.081  17.440  0.00  0.00    +0.000 A 
ATOM     10  C   UNL     1       3.587   6.678  18.084  0.00  0.00    +0.000 A 
ATOM     11  C   UNL     1       3.093   6.119  19.249  0.00  0.00    +0.000 A 
ATOM     12  C   UNL     1       3.549   4.926  19.777  0.00  0.00    +0.000 A 
ATOM     13  C   UNL     1       4.623   4.304  19.141  0.00  0.00    +0.000 A 
ATOM     14  C   UNL     1       2.064   6.993  19.782  0.00  0.00    +0.000 C 
ATOM     15  O   UNL     1       1.590   6.867  20.896  0.00  0.00    +0.000 OA
ATOM     16  C   UNL     1       1.716   8.043  18.738  0.00  0.00    +0.000 C 
ATOM     17  C   UNL     1       2.905   7.972  17.752  0.00  0.00    +0.000 C 
BRANCH   8  19
ATOM     18  C   UNL     1       7.432   5.234  17.336  0.00  0.00    +0.000 C 
ATOM     19  O   UNL     1       6.331   4.331  17.463  0.00  0.00    +0.000 OA
ENDBRANCH   8  19
BRANCH  13  20
ATOM     20  O   UNL     1       5.189   3.132  19.584  0.00  0.00    +0.000 OA
ATOM     21  C   UNL     1       4.312   2.184  20.187  0.00  0.00    +0.000 C 
ENDBRANCH  13  20
ENDBRANCH   7  16
ENDBRANCH   1   7
BRANCH   4  22
ATOM     22  C   UNL     1      -1.630  12.264  21.381  0.00  0.00    +0.000 C 
BRANCH  22  23
ATOM     23  C   UNL     1      -3.097  12.633  21.411  0.00  0.00    +0.000 A 
ATOM     24  C   UNL     1      -3.789  12.868  20.213  0.00  0.00    +0.000 A 
ATOM     25  C   UNL     1      -5.164  13.104  20.222  0.00  0.00    +0.000 A 
ATOM     26  C   UNL     1      -5.865  13.096  21.426  0.00  0.00    +0.000 A 
ATOM     27  C   UNL     1      -5.196  12.867  22.638  0.00  0.00    +0.000 A 
ATOM     28  C   UNL     1      -3.805  12.659  22.621  0.00  0.00    +0.000 A 
BRANCH  27  29
ATOM     29  C   UNL     1      -5.947  12.801  23.944  0.00  0.00    +0.000 C 
ATOM     30  F   UNL     1      -7.067  12.026  23.889  0.00  0.00    +0.000 F 
ATOM     31  F   UNL     1      -5.190  12.282  24.951  0.00  0.00    +0.000 F 
ATOM     32  F   UNL     1      -6.361  14.023  24.378  0.00  0.00    +0.000 F 
ENDBRANCH  27  29
ENDBRANCH  22  23
ENDBRANCH   4  22
TORSDOF 7
ENDMDL
MODEL 9
REMARK VINA RESULT:      -7.8      2.642      4.614
REMARK  Name = 
REMARK  9 active torsions:
REMARK  status: ('A' for Active; 'I' for Inactive)
REMARK    1  A    between atoms: C_1  and  O_2
REMARK    2  A    between atoms: O_2  and  C_3
REMARK    3  A    between atoms: C_8  and  O_9
REMARK    4  A    between atoms: O_9  and  C_10
REMARK    5  A    between atoms: C_13  and  C_14
REMARK    6  A    between atoms: C_14  and  C_15
REMARK    7  A    between atoms: N_18  and  C_19
REMARK    8  A    between atoms: C_19  and  C_20
REMARK    9  A    between atoms: C_24  and  C_25
REMARK                            x       y       z     vdW  Elec       q    Type
REMARK                         _______ _______ _______ _____ _____    ______ ____
ROOT
ATOM      1  C   UNL     1       4.975   6.887  16.511  0.00  0.00    +0.000 C 
ATOM      2  C   UNL     1       5.214   5.846  15.415  0.00  0.00    +0.000 C 
ATOM      3  C   UNL     1       4.811   4.440  15.859  0.00  0.00    +0.000 C 
ATOM      4  N   UNL     1       5.449   3.994  17.111  0.00  0.00    +0.000 NA
ATOM      5  C   UNL     1       5.361   4.995  18.186  0.00  0.00    +0.000 C 
ATOM      6  C   UNL     1       5.753   6.413  17.749  0.00  0.00    +0.000 C 
ENDROOT
BRANCH   1   7
ATOM      7  C   UNL     1       3.494   7.150  16.868  0.00  0.00    +0.000 C 
BRANCH   7  16
ATOM      8  C   UNL     1      -0.317  10.412  20.164  0.00  0.00    +0.000 A 
ATOM      9  C   UNL     1       0.473  10.510  19.003  0.00  0.00    +0.000 A 
ATOM     10  C   UNL     1       1.430   9.541  18.777  0.00  0.00    +0.000 A 
ATOM     11  C   UNL     1       1.590   8.514  19.689  0.00  0.00    +0.000 A 
ATOM     12  C   UNL     1       0.899   8.437  20.883  0.00  0.00    +0.000 A 
ATOM     13  C   UNL     1      -0.072   9.408  21.134  0.00  0.00    +0.000 A 
ATOM     14  C   UNL     1       2.568   7.577  19.165  0.00  0.00    +0.000 C 
ATOM     15  O   UNL     1       2.768   6.478  19.648  0.00  0.00    +0.000 OA
ATOM     16  C   UNL     1       3.252   8.199  17.958  0.00  0.00    +0.000 C 
ATOM     17  C   UNL     1       2.309   9.364  17.575  0.00  0.00    +0.000 C 
BRANCH   8  19
ATOM     18  C   UNL     1      -0.946  12.489  21.054  0.00  0.00    +0.000 C 
ATOM     19  O   UNL     1      -1.354  11.289  20.394  0.00  0.00    +0.000 OA
ENDBRANCH   8  19
BRANCH  13  20
ATOM     20  O   UNL     1      -0.849   9.426  22.267  0.00  0.00    +0.000 OA
ATOM     21  C   UNL     1      -0.163   9.521  23.513  0.00  0.00    +0.000 C 
ENDBRANCH  13  20
ENDBRANCH   7  16
ENDBRANCH   1   7
BRANCH   4  22
ATOM     22  C   UNL     1       4.807   2.721  17.511  0.00  0.00    +0.000 C 
BRANCH  22  23
ATOM     23  C   UNL     1       3.465   2.832  18.200  0.00  0.00    +0.000 A 
ATOM     24  C   UNL     1       2.281   2.786  17.448  0.00  0.00    +0.000 A 
ATOM     25  C   UNL     1       1.038   2.780  18.080  0.00  0.00    +0.000 A 
ATOM     26  C   UNL     1       0.963   2.809  19.471  0.00  0.00    +0.000 A 
ATOM     27  C   UNL     1       2.132   2.858  20.246  0.00  0.00    +0.000 A 
ATOM     28  C   UNL     1       3.379   2.893  19.599  0.00  0.00    +0.000 A 
BRANCH  27  29
ATOM     29  C   UNL     1       2.070   2.834  21.753  0.00  0.00    +0.000 C 
ATOM     30  F   UNL     1       2.938   1.949  22.320  0.00  0.00    +0.000 F 
ATOM     31  F   UNL     1       2.370   4.045  22.302  0.00  0.00    +0.000 F 
ATOM     32  F   UNL     1       0.838   2.503  22.226  0.00  0.00    +0.000 F 
ENDBRANCH  27  29
ENDBRANCH  22  23
ENDBRANCH   4  22
TORSDOF 7
ENDMDL
