MODEL 1
REMARK VINA RESULT:      -7.9      0.000      0.000
REMARK  Name = 
REMARK  6 active torsions:
REMARK  status: ('A' for Active; 'I' for Inactive)
REMARK    1  A    between atoms: C_1  and  N_2
REMARK    2  A    between atoms: C_4  and  C_5
REMARK    3  A    between atoms: C_11  and  C_12
REMARK    4  A    between atoms: N_14  and  C_15
REMARK    5  A    between atoms: C_15  and  C_16
REMARK    6  A    between atoms: C_18  and  N_19
REMARK                            x       y       z     vdW  Elec       q    Type
REMARK                         _______ _______ _______ _____ _____    ______ ____
ROOT
ATOM      1  C   UNL     1      -2.108  12.447  22.947  0.00  0.00    +0.000 A 
ATOM      2  C   UNL     1      -1.622  13.531  23.680  0.00  0.00    +0.000 A 
ATOM      3  N   UNL     1      -2.407  14.504  24.216  0.00  0.00    +0.000 NA
ATOM      4  C   UNL     1      -3.702  14.305  23.896  0.00  0.00    +0.000 A 
ATOM      5  N   UNL     1      -4.739  15.128  24.226  0.00  0.00    +0.000 N 
ATOM      6  C   UNL     1      -5.889  14.658  23.652  0.00  0.00    +0.000 A 
ATOM      7  C   UNL     1      -5.604  13.490  22.952  0.00  0.00    +0.000 A 
ATOM      8  C   UNL     1      -4.218  13.256  23.140  0.00  0.00    +0.000 A 
ATOM      9  N   UNL     1      -3.427  12.264  22.658  0.00  0.00    +0.000 NA
ATOM     10  H   UNL     1      -4.639  15.978  24.766  0.00  0.00    +0.000 HD
ENDROOT
BRANCH   1  14
ATOM     11  C   UNL     1       1.422   9.166  22.772  0.00  0.00    +0.000 C 
ATOM     12  N   UNL     1       0.345   9.997  22.290  0.00  0.00    +0.000 N 
ATOM     13  N   UNL     1      -0.418  10.674  23.169  0.00  0.00    +0.000 NA
ATOM     14  C   UNL     1      -1.209  11.437  22.398  0.00  0.00    +0.000 A 
ATOM     15  C   UNL     1      -1.005  11.159  21.011  0.00  0.00    +0.000 A 
ATOM     16  C   UNL     1      -1.568  11.613  19.800  0.00  0.00    +0.000 A 
ATOM     17  C   UNL     1      -1.067  11.118  18.593  0.00  0.00    +0.000 A 
ATOM     18  C   UNL     1      -0.032  10.193  18.593  0.00  0.00    +0.000 A 
ATOM     19  F   UNL     1       0.435   9.740  17.420  0.00  0.00    +0.000 F 
ATOM     20  C   UNL     1       0.538   9.721  19.774  0.00  0.00    +0.000 A 
ATOM     21  C   UNL     1       0.023  10.222  20.976  0.00  0.00    +0.000 A 
ENDBRANCH   1  14
BRANCH   7  22
ATOM     22  C   UNL     1      -6.569  12.775  22.135  0.00  0.00    +0.000 C 
ATOM     23  O   UNL     1      -7.765  12.971  22.311  0.00  0.00    +0.000 OA
ATOM     24  N   UNL     1      -6.088  11.910  21.167  0.00  0.00    +0.000 N 
ATOM     25  H   UNL     1      -5.078  11.861  21.052  0.00  0.00    +0.000 HD
BRANCH  24  26
ATOM     26  C   UNL     1      -7.017  11.281  20.170  0.00  0.00    +0.000 C 
ATOM     27  C   UNL     1      -7.917  10.260  20.857  0.00  0.00    +0.000 C 
ATOM     28  C   UNL     1      -6.372  10.594  18.931  0.00  0.00    +0.000 C 
ATOM     29  C   UNL     1      -6.641  11.841  18.081  0.00  0.00    +0.000 C 
ATOM     30  C   UNL     1      -7.586  12.359  19.182  0.00  0.00    +0.000 C 
BRANCH  29  31
ATOM     31  N   UNL     1      -5.402  12.617  18.033  0.00  0.00    +0.000 NA
ATOM     32  H   UNL     1      -4.912  12.608  17.139  0.00  0.00    +0.000 HD
ATOM     33  H   UNL     1      -4.716  12.355  18.737  0.00  0.00    +0.000 HD
ENDBRANCH  29  31
ENDBRANCH  24  26
ENDBRANCH   7  22
TORSDOF 4
ENDMDL
MODEL 2
REMARK VINA RESULT:      -7.7      6.723     11.230
REMARK  Name = 
REMARK  6 active torsions:
REMARK  status: ('A' for Active; 'I' for Inactive)
REMARK    1  A    between atoms: C_1  and  N_2
REMARK    2  A    between atoms: C_4  and  C_5
REMARK    3  A    between atoms: C_11  and  C_12
REMARK    4  A    between atoms: N_14  and  C_15
REMARK    5  A    between atoms: C_15  and  C_16
REMARK    6  A    between atoms: C_18  and  N_19
REMARK                            x       y       z     vdW  Elec       q    Type
REMARK                         _______ _______ _______ _____ _____    ______ ____
ROOT
ATOM      1  C   UNL     1       1.869   6.573  20.144  0.00  0.00    +0.000 A 
ATOM      2  C   UNL     1       0.992   5.617  20.657  0.00  0.00    +0.000 A 
ATOM      3  N   UNL     1       1.300   4.301  20.809  0.00  0.00    +0.000 NA
ATOM      4  C   UNL     1       2.541   4.043  20.346  0.00  0.00    +0.000 A 
ATOM      5  N   UNL     1       3.133   2.814  20.297  0.00  0.00    +0.000 N 
ATOM      6  C   UNL     1       4.351   2.925  19.681  0.00  0.00    +0.000 A 
ATOM      7  C   UNL     1       4.570   4.256  19.341  0.00  0.00    +0.000 A 
ATOM      8  C   UNL     1       3.429   4.964  19.797  0.00  0.00    +0.000 A 
ATOM      9  N   UNL     1       3.126   6.283  19.703  0.00  0.00    +0.000 NA
ATOM     10  H   UNL     1       2.697   1.962  20.622  0.00  0.00    +0.000 HD
ENDROOT
BRANCH   1  14
ATOM     11  C   UNL     1       1.657  11.047  18.355  0.00  0.00    +0.000 C 
ATOM     12  N   UNL     1       1.370   9.949  19.248  0.00  0.00    +0.000 N 
ATOM     13  N   UNL     1       1.767   8.705  18.921  0.00  0.00    +0.000 NA
ATOM     14  C   UNL     1       1.474   7.971  20.007  0.00  0.00    +0.000 A 
ATOM     15  C   UNL     1       0.791   8.751  20.991  0.00  0.00    +0.000 A 
ATOM     16  C   UNL     1       0.229   8.502  22.261  0.00  0.00    +0.000 A 
ATOM     17  C   UNL     1      -0.345   9.562  22.966  0.00  0.00    +0.000 A 
ATOM     18  C   UNL     1      -0.359  10.839  22.421  0.00  0.00    +0.000 A 
ATOM     19  F   UNL     1      -0.910  11.840  23.123  0.00  0.00    +0.000 F 
ATOM     20  C   UNL     1       0.182  11.113  21.165  0.00  0.00    +0.000 A 
ATOM     21  C   UNL     1       0.749  10.039  20.467  0.00  0.00    +0.000 A 
ENDBRANCH   1  14
BRANCH   7  22
ATOM     22  C   UNL     1       5.717   4.723  18.581  0.00  0.00    +0.000 C 
ATOM     23  O   UNL     1       6.842   4.386  18.927  0.00  0.00    +0.000 OA
ATOM     24  N   UNL     1       5.482   5.519  17.473  0.00  0.00    +0.000 N 
ATOM     25  H   UNL     1       4.510   5.692  17.227  0.00  0.00    +0.000 HD
BRANCH  24  26
ATOM     26  C   UNL     1       6.600   5.884  16.540  0.00  0.00    +0.000 C 
ATOM     27  C   UNL     1       7.392   7.060  17.100  0.00  0.00    +0.000 C 
ATOM     28  C   UNL     1       6.218   6.220  15.069  0.00  0.00    +0.000 C 
ATOM     29  C   UNL     1       6.596   4.801  14.631  0.00  0.00    +0.000 C 
ATOM     30  C   UNL     1       7.304   4.597  15.985  0.00  0.00    +0.000 C 
BRANCH  29  31
ATOM     31  N   UNL     1       5.362   4.020  14.552  0.00  0.00    +0.000 NA
ATOM     32  H   UNL     1       4.512   4.556  14.383  0.00  0.00    +0.000 HD
ATOM     33  H   UNL     1       5.176   3.445  15.371  0.00  0.00    +0.000 HD
ENDBRANCH  29  31
ENDBRANCH  24  26
ENDBRANCH   7  22
TORSDOF 4
ENDMDL
MODEL 3
REMARK VINA RESULT:      -7.6      2.162      3.206
REMARK  Name = 
REMARK  6 active torsions:
REMARK  status: ('A' for Active; 'I' for Inactive)
REMARK    1  A    between atoms: C_1  and  N_2
REMARK    2  A    between atoms: C_4  and  C_5
REMARK    3  A    between atoms: C_11  and  C_12
REMARK    4  A    between atoms: N_14  and  C_15
REMARK    5  A    between atoms: C_15  and  C_16
REMARK    6  A    between atoms: C_18  and  N_19
REMARK                            x       y       z     vdW  Elec       q    Type
REMARK                         _______ _______ _______ _____ _____    ______ ____
ROOT
ATOM      1  C   UNL     1      -1.094  12.369  21.385  0.00  0.00    +0.000 A 
ATOM      2  C   UNL     1      -0.062  13.233  21.754  0.00  0.00    +0.000 A 
ATOM      3  N   UNL     1      -0.110  14.066  22.828  0.00  0.00    +0.000 NA
ATOM      4  C   UNL     1      -1.306  13.981  23.447  0.00  0.00    +0.000 A 
ATOM      5  N   UNL     1      -1.701  14.725  24.520  0.00  0.00    +0.000 N 
ATOM      6  C   UNL     1      -3.006  14.433  24.815  0.00  0.00    +0.000 A 
ATOM      7  C   UNL     1      -3.467  13.462  23.931  0.00  0.00    +0.000 A 
ATOM      8  C   UNL     1      -2.369  13.157  23.087  0.00  0.00    +0.000 A 
ATOM      9  N   UNL     1      -2.283  12.292  22.045  0.00  0.00    +0.000 NA
ATOM     10  H   UNL     1      -1.121  15.416  24.975  0.00  0.00    +0.000 HD
ENDROOT
BRANCH   1  14
ATOM     11  C   UNL     1       0.933   9.487  18.092  0.00  0.00    +0.000 C 
ATOM     12  N   UNL     1      -0.109  10.238  18.751  0.00  0.00    +0.000 N 
ATOM     13  N   UNL     1       0.120  10.765  19.969  0.00  0.00    +0.000 NA
ATOM     14  C   UNL     1      -0.976  11.500  20.219  0.00  0.00    +0.000 A 
ATOM     15  C   UNL     1      -1.949  11.349  19.182  0.00  0.00    +0.000 A 
ATOM     16  C   UNL     1      -3.253  11.834  18.947  0.00  0.00    +0.000 A 
ATOM     17  C   UNL     1      -3.901  11.484  17.760  0.00  0.00    +0.000 A 
ATOM     18  C   UNL     1      -3.266  10.672  16.830  0.00  0.00    +0.000 A 
ATOM     19  F   UNL     1      -3.908  10.358  15.695  0.00  0.00    +0.000 F 
ATOM     20  C   UNL     1      -1.981  10.173  17.039  0.00  0.00    +0.000 A 
ATOM     21  C   UNL     1      -1.346  10.527  18.236  0.00  0.00    +0.000 A 
ENDBRANCH   1  14
BRANCH   7  22
ATOM     22  C   UNL     1      -4.839  12.988  23.887  0.00  0.00    +0.000 C 
ATOM     23  O   UNL     1      -5.167  12.035  24.583  0.00  0.00    +0.000 OA
ATOM     24  N   UNL     1      -5.732  13.657  23.066  0.00  0.00    +0.000 N 
ATOM     25  H   UNL     1      -5.382  14.476  22.575  0.00  0.00    +0.000 HD
BRANCH  24  26
ATOM     26  C   UNL     1      -7.198  13.340  23.109  0.00  0.00    +0.000 C 
ATOM     27  C   UNL     1      -7.849  14.014  24.312  0.00  0.00    +0.000 C 
ATOM     28  C   UNL     1      -7.602  11.837  23.125  0.00  0.00    +0.000 C 
ATOM     29  C   UNL     1      -7.868  11.878  21.616  0.00  0.00    +0.000 C 
ATOM     30  C   UNL     1      -7.826  13.417  21.674  0.00  0.00    +0.000 C 
BRANCH  29  31
ATOM     31  N   UNL     1      -6.686  11.337  20.945  0.00  0.00    +0.000 NA
ATOM     32  H   UNL     1      -5.880  11.961  20.902  0.00  0.00    +0.000 HD
ATOM     33  H   UNL     1      -6.852  11.023  19.991  0.00  0.00    +0.000 HD
ENDBRANCH  29  31
ENDBRANCH  24  26
ENDBRANCH   7  22
TORSDOF 4
ENDMDL
MODEL 4
REMARK VINA RESULT:      -7.6      6.830     11.293
REMARK  Name = 
REMARK  6 active torsions:
REMARK  status: ('A' for Active; 'I' for Inactive)
REMARK    1  A    between atoms: C_1  and  N_2
REMARK    2  A    between atoms: C_4  and  C_5
REMARK    3  A    between atoms: C_11  and  C_12
REMARK    4  A    between atoms: N_14  and  C_15
REMARK    5  A    between atoms: C_15  and  C_16
REMARK    6  A    between atoms: C_18  and  N_19
REMARK                            x       y       z     vdW  Elec       q    Type
REMARK                         _______ _______ _______ _____ _____    ______ ____
ROOT
ATOM      1  C   UNL     1       1.692   5.953  20.434  0.00  0.00    +0.000 A 
ATOM      2  C   UNL     1       0.762   4.931  20.625  0.00  0.00    +0.000 A 
ATOM      3  N   UNL     1       1.010   3.616  20.379  0.00  0.00    +0.000 NA
ATOM      4  C   UNL     1       2.250   3.449  19.878  0.00  0.00    +0.000 A 
ATOM      5  N   UNL     1       2.791   2.264  19.472  0.00  0.00    +0.000 N 
ATOM      6  C   UNL     1       4.029   2.494  18.934  0.00  0.00    +0.000 A 
ATOM      7  C   UNL     1       4.314   3.853  19.011  0.00  0.00    +0.000 A 
ATOM      8  C   UNL     1       3.192   4.447  19.643  0.00  0.00    +0.000 A 
ATOM      9  N   UNL     1       2.947   5.747  19.945  0.00  0.00    +0.000 NA
ATOM     10  H   UNL     1       2.311   1.375  19.520  0.00  0.00    +0.000 HD
ENDROOT
BRANCH   1  14
ATOM     11  C   UNL     1      -0.192   9.770  22.701  0.00  0.00    +0.000 C 
ATOM     12  N   UNL     1       0.534   9.041  21.688  0.00  0.00    +0.000 N 
ATOM     13  N   UNL     1       0.822   7.740  21.882  0.00  0.00    +0.000 NA
ATOM     14  C   UNL     1       1.360   7.345  20.717  0.00  0.00    +0.000 A 
ATOM     15  C   UNL     1       1.501   8.444  19.813  0.00  0.00    +0.000 A 
ATOM     16  C   UNL     1       2.022   8.617  18.513  0.00  0.00    +0.000 A 
ATOM     17  C   UNL     1       1.952   9.879  17.919  0.00  0.00    +0.000 A 
ATOM     18  C   UNL     1       1.376  10.942  18.602  0.00  0.00    +0.000 A 
ATOM     19  F   UNL     1       1.315  12.142  18.004  0.00  0.00    +0.000 F 
ATOM     20  C   UNL     1       0.861  10.802  19.889  0.00  0.00    +0.000 A 
ATOM     21  C   UNL     1       0.942   9.532  20.474  0.00  0.00    +0.000 A 
ENDBRANCH   1  14
BRANCH   7  22
ATOM     22  C   UNL     1       5.500   4.470  18.442  0.00  0.00    +0.000 C 
ATOM     23  O   UNL     1       6.571   4.360  19.026  0.00  0.00    +0.000 OA
ATOM     24  N   UNL     1       5.370   5.142  17.239  0.00  0.00    +0.000 N 
ATOM     25  H   UNL     1       4.453   5.125  16.798  0.00  0.00    +0.000 HD
BRANCH  24  26
ATOM     26  C   UNL     1       6.579   5.643  16.505  0.00  0.00    +0.000 C 
ATOM     27  C   UNL     1       7.080   6.938  17.134  0.00  0.00    +0.000 C 
ATOM     28  C   UNL     1       6.436   5.878  14.973  0.00  0.00    +0.000 C 
ATOM     29  C   UNL     1       7.084   4.519  14.689  0.00  0.00    +0.000 C 
ATOM     30  C   UNL     1       7.549   4.460  16.157  0.00  0.00    +0.000 C 
BRANCH  29  31
ATOM     31  N   UNL     1       6.008   3.562  14.431  0.00  0.00    +0.000 NA
ATOM     32  H   UNL     1       5.068   3.887  14.653  0.00  0.00    +0.000 HD
ATOM     33  H   UNL     1       6.119   2.668  14.906  0.00  0.00    +0.000 HD
ENDBRANCH  29  31
ENDBRANCH  24  26
ENDBRANCH   7  22
TORSDOF 4
ENDMDL
MODEL 5
REMARK VINA RESULT:      -7.6      1.530      2.099
REMARK  Name = 
REMARK  6 active torsions:
REMARK  status: ('A' for Active; 'I' for Inactive)
REMARK    1  A    between atoms: C_1  and  N_2
REMARK    2  A    between atoms: C_4  and  C_5
REMARK    3  A    between atoms: C_11  and  C_12
REMARK    4  A    between atoms: N_14  and  C_15
REMARK    5  A    between atoms: C_15  and  C_16
REMARK    6  A    between atoms: C_18  and  N_19
REMARK                            x       y       z     vdW  Elec       q    Type
REMARK                         _______ _______ _______ _____ _____    ______ ____
ROOT
ATOM      1  C   UNL     1      -2.210  13.259  22.446  0.00  0.00    +0.000 A 
ATOM      2  C   UNL     1      -1.888  14.278  23.342  0.00  0.00    +0.000 A 
ATOM      3  N   UNL     1      -2.798  14.939  24.108  0.00  0.00    +0.000 NA
ATOM      4  C   UNL     1      -4.049  14.512  23.840  0.00  0.00    +0.000 A 
ATOM      5  N   UNL     1      -5.194  15.008  24.392  0.00  0.00    +0.000 N 
ATOM      6  C   UNL     1      -6.275  14.398  23.813  0.00  0.00    +0.000 A 
ATOM      7  C   UNL     1      -5.826  13.467  22.881  0.00  0.00    +0.000 A 
ATOM      8  C   UNL     1      -4.410  13.523  22.930  0.00  0.00    +0.000 A 
ATOM      9  N   UNL     1      -3.485  12.836  22.213  0.00  0.00    +0.000 NA
ATOM     10  H   UNL     1      -5.218  15.750  25.079  0.00  0.00    +0.000 HD
ENDROOT
BRANCH   1  14
ATOM     11  C   UNL     1       0.727  12.322  18.738  0.00  0.00    +0.000 C 
ATOM     12  N   UNL     1       0.112  12.149  20.033  0.00  0.00    +0.000 N 
ATOM     13  N   UNL     1      -0.674  13.123  20.530  0.00  0.00    +0.000 NA
ATOM     14  C   UNL     1      -1.183  12.591  21.653  0.00  0.00    +0.000 A 
ATOM     15  C   UNL     1      -0.629  11.300  21.913  0.00  0.00    +0.000 A 
ATOM     16  C   UNL     1      -0.762  10.334  22.933  0.00  0.00    +0.000 A 
ATOM     17  C   UNL     1      -0.060   9.131  22.821  0.00  0.00    +0.000 A 
ATOM     18  C   UNL     1       0.754   8.896  21.721  0.00  0.00    +0.000 A 
ATOM     19  F   UNL     1       1.411   7.730  21.635  0.00  0.00    +0.000 F 
ATOM     20  C   UNL     1       0.911   9.835  20.703  0.00  0.00    +0.000 A 
ATOM     21  C   UNL     1       0.205  11.038  20.830  0.00  0.00    +0.000 A 
ENDBRANCH   1  14
BRANCH   7  22
ATOM     22  C   UNL     1      -6.702  12.707  22.005  0.00  0.00    +0.000 C 
ATOM     23  O   UNL     1      -7.914  12.856  22.093  0.00  0.00    +0.000 OA
ATOM     24  N   UNL     1      -6.118  11.856  21.082  0.00  0.00    +0.000 N 
ATOM     25  H   UNL     1      -5.102  11.847  21.040  0.00  0.00    +0.000 HD
BRANCH  24  26
ATOM     26  C   UNL     1      -6.947  11.182  20.028  0.00  0.00    +0.000 C 
ATOM     27  C   UNL     1      -7.821  10.101  20.654  0.00  0.00    +0.000 C 
ATOM     28  C   UNL     1      -6.191  10.550  18.823  0.00  0.00    +0.000 C 
ATOM     29  C   UNL     1      -6.487  11.787  17.969  0.00  0.00    +0.000 C 
ATOM     30  C   UNL     1      -7.525  12.234  19.017  0.00  0.00    +0.000 C 
BRANCH  29  31
ATOM     31  N   UNL     1      -5.299  12.639  17.999  0.00  0.00    +0.000 NA
ATOM     32  H   UNL     1      -4.473  12.259  17.536  0.00  0.00    +0.000 HD
ATOM     33  H   UNL     1      -5.000  12.910  18.934  0.00  0.00    +0.000 HD
ENDBRANCH  29  31
ENDBRANCH  24  26
ENDBRANCH   7  22
TORSDOF 4
ENDMDL
MODEL 6
REMARK VINA RESULT:      -7.4      6.688     11.274
REMARK  Name = 
REMARK  6 active torsions:
REMARK  status: ('A' for Active; 'I' for Inactive)
REMARK    1  A    between atoms: C_1  and  N_2
REMARK    2  A    between atoms: C_4  and  C_5
REMARK    3  A    between atoms: C_11  and  C_12
REMARK    4  A    between atoms: N_14  and  C_15
REMARK    5  A    between atoms: C_15  and  C_16
REMARK    6  A    between atoms: C_18  and  N_19
REMARK                            x       y       z     vdW  Elec       q    Type
REMARK                         _______ _______ _______ _____ _____    ______ ____
ROOT
ATOM      1  C   UNL     1       1.611   5.444  20.120  0.00  0.00    +0.000 A 
ATOM      2  C   UNL     1       0.735   4.437  20.526  0.00  0.00    +0.000 A 
ATOM      3  N   UNL     1       0.887   3.121  20.217  0.00  0.00    +0.000 NA
ATOM      4  C   UNL     1       1.963   2.937  19.424  0.00  0.00    +0.000 A 
ATOM      5  N   UNL     1       2.362   1.748  18.887  0.00  0.00    +0.000 N 
ATOM      6  C   UNL     1       3.433   1.962  18.062  0.00  0.00    +0.000 A 
ATOM      7  C   UNL     1       3.757   3.315  18.078  0.00  0.00    +0.000 A 
ATOM      8  C   UNL     1       2.838   3.921  18.972  0.00  0.00    +0.000 A 
ATOM      9  N   UNL     1       2.702   5.221  19.335  0.00  0.00    +0.000 NA
ATOM     10  H   UNL     1       1.890   0.867  19.046  0.00  0.00    +0.000 HD
ENDROOT
BRANCH   1  14
ATOM     11  C   UNL     1       0.079   9.253  22.650  0.00  0.00    +0.000 C 
ATOM     12  N   UNL     1       0.717   8.532  21.574  0.00  0.00    +0.000 N 
ATOM     13  N   UNL     1       0.918   7.206  21.691  0.00  0.00    +0.000 NA
ATOM     14  C   UNL     1       1.388   6.839  20.487  0.00  0.00    +0.000 A 
ATOM     15  C   UNL     1       1.577   7.972  19.637  0.00  0.00    +0.000 A 
ATOM     16  C   UNL     1       2.066   8.179  18.330  0.00  0.00    +0.000 A 
ATOM     17  C   UNL     1       2.066   9.474  17.805  0.00  0.00    +0.000 A 
ATOM     18  C   UNL     1       1.590  10.535  18.563  0.00  0.00    +0.000 A 
ATOM     19  F   UNL     1       1.594  11.767  18.031  0.00  0.00    +0.000 F 
ATOM     20  C   UNL     1       1.108  10.361  19.859  0.00  0.00    +0.000 A 
ATOM     21  C   UNL     1       1.119   9.059  20.374  0.00  0.00    +0.000 A 
ENDBRANCH   1  14
BRANCH   7  22
ATOM     22  C   UNL     1       4.779   3.916  17.239  0.00  0.00    +0.000 C 
ATOM     23  O   UNL     1       5.344   3.230  16.397  0.00  0.00    +0.000 OA
ATOM     24  N   UNL     1       5.057   5.261  17.416  0.00  0.00    +0.000 N 
ATOM     25  H   UNL     1       4.492   5.764  18.097  0.00  0.00    +0.000 HD
BRANCH  24  26
ATOM     26  C   UNL     1       5.964   5.989  16.467  0.00  0.00    +0.000 C 
ATOM     27  C   UNL     1       5.484   5.804  15.032  0.00  0.00    +0.000 C 
ATOM     28  C   UNL     1       7.479   5.633  16.516  0.00  0.00    +0.000 C 
ATOM     29  C   UNL     1       7.754   6.861  17.391  0.00  0.00    +0.000 C 
ATOM     30  C   UNL     1       6.353   7.397  17.038  0.00  0.00    +0.000 C 
BRANCH  29  31
ATOM     31  N   UNL     1       7.817   6.408  18.780  0.00  0.00    +0.000 NA
ATOM     32  H   UNL     1       7.981   7.137  19.474  0.00  0.00    +0.000 HD
ATOM     33  H   UNL     1       8.514   5.687  18.955  0.00  0.00    +0.000 HD
ENDBRANCH  29  31
ENDBRANCH  24  26
ENDBRANCH   7  22
TORSDOF 4
ENDMDL
MODEL 7
REMARK VINA RESULT:      -7.2      1.894      2.643
REMARK  Name = 
REMARK  6 active torsions:
REMARK  status: ('A' for Active; 'I' for Inactive)
REMARK    1  A    between atoms: C_1  and  N_2
REMARK    2  A    between atoms: C_4  and  C_5
REMARK    3  A    between atoms: C_11  and  C_12
REMARK    4  A    between atoms: N_14  and  C_15
REMARK    5  A    between atoms: C_15  and  C_16
REMARK    6  A    between atoms: C_18  and  N_19
REMARK                            x       y       z     vdW  Elec       q    Type
REMARK                         _______ _______ _______ _____ _____    ______ ____
ROOT
ATOM      1  C   UNL     1      -1.317  12.136  21.297  0.00  0.00    +0.000 A 
ATOM      2  C   UNL     1      -0.259  12.774  21.946  0.00  0.00    +0.000 A 
ATOM      3  N   UNL     1      -0.398  13.546  23.057  0.00  0.00    +0.000 NA
ATOM      4  C   UNL     1      -1.696  13.652  23.407  0.00  0.00    +0.000 A 
ATOM      5  N   UNL     1      -2.184  14.400  24.439  0.00  0.00    +0.000 N 
ATOM      6  C   UNL     1      -3.552  14.341  24.432  0.00  0.00    +0.000 A 
ATOM      7  C   UNL     1      -3.967  13.518  23.389  0.00  0.00    +0.000 A 
ATOM      8  C   UNL     1      -2.780  13.059  22.765  0.00  0.00    +0.000 A 
ATOM      9  N   UNL     1      -2.617  12.247  21.689  0.00  0.00    +0.000 NA
ATOM     10  H   UNL     1      -1.608  14.949  25.063  0.00  0.00    +0.000 HD
ENDROOT
BRANCH   1  14
ATOM     11  C   UNL     1       1.009   9.459  18.029  0.00  0.00    +0.000 C 
ATOM     12  N   UNL     1      -0.098  10.149  18.649  0.00  0.00    +0.000 N 
ATOM     13  N   UNL     1       0.036  10.632  19.899  0.00  0.00    +0.000 NA
ATOM     14  C   UNL     1      -1.098  11.321  20.107  0.00  0.00    +0.000 A 
ATOM     15  C   UNL     1      -1.998  11.184  19.005  0.00  0.00    +0.000 A 
ATOM     16  C   UNL     1      -3.300  11.637  18.706  0.00  0.00    +0.000 A 
ATOM     17  C   UNL     1      -3.860  11.318  17.467  0.00  0.00    +0.000 A 
ATOM     18  C   UNL     1      -3.141  10.566  16.548  0.00  0.00    +0.000 A 
ATOM     19  F   UNL     1      -3.699  10.280  15.362  0.00  0.00    +0.000 F 
ATOM     20  C   UNL     1      -1.856  10.098  16.819  0.00  0.00    +0.000 A 
ATOM     21  C   UNL     1      -1.309  10.422  18.067  0.00  0.00    +0.000 A 
ENDBRANCH   1  14
BRANCH   7  22
ATOM     22  C   UNL     1      -5.357  13.309  23.022  0.00  0.00    +0.000 C 
ATOM     23  O   UNL     1      -6.240  13.800  23.714  0.00  0.00    +0.000 OA
ATOM     24  N   UNL     1      -5.624  12.574  21.879  0.00  0.00    +0.000 N 
ATOM     25  H   UNL     1      -4.824  12.262  21.334  0.00  0.00    +0.000 HD
BRANCH  24  26
ATOM     26  C   UNL     1      -7.021  12.474  21.340  0.00  0.00    +0.000 C 
ATOM     27  C   UNL     1      -7.859  11.550  22.216  0.00  0.00    +0.000 C 
ATOM     28  C   UNL     1      -7.183  12.012  19.863  0.00  0.00    +0.000 C 
ATOM     29  C   UNL     1      -7.336  13.468  19.409  0.00  0.00    +0.000 C 
ATOM     30  C   UNL     1      -7.542  13.880  20.880  0.00  0.00    +0.000 C 
BRANCH  29  31
ATOM     31  N   UNL     1      -6.037  13.913  18.908  0.00  0.00    +0.000 NA
ATOM     32  H   UNL     1      -5.596  13.299  18.223  0.00  0.00    +0.000 HD
ATOM     33  H   UNL     1      -5.341  14.076  19.632  0.00  0.00    +0.000 HD
ENDBRANCH  29  31
ENDBRANCH  24  26
ENDBRANCH   7  22
TORSDOF 4
ENDMDL
MODEL 8
REMARK VINA RESULT:      -7.0      1.715      2.223
REMARK  Name = 
REMARK  6 active torsions:
REMARK  status: ('A' for Active; 'I' for Inactive)
REMARK    1  A    between atoms: C_1  and  N_2
REMARK    2  A    between atoms: C_4  and  C_5
REMARK    3  A    between atoms: C_11  and  C_12
REMARK    4  A    between atoms: N_14  and  C_15
REMARK    5  A    between atoms: C_15  and  C_16
REMARK    6  A    between atoms: C_18  and  N_19
REMARK                            x       y       z     vdW  Elec       q    Type
REMARK                         _______ _______ _______ _____ _____    ______ ____
ROOT
ATOM      1  C   UNL     1      -1.701  12.741  22.333  0.00  0.00    +0.000 A 
ATOM      2  C   UNL     1      -1.432  13.642  23.364  0.00  0.00    +0.000 A 
ATOM      3  N   UNL     1      -2.388  14.249  24.118  0.00  0.00    +0.000 NA
ATOM      4  C   UNL     1      -3.621  13.903  23.695  0.00  0.00    +0.000 A 
ATOM      5  N   UNL     1      -4.797  14.380  24.197  0.00  0.00    +0.000 N 
ATOM      6  C   UNL     1      -5.838  13.880  23.461  0.00  0.00    +0.000 A 
ATOM      7  C   UNL     1      -5.334  13.041  22.472  0.00  0.00    +0.000 A 
ATOM      8  C   UNL     1      -3.927  13.036  22.650  0.00  0.00    +0.000 A 
ATOM      9  N   UNL     1      -2.961  12.397  21.944  0.00  0.00    +0.000 NA
ATOM     10  H   UNL     1      -4.862  15.041  24.960  0.00  0.00    +0.000 HD
ENDROOT
BRANCH   1  14
ATOM     11  C   UNL     1       1.656  12.192  18.914  0.00  0.00    +0.000 C 
ATOM     12  N   UNL     1       0.850  11.853  20.063  0.00  0.00    +0.000 N 
ATOM     13  N   UNL     1       0.079  12.796  20.636  0.00  0.00    +0.000 NA
ATOM     14  C   UNL     1      -0.626  12.126  21.562  0.00  0.00    +0.000 A 
ATOM     15  C   UNL     1      -0.216  10.758  21.635  0.00  0.00    +0.000 A 
ATOM     16  C   UNL     1      -0.568   9.643  22.424  0.00  0.00    +0.000 A 
ATOM     17  C   UNL     1       0.048   8.414  22.172  0.00  0.00    +0.000 A 
ATOM     18  C   UNL     1       0.990   8.300  21.159  0.00  0.00    +0.000 A 
ATOM     19  F   UNL     1       1.560   7.107  20.933  0.00  0.00    +0.000 F 
ATOM     20  C   UNL     1       1.363   9.386  20.369  0.00  0.00    +0.000 A 
ATOM     21  C   UNL     1       0.741  10.612  20.637  0.00  0.00    +0.000 A 
ENDBRANCH   1  14
BRANCH   7  22
ATOM     22  C   UNL     1      -6.148  12.417  21.443  0.00  0.00    +0.000 C 
ATOM     23  O   UNL     1      -7.205  11.885  21.755  0.00  0.00    +0.000 OA
ATOM     24  N   UNL     1      -5.696  12.473  20.135  0.00  0.00    +0.000 N 
ATOM     25  H   UNL     1      -4.838  12.992  19.965  0.00  0.00    +0.000 HD
BRANCH  24  26
ATOM     26  C   UNL     1      -6.567  12.014  19.002  0.00  0.00    +0.000 C 
ATOM     27  C   UNL     1      -6.727  10.499  19.039  0.00  0.00    +0.000 C 
ATOM     28  C   UNL     1      -6.134  12.416  17.562  0.00  0.00    +0.000 C 
ATOM     29  C   UNL     1      -7.124  13.586  17.575  0.00  0.00    +0.000 C 
ATOM     30  C   UNL     1      -7.795  12.974  18.820  0.00  0.00    +0.000 C 
BRANCH  29  31
ATOM     31  N   UNL     1      -6.375  14.795  17.913  0.00  0.00    +0.000 NA
ATOM     32  H   UNL     1      -6.761  15.668  17.553  0.00  0.00    +0.000 HD
ATOM     33  H   UNL     1      -5.398  14.777  17.626  0.00  0.00    +0.000 HD
ENDBRANCH  29  31
ENDBRANCH  24  26
ENDBRANCH   7  22
TORSDOF 4
ENDMDL
MODEL 9
REMARK VINA RESULT:      -7.0      2.409      5.002
REMARK  Name = 
REMARK  6 active torsions:
REMARK  status: ('A' for Active; 'I' for Inactive)
REMARK    1  A    between atoms: C_1  and  N_2
REMARK    2  A    between atoms: C_4  and  C_5
REMARK    3  A    between atoms: C_11  and  C_12
REMARK    4  A    between atoms: N_14  and  C_15
REMARK    5  A    between atoms: C_15  and  C_16
REMARK    6  A    between atoms: C_18  and  N_19
REMARK                            x       y       z     vdW  Elec       q    Type
REMARK                         _______ _______ _______ _____ _____    ______ ____
ROOT
ATOM      1  C   UNL     1      -2.778  11.496  17.964  0.00  0.00    +0.000 A 
ATOM      2  C   UNL     1      -3.329  11.186  16.720  0.00  0.00    +0.000 A 
ATOM      3  N   UNL     1      -4.651  11.296  16.421  0.00  0.00    +0.000 NA
ATOM      4  C   UNL     1      -5.356  11.688  17.502  0.00  0.00    +0.000 A 
ATOM      5  N   UNL     1      -6.711  11.838  17.557  0.00  0.00    +0.000 N 
ATOM      6  C   UNL     1      -7.077  12.156  18.838  0.00  0.00    +0.000 A 
ATOM      7  C   UNL     1      -5.937  12.239  19.631  0.00  0.00    +0.000 A 
ATOM      8  C   UNL     1      -4.845  11.973  18.765  0.00  0.00    +0.000 A 
ATOM      9  N   UNL     1      -3.516  11.911  19.031  0.00  0.00    +0.000 NA
ATOM     10  H   UNL     1      -7.331  11.680  16.775  0.00  0.00    +0.000 HD
ENDROOT
BRANCH   1  14
ATOM     11  C   UNL     1       1.442   9.379  18.948  0.00  0.00    +0.000 C 
ATOM     12  N   UNL     1       0.519  10.452  18.660  0.00  0.00    +0.000 N 
ATOM     13  N   UNL     1      -0.733  10.162  18.258  0.00  0.00    +0.000 NA
ATOM     14  C   UNL     1      -1.348  11.355  18.218  0.00  0.00    +0.000 A 
ATOM     15  C   UNL     1      -0.437  12.419  18.505  0.00  0.00    +0.000 A 
ATOM     16  C   UNL     1      -0.518  13.826  18.561  0.00  0.00    +0.000 A 
ATOM     17  C   UNL     1       0.617  14.555  18.924  0.00  0.00    +0.000 A 
ATOM     18  C   UNL     1       1.803  13.899  19.224  0.00  0.00    +0.000 A 
ATOM     19  F   UNL     1       2.875  14.623  19.577  0.00  0.00    +0.000 F 
ATOM     20  C   UNL     1       1.914  12.510  19.169  0.00  0.00    +0.000 A 
ATOM     21  C   UNL     1       0.770  11.793  18.799  0.00  0.00    +0.000 A 
ENDBRANCH   1  14
BRANCH   7  22
ATOM     22  C   UNL     1      -5.959  12.457  21.067  0.00  0.00    +0.000 C 
ATOM     23  O   UNL     1      -6.606  11.699  21.778  0.00  0.00    +0.000 OA
ATOM     24  N   UNL     1      -5.221  13.512  21.575  0.00  0.00    +0.000 N 
ATOM     25  H   UNL     1      -4.665  14.048  20.913  0.00  0.00    +0.000 HD
BRANCH  24  26
ATOM     26  C   UNL     1      -5.051  13.686  23.056  0.00  0.00    +0.000 C 
ATOM     27  C   UNL     1      -6.389  14.016  23.707  0.00  0.00    +0.000 C 
ATOM     28  C   UNL     1      -4.012  14.743  23.534  0.00  0.00    +0.000 C 
ATOM     29  C   UNL     1      -2.970  13.640  23.755  0.00  0.00    +0.000 C 
ATOM     30  C   UNL     1      -4.092  12.590  23.639  0.00  0.00    +0.000 C 
BRANCH  29  31
ATOM     31  N   UNL     1      -2.096  13.619  22.582  0.00  0.00    +0.000 NA
ATOM     32  H   UNL     1      -2.186  12.800  21.981  0.00  0.00    +0.000 HD
ATOM     33  H   UNL     1      -1.105  13.707  22.796  0.00  0.00    +0.000 HD
ENDBRANCH  29  31
ENDBRANCH  24  26
ENDBRANCH   7  22
TORSDOF 4
ENDMDL
