MODEL 1
REMARK VINA RESULT:      -8.9      0.000      0.000
REMARK  Name = 
REMARK  9 active torsions:
REMARK  status: ('A' for Active; 'I' for Inactive)
REMARK    1  A    between atoms: C_1  and  O_2
REMARK    2  A    between atoms: O_2  and  C_3
REMARK    3  A    between atoms: C_9  and  C_10
REMARK    4  A    between atoms: C_14  and  C_15
REMARK    5  A    between atoms: C_15  and  C_16
REMARK    6  A    between atoms: C_15  and  C_20
REMARK    7  A    between atoms: C_16  and  C_17
REMARK    8  A    between atoms: C_17  and  O_19
REMARK    9  A    between atoms: C_23  and  C_24
REMARK                            x       y       z     vdW  Elec       q    Type
REMARK                         _______ _______ _______ _____ _____    ______ ____
ROOT
ATOM      1  C   UNL     1       3.066   5.856  18.176  0.00  0.00    +0.000 A 
ATOM      2  C   UNL     1       2.436   4.682  17.755  0.00  0.00    +0.000 A 
ATOM      3  N   UNL     1       3.021   3.671  17.061  0.00  0.00    +0.000 NA
ATOM      4  C   UNL     1       4.332   3.803  16.787  0.00  0.00    +0.000 A 
ATOM      5  C   UNL     1       5.091   4.907  17.152  0.00  0.00    +0.000 A 
ATOM      6  C   UNL     1       4.428   5.942  17.835  0.00  0.00    +0.000 A 
ENDROOT
BRANCH   1  13
ATOM      7  C   UNL     1       1.933   6.763  20.293  0.00  0.00    +0.000 A 
ATOM      8  C   UNL     1       1.296   7.815  20.977  0.00  0.00    +0.000 A 
ATOM      9  C   UNL     1       1.038   9.029  20.345  0.00  0.00    +0.000 A 
ATOM     10  C   UNL     1       1.433   9.207  19.029  0.00  0.00    +0.000 A 
ATOM     11  C   UNL     1       2.093   8.177  18.356  0.00  0.00    +0.000 A 
ATOM     12  F   UNL     1       2.483   8.439  17.098  0.00  0.00    +0.000 F 
ATOM     13  C   UNL     1       2.366   6.925  18.949  0.00  0.00    +0.000 A 
BRANCH   7  15
ATOM     14  C   UNL     1       1.218   4.530  20.762  0.00  0.00    +0.000 C 
ATOM     15  O   UNL     1       2.191   5.557  20.898  0.00  0.00    +0.000 OA
ENDBRANCH   7  15
ENDBRANCH   1  13
BRANCH   5  16
ATOM     16  C   UNL     1       6.582   4.995  16.868  0.00  0.00    +0.000 C 
BRANCH  16  17
ATOM     17  C   UNL     1       6.854   4.878  15.401  0.00  0.00    +0.000 A 
ATOM     18  N   UNL     1       7.716   5.545  14.660  0.00  0.00    +0.000 NA
ATOM     19  N   UNL     1       7.581   5.062  13.377  0.00  0.00    +0.000 NA
ATOM     20  C   UNL     1       6.645   4.138  13.424  0.00  0.00    +0.000 A 
ATOM     21  C   UNL     1       6.104   3.292  12.348  0.00  0.00    +0.000 C 
ATOM     22  O   UNL     1       6.136   3.957  14.684  0.00  0.00    +0.000 OA
ENDBRANCH  16  17
BRANCH  16  23
ATOM     23  C   UNL     1       7.213   6.294  17.396  0.00  0.00    +0.000 C 
BRANCH  23  24
ATOM     24  C   UNL     1       7.794   6.114  18.773  0.00  0.00    +0.000 C 
ATOM     25  O   UNL     1       7.599   5.138  19.475  0.00  0.00    +0.000 OA
BRANCH  24  26
ATOM     26  O   UNL     1       8.618   7.117  19.138  0.00  0.00    +0.000 OA
ATOM     27  H   UNL     1       8.278   7.698  19.847  0.00  0.00    +0.000 HD
ENDBRANCH  24  26
ENDBRANCH  23  24
ENDBRANCH  16  23
ENDBRANCH   5  16
TORSDOF 7
ENDMDL
MODEL 2
REMARK VINA RESULT:      -8.8      1.706      3.433
REMARK  Name = 
REMARK  9 active torsions:
REMARK  status: ('A' for Active; 'I' for Inactive)
REMARK    1  A    between atoms: C_1  and  O_2
REMARK    2  A    between atoms: O_2  and  C_3
REMARK    3  A    between atoms: C_9  and  C_10
REMARK    4  A    between atoms: C_14  and  C_15
REMARK    5  A    between atoms: C_15  and  C_16
REMARK    6  A    between atoms: C_15  and  C_20
REMARK    7  A    between atoms: C_16  and  C_17
REMARK    8  A    between atoms: C_17  and  O_19
REMARK    9  A    between atoms: C_23  and  C_24
REMARK                            x       y       z     vdW  Elec       q    Type
REMARK                         _______ _______ _______ _____ _____    ______ ____
ROOT
ATOM      1  C   UNL     1       3.010   6.179  18.095  0.00  0.00    +0.000 A 
ATOM      2  C   UNL     1       2.562   4.881  17.832  0.00  0.00    +0.000 A 
ATOM      3  N   UNL     1       3.199   3.962  17.061  0.00  0.00    +0.000 NA
ATOM      4  C   UNL     1       4.382   4.326  16.533  0.00  0.00    +0.000 A 
ATOM      5  C   UNL     1       4.958   5.577  16.717  0.00  0.00    +0.000 A 
ATOM      6  C   UNL     1       4.239   6.504  17.492  0.00  0.00    +0.000 A 
ENDROOT
BRANCH   1  13
ATOM      7  C   UNL     1       1.897   6.853  20.307  0.00  0.00    +0.000 A 
ATOM      8  C   UNL     1       1.214   7.805  21.085  0.00  0.00    +0.000 A 
ATOM      9  C   UNL     1       0.848   9.039  20.549  0.00  0.00    +0.000 A 
ATOM     10  C   UNL     1       1.179   9.335  19.237  0.00  0.00    +0.000 A 
ATOM     11  C   UNL     1       1.885   8.405  18.472  0.00  0.00    +0.000 A 
ATOM     12  F   UNL     1       2.208   8.781  17.224  0.00  0.00    +0.000 F 
ATOM     13  C   UNL     1       2.267   7.138  18.965  0.00  0.00    +0.000 A 
BRANCH   7  15
ATOM     14  C   UNL     1       1.285   4.597  20.811  0.00  0.00    +0.000 C 
ATOM     15  O   UNL     1       2.262   5.630  20.815  0.00  0.00    +0.000 OA
ENDBRANCH   7  15
ENDBRANCH   1  13
BRANCH   5  16
ATOM     16  C   UNL     1       6.320   5.933  16.146  0.00  0.00    +0.000 C 
BRANCH  16  17
ATOM     17  C   UNL     1       7.160   6.635  17.167  0.00  0.00    +0.000 A 
ATOM     18  N   UNL     1       7.741   6.147  18.244  0.00  0.00    +0.000 NA
ATOM     19  N   UNL     1       8.399   7.200  18.842  0.00  0.00    +0.000 NA
ATOM     20  C   UNL     1       8.170   8.256  18.091  0.00  0.00    +0.000 A 
ATOM     21  C   UNL     1       8.636   9.643  18.253  0.00  0.00    +0.000 C 
ATOM     22  O   UNL     1       7.393   7.975  16.997  0.00  0.00    +0.000 OA
ENDBRANCH  16  17
BRANCH  16  23
ATOM     23  C   UNL     1       7.086   4.707  15.621  0.00  0.00    +0.000 C 
BRANCH  23  24
ATOM     24  C   UNL     1       7.166   4.699  14.118  0.00  0.00    +0.000 C 
ATOM     25  O   UNL     1       6.461   4.014  13.400  0.00  0.00    +0.000 OA
BRANCH  24  26
ATOM     26  O   UNL     1       8.059   5.583  13.629  0.00  0.00    +0.000 OA
ATOM     27  H   UNL     1       8.688   5.946  14.283  0.00  0.00    +0.000 HD
ENDBRANCH  24  26
ENDBRANCH  23  24
ENDBRANCH  16  23
ENDBRANCH   5  16
TORSDOF 7
ENDMDL
MODEL 3
REMARK VINA RESULT:      -8.3      2.704      4.734
REMARK  Name = 
REMARK  9 active torsions:
REMARK  status: ('A' for Active; 'I' for Inactive)
REMARK    1  A    between atoms: C_1  and  O_2
REMARK    2  A    between atoms: O_2  and  C_3
REMARK    3  A    between atoms: C_9  and  C_10
REMARK    4  A    between atoms: C_14  and  C_15
REMARK    5  A    between atoms: C_15  and  C_16
REMARK    6  A    between atoms: C_15  and  C_20
REMARK    7  A    between atoms: C_16  and  C_17
REMARK    8  A    between atoms: C_17  and  O_19
REMARK    9  A    between atoms: C_23  and  C_24
REMARK                            x       y       z     vdW  Elec       q    Type
REMARK                         _______ _______ _______ _____ _____    ______ ____
ROOT
ATOM      1  C   UNL     1       2.958   5.552  18.665  0.00  0.00    +0.000 A 
ATOM      2  C   UNL     1       2.236   6.712  18.373  0.00  0.00    +0.000 A 
ATOM      3  N   UNL     1       2.685   7.766  17.643  0.00  0.00    +0.000 NA
ATOM      4  C   UNL     1       3.925   7.664  17.130  0.00  0.00    +0.000 A 
ATOM      5  C   UNL     1       4.755   6.568  17.327  0.00  0.00    +0.000 A 
ATOM      6  C   UNL     1       4.256   5.521  18.122  0.00  0.00    +0.000 A 
ENDROOT
BRANCH   1  13
ATOM      7  C   UNL     1       2.175   3.123  18.933  0.00  0.00    +0.000 A 
ATOM      8  C   UNL     1       1.664   2.091  19.741  0.00  0.00    +0.000 A 
ATOM      9  C   UNL     1       1.327   2.324  21.073  0.00  0.00    +0.000 A 
ATOM     10  C   UNL     1       1.517   3.587  21.611  0.00  0.00    +0.000 A 
ATOM     11  C   UNL     1       2.053   4.605  20.821  0.00  0.00    +0.000 A 
ATOM     12  F   UNL     1       2.250   5.788  21.424  0.00  0.00    +0.000 F 
ATOM     13  C   UNL     1       2.399   4.422  19.464  0.00  0.00    +0.000 A 
BRANCH   7  15
ATOM     14  C   UNL     1       3.569   2.010  17.340  0.00  0.00    +0.000 C 
ATOM     15  O   UNL     1       2.508   2.914  17.616  0.00  0.00    +0.000 OA
ENDBRANCH   7  15
ENDBRANCH   1  13
BRANCH   5  16
ATOM     16  C   UNL     1       6.131   6.469  16.688  0.00  0.00    +0.000 C 
BRANCH  16  17
ATOM     17  C   UNL     1       7.152   7.202  17.502  0.00  0.00    +0.000 A 
ATOM     18  N   UNL     1       7.913   6.754  18.480  0.00  0.00    +0.000 NA
ATOM     19  N   UNL     1       8.682   7.819  18.893  0.00  0.00    +0.000 NA
ATOM     20  C   UNL     1       8.334   8.842  18.142  0.00  0.00    +0.000 A 
ATOM     21  C   UNL     1       8.840  10.225  18.144  0.00  0.00    +0.000 C 
ATOM     22  O   UNL     1       7.368   8.526  17.223  0.00  0.00    +0.000 OA
ENDBRANCH  16  17
BRANCH  16  23
ATOM     23  C   UNL     1       6.593   5.016  16.490  0.00  0.00    +0.000 C 
BRANCH  23  24
ATOM     24  C   UNL     1       6.946   4.732  15.054  0.00  0.00    +0.000 C 
ATOM     25  O   UNL     1       7.685   5.428  14.382  0.00  0.00    +0.000 OA
BRANCH  24  26
ATOM     26  O   UNL     1       6.413   3.583  14.593  0.00  0.00    +0.000 OA
ATOM     27  H   UNL     1       6.084   3.616  13.673  0.00  0.00    +0.000 HD
ENDBRANCH  24  26
ENDBRANCH  23  24
ENDBRANCH  16  23
ENDBRANCH   5  16
TORSDOF 7
ENDMDL
MODEL 4
REMARK VINA RESULT:      -8.3      1.735      2.913
REMARK  Name = 
REMARK  9 active torsions:
REMARK  status: ('A' for Active; 'I' for Inactive)
REMARK    1  A    between atoms: C_1  and  O_2
REMARK    2  A    between atoms: O_2  and  C_3
REMARK    3  A    between atoms: C_9  and  C_10
REMARK    4  A    between atoms: C_14  and  C_15
REMARK    5  A    between atoms: C_15  and  C_16
REMARK    6  A    between atoms: C_15  and  C_20
REMARK    7  A    between atoms: C_16  and  C_17
REMARK    8  A    between atoms: C_17  and  O_19
REMARK    9  A    between atoms: C_23  and  C_24
REMARK                            x       y       z     vdW  Elec       q    Type
REMARK                         _______ _______ _______ _____ _____    ______ ____
ROOT
ATOM      1  C   UNL     1       3.171   5.269  18.206  0.00  0.00    +0.000 A 
ATOM      2  C   UNL     1       2.773   6.549  17.813  0.00  0.00    +0.000 A 
ATOM      3  N   UNL     1       3.564   7.481  17.220  0.00  0.00    +0.000 NA
ATOM      4  C   UNL     1       4.835   7.121  16.959  0.00  0.00    +0.000 A 
ATOM      5  C   UNL     1       5.368   5.880  17.281  0.00  0.00    +0.000 A 
ATOM      6  C   UNL     1       4.517   4.966  17.929  0.00  0.00    +0.000 A 
ENDROOT
BRANCH   1  13
ATOM      7  C   UNL     1       1.787   4.396  20.182  0.00  0.00    +0.000 A 
ATOM      8  C   UNL     1       0.898   3.449  20.722  0.00  0.00    +0.000 A 
ATOM      9  C   UNL     1       0.471   2.357  19.969  0.00  0.00    +0.000 A 
ATOM     10  C   UNL     1       0.917   2.214  18.665  0.00  0.00    +0.000 A 
ATOM     11  C   UNL     1       1.775   3.169  18.116  0.00  0.00    +0.000 A 
ATOM     12  F   UNL     1       2.129   2.987  16.834  0.00  0.00    +0.000 F 
ATOM     13  C   UNL     1       2.245   4.286  18.842  0.00  0.00    +0.000 A 
BRANCH   7  15
ATOM     14  C   UNL     1       1.366   6.608  20.988  0.00  0.00    +0.000 C 
ATOM     15  O   UNL     1       2.223   5.477  20.911  0.00  0.00    +0.000 OA
ENDBRANCH   7  15
ENDBRANCH   1  13
BRANCH   5  16
ATOM     16  C   UNL     1       6.793   5.494  16.924  0.00  0.00    +0.000 C 
BRANCH  16  17
ATOM     17  C   UNL     1       6.908   5.161  15.469  0.00  0.00    +0.000 A 
ATOM     18  N   UNL     1       7.807   5.563  14.593  0.00  0.00    +0.000 NA
ATOM     19  N   UNL     1       7.473   4.972  13.395  0.00  0.00    +0.000 NA
ATOM     20  C   UNL     1       6.393   4.255  13.622  0.00  0.00    +0.000 A 
ATOM     21  C   UNL     1       5.614   3.411  12.701  0.00  0.00    +0.000 C 
ATOM     22  O   UNL     1       5.975   4.318  14.926  0.00  0.00    +0.000 OA
ENDBRANCH  16  17
BRANCH  16  23
ATOM     23  C   UNL     1       7.813   6.590  17.273  0.00  0.00    +0.000 C 
BRANCH  23  24
ATOM     24  C   UNL     1       8.130   6.612  18.744  0.00  0.00    +0.000 C 
ATOM     25  O   UNL     1       7.957   5.669  19.494  0.00  0.00    +0.000 OA
BRANCH  24  26
ATOM     26  O   UNL     1       8.694   7.768  19.149  0.00  0.00    +0.000 OA
ATOM     27  H   UNL     1       8.352   8.573  18.714  0.00  0.00    +0.000 HD
ENDBRANCH  24  26
ENDBRANCH  23  24
ENDBRANCH  16  23
ENDBRANCH   5  16
TORSDOF 7
ENDMDL
MODEL 5
REMARK VINA RESULT:      -8.2      2.215      3.991
REMARK  Name = 
REMARK  9 active torsions:
REMARK  status: ('A' for Active; 'I' for Inactive)
REMARK    1  A    between atoms: C_1  and  O_2
REMARK    2  A    between atoms: O_2  and  C_3
REMARK    3  A    between atoms: C_9  and  C_10
REMARK    4  A    between atoms: C_14  and  C_15
REMARK    5  A    between atoms: C_15  and  C_16
REMARK    6  A    between atoms: C_15  and  C_20
REMARK    7  A    between atoms: C_16  and  C_17
REMARK    8  A    between atoms: C_17  and  O_19
REMARK    9  A    between atoms: C_23  and  C_24
REMARK                            x       y       z     vdW  Elec       q    Type
REMARK                         _______ _______ _______ _____ _____    ______ ____
ROOT
ATOM      1  C   UNL     1       2.730   6.070  18.394  0.00  0.00    +0.000 A 
ATOM      2  C   UNL     1       2.197   4.803  18.142  0.00  0.00    +0.000 A 
ATOM      3  N   UNL     1       2.730   3.866  17.315  0.00  0.00    +0.000 NA
ATOM      4  C   UNL     1       3.894   4.179  16.714  0.00  0.00    +0.000 A 
ATOM      5  C   UNL     1       4.546   5.394  16.878  0.00  0.00    +0.000 A 
ATOM      6  C   UNL     1       3.932   6.342  17.715  0.00  0.00    +0.000 A 
ENDROOT
BRANCH   1  13
ATOM      7  C   UNL     1       1.785   8.386  18.964  0.00  0.00    +0.000 A 
ATOM      8  C   UNL     1       1.171   9.258  19.881  0.00  0.00    +0.000 A 
ATOM      9  C   UNL     1       0.888   8.847  21.182  0.00  0.00    +0.000 A 
ATOM     10  C   UNL     1       1.201   7.554  21.569  0.00  0.00    +0.000 A 
ATOM     11  C   UNL     1       1.781   6.676  20.652  0.00  0.00    +0.000 A 
ATOM     12  F   UNL     1       2.015   5.427  21.086  0.00  0.00    +0.000 F 
ATOM     13  C   UNL     1       2.098   7.049  19.327  0.00  0.00    +0.000 A 
BRANCH   7  15
ATOM     14  C   UNL     1       2.423  10.137  17.465  0.00  0.00    +0.000 C 
ATOM     15  O   UNL     1       2.077   8.775  17.679  0.00  0.00    +0.000 OA
ENDBRANCH   7  15
ENDBRANCH   1  13
BRANCH   5  16
ATOM     16  C   UNL     1       5.885   5.689  16.222  0.00  0.00    +0.000 C 
BRANCH  16  17
ATOM     17  C   UNL     1       6.806   6.383  17.176  0.00  0.00    +0.000 A 
ATOM     18  N   UNL     1       7.435   5.897  18.227  0.00  0.00    +0.000 NA
ATOM     19  N   UNL     1       8.160   6.938  18.763  0.00  0.00    +0.000 NA
ATOM     20  C   UNL     1       7.919   7.987  18.006  0.00  0.00    +0.000 A 
ATOM     21  C   UNL     1       8.436   9.361  18.111  0.00  0.00    +0.000 C 
ATOM     22  O   UNL     1       7.069   7.711  16.966  0.00  0.00    +0.000 OA
ENDBRANCH  16  17
BRANCH  16  23
ATOM     23  C   UNL     1       6.576   4.426  15.683  0.00  0.00    +0.000 C 
BRANCH  23  24
ATOM     24  C   UNL     1       6.992   4.587  14.245  0.00  0.00    +0.000 C 
ATOM     25  O   UNL     1       7.739   5.460  13.843  0.00  0.00    +0.000 OA
BRANCH  24  26
ATOM     26  O   UNL     1       6.506   3.621  13.440  0.00  0.00    +0.000 OA
ATOM     27  H   UNL     1       6.878   3.605  12.537  0.00  0.00    +0.000 HD
ENDBRANCH  24  26
ENDBRANCH  23  24
ENDBRANCH  16  23
ENDBRANCH   5  16
TORSDOF 7
ENDMDL
MODEL 6
REMARK VINA RESULT:      -8.1      2.119      3.145
REMARK  Name = 
REMARK  9 active torsions:
REMARK  status: ('A' for Active; 'I' for Inactive)
REMARK    1  A    between atoms: C_1  and  O_2
REMARK    2  A    between atoms: O_2  and  C_3
REMARK    3  A    between atoms: C_9  and  C_10
REMARK    4  A    between atoms: C_14  and  C_15
REMARK    5  A    between atoms: C_15  and  C_16
REMARK    6  A    between atoms: C_15  and  C_20
REMARK    7  A    between atoms: C_16  and  C_17
REMARK    8  A    between atoms: C_17  and  O_19
REMARK    9  A    between atoms: C_23  and  C_24
REMARK                            x       y       z     vdW  Elec       q    Type
REMARK                         _______ _______ _______ _____ _____    ______ ____
ROOT
ATOM      1  C   UNL     1       3.361   5.159  18.576  0.00  0.00    +0.000 A 
ATOM      2  C   UNL     1       2.785   6.301  18.014  0.00  0.00    +0.000 A 
ATOM      3  N   UNL     1       3.417   7.195  17.209  0.00  0.00    +0.000 NA
ATOM      4  C   UNL     1       4.701   6.935  16.903  0.00  0.00    +0.000 A 
ATOM      5  C   UNL     1       5.401   5.834  17.379  0.00  0.00    +0.000 A 
ATOM      6  C   UNL     1       4.713   4.961  18.239  0.00  0.00    +0.000 A 
ENDROOT
BRANCH   1  13
ATOM      7  C   UNL     1       2.304   2.872  19.064  0.00  0.00    +0.000 A 
ATOM      8  C   UNL     1       1.605   2.014  19.933  0.00  0.00    +0.000 A 
ATOM      9  C   UNL     1       1.157   2.462  21.174  0.00  0.00    +0.000 A 
ATOM     10  C   UNL     1       1.420   3.765  21.562  0.00  0.00    +0.000 A 
ATOM     11  C   UNL     1       2.141   4.610  20.715  0.00  0.00    +0.000 A 
ATOM     12  F   UNL     1       2.395   5.844  21.178  0.00  0.00    +0.000 F 
ATOM     13  C   UNL     1       2.605   4.207  19.444  0.00  0.00    +0.000 A 
BRANCH   7  15
ATOM     14  C   UNL     1       3.767   1.459  17.806  0.00  0.00    +0.000 C 
ATOM     15  O   UNL     1       2.750   2.450  17.834  0.00  0.00    +0.000 OA
ENDBRANCH   7  15
ENDBRANCH   1  13
BRANCH   5  16
ATOM     16  C   UNL     1       6.837   5.549  16.969  0.00  0.00    +0.000 C 
BRANCH  16  17
ATOM     17  C   UNL     1       6.919   5.207  15.514  0.00  0.00    +0.000 A 
ATOM     18  N   UNL     1       7.786   5.620  14.611  0.00  0.00    +0.000 NA
ATOM     19  N   UNL     1       7.432   5.013  13.427  0.00  0.00    +0.000 NA
ATOM     20  C   UNL     1       6.373   4.277  13.688  0.00  0.00    +0.000 A 
ATOM     21  C   UNL     1       5.586   3.411  12.794  0.00  0.00    +0.000 C 
ATOM     22  O   UNL     1       5.988   4.342  15.002  0.00  0.00    +0.000 OA
ENDBRANCH  16  17
BRANCH  16  23
ATOM     23  C   UNL     1       7.786   6.721  17.266  0.00  0.00    +0.000 C 
BRANCH  23  24
ATOM     24  C   UNL     1       8.147   6.793  18.726  0.00  0.00    +0.000 C 
ATOM     25  O   UNL     1       8.004   5.873  19.511  0.00  0.00    +0.000 OA
BRANCH  24  26
ATOM     26  O   UNL     1       8.713   7.965  19.077  0.00  0.00    +0.000 OA
ATOM     27  H   UNL     1       9.683   7.941  19.193  0.00  0.00    +0.000 HD
ENDBRANCH  24  26
ENDBRANCH  23  24
ENDBRANCH  16  23
ENDBRANCH   5  16
TORSDOF 7
ENDMDL
MODEL 7
REMARK VINA RESULT:      -8.1      2.275      3.413
REMARK  Name = 
REMARK  9 active torsions:
REMARK  status: ('A' for Active; 'I' for Inactive)
REMARK    1  A    between atoms: C_1  and  O_2
REMARK    2  A    between atoms: O_2  and  C_3
REMARK    3  A    between atoms: C_9  and  C_10
REMARK    4  A    between atoms: C_14  and  C_15
REMARK    5  A    between atoms: C_15  and  C_16
REMARK    6  A    between atoms: C_15  and  C_20
REMARK    7  A    between atoms: C_16  and  C_17
REMARK    8  A    between atoms: C_17  and  O_19
REMARK    9  A    between atoms: C_23  and  C_24
REMARK                            x       y       z     vdW  Elec       q    Type
REMARK                         _______ _______ _______ _____ _____    ______ ____
ROOT
ATOM      1  C   UNL     1       3.141   5.354  18.768  0.00  0.00    +0.000 A 
ATOM      2  C   UNL     1       2.583   6.565  18.347  0.00  0.00    +0.000 A 
ATOM      3  N   UNL     1       3.227   7.537  17.650  0.00  0.00    +0.000 NA
ATOM      4  C   UNL     1       4.506   7.293  17.308  0.00  0.00    +0.000 A 
ATOM      5  C   UNL     1       5.188   6.132  17.647  0.00  0.00    +0.000 A 
ATOM      6  C   UNL     1       4.487   5.174  18.401  0.00  0.00    +0.000 A 
ENDROOT
BRANCH   1  13
ATOM      7  C   UNL     1       1.759   3.196  18.904  0.00  0.00    +0.000 A 
ATOM      8  C   UNL     1       1.063   2.243  19.670  0.00  0.00    +0.000 A 
ATOM      9  C   UNL     1       0.923   2.394  21.048  0.00  0.00    +0.000 A 
ATOM     10  C   UNL     1       1.494   3.492  21.672  0.00  0.00    +0.000 A 
ATOM     11  C   UNL     1       2.211   4.423  20.920  0.00  0.00    +0.000 A 
ATOM     12  F   UNL     1       2.773   5.436  21.602  0.00  0.00    +0.000 F 
ATOM     13  C   UNL     1       2.371   4.320  19.521  0.00  0.00    +0.000 A 
BRANCH   7  15
ATOM     14  C   UNL     1       2.957   2.240  17.069  0.00  0.00    +0.000 C 
ATOM     15  O   UNL     1       1.904   3.067  17.544  0.00  0.00    +0.000 OA
ENDBRANCH   7  15
ENDBRANCH   1  13
BRANCH   5  16
ATOM     16  C   UNL     1       6.617   5.872  17.198  0.00  0.00    +0.000 C 
BRANCH  16  17
ATOM     17  C   UNL     1       6.642   5.156  15.884  0.00  0.00    +0.000 A 
ATOM     18  N   UNL     1       6.039   4.038  15.534  0.00  0.00    +0.000 NA
ATOM     19  N   UNL     1       6.378   3.809  14.219  0.00  0.00    +0.000 NA
ATOM     20  C   UNL     1       7.167   4.799  13.860  0.00  0.00    +0.000 A 
ATOM     21  C   UNL     1       7.814   5.063  12.564  0.00  0.00    +0.000 C 
ATOM     22  O   UNL     1       7.377   5.706  14.866  0.00  0.00    +0.000 OA
ENDBRANCH  16  17
BRANCH  16  23
ATOM     23  C   UNL     1       7.450   7.159  17.088  0.00  0.00    +0.000 C 
BRANCH  23  24
ATOM     24  C   UNL     1       8.169   7.472  18.373  0.00  0.00    +0.000 C 
ATOM     25  O   UNL     1       8.593   8.575  18.667  0.00  0.00    +0.000 OA
BRANCH  24  26
ATOM     26  O   UNL     1       8.245   6.418  19.210  0.00  0.00    +0.000 OA
ATOM     27  H   UNL     1       7.457   6.275  19.772  0.00  0.00    +0.000 HD
ENDBRANCH  24  26
ENDBRANCH  23  24
ENDBRANCH  16  23
ENDBRANCH   5  16
TORSDOF 7
ENDMDL
MODEL 8
REMARK VINA RESULT:      -8.1      3.778      7.406
REMARK  Name = 
REMARK  9 active torsions:
REMARK  status: ('A' for Active; 'I' for Inactive)
REMARK    1  A    between atoms: C_1  and  O_2
REMARK    2  A    between atoms: O_2  and  C_3
REMARK    3  A    between atoms: C_9  and  C_10
REMARK    4  A    between atoms: C_14  and  C_15
REMARK    5  A    between atoms: C_15  and  C_16
REMARK    6  A    between atoms: C_15  and  C_20
REMARK    7  A    between atoms: C_16  and  C_17
REMARK    8  A    between atoms: C_17  and  O_19
REMARK    9  A    between atoms: C_23  and  C_24
REMARK                            x       y       z     vdW  Elec       q    Type
REMARK                         _______ _______ _______ _____ _____    ______ ____
ROOT
ATOM      1  C   UNL     1       2.681   6.514  18.387  0.00  0.00    +0.000 A 
ATOM      2  C   UNL     1       3.264   7.239  17.344  0.00  0.00    +0.000 A 
ATOM      3  N   UNL     1       3.126   8.574  17.130  0.00  0.00    +0.000 NA
ATOM      4  C   UNL     1       2.389   9.260  18.024  0.00  0.00    +0.000 A 
ATOM      5  C   UNL     1       1.759   8.676  19.115  0.00  0.00    +0.000 A 
ATOM      6  C   UNL     1       1.902   7.286  19.269  0.00  0.00    +0.000 A 
ENDROOT
BRANCH   1  13
ATOM      7  C   UNL     1       3.989   4.493  19.274  0.00  0.00    +0.000 A 
ATOM      8  C   UNL     1       4.116   3.101  19.435  0.00  0.00    +0.000 A 
ATOM      9  C   UNL     1       3.184   2.227  18.880  0.00  0.00    +0.000 A 
ATOM     10  C   UNL     1       2.107   2.740  18.176  0.00  0.00    +0.000 A 
ATOM     11  C   UNL     1       1.960   4.122  18.041  0.00  0.00    +0.000 A 
ATOM     12  F   UNL     1       0.868   4.545  17.383  0.00  0.00    +0.000 F 
ATOM     13  C   UNL     1       2.884   5.047  18.574  0.00  0.00    +0.000 A 
BRANCH   7  15
ATOM     14  C   UNL     1       6.205   5.390  19.244  0.00  0.00    +0.000 C 
ATOM     15  O   UNL     1       4.901   5.370  19.809  0.00  0.00    +0.000 OA
ENDBRANCH   7  15
ENDBRANCH   1  13
BRANCH   5  16
ATOM     16  C   UNL     1       0.976   9.493  20.130  0.00  0.00    +0.000 C 
BRANCH  16  17
ATOM     17  C   UNL     1      -0.227  10.120  19.498  0.00  0.00    +0.000 A 
ATOM     18  N   UNL     1      -1.012  11.070  19.965  0.00  0.00    +0.000 NA
ATOM     19  N   UNL     1      -1.970  11.292  19.001  0.00  0.00    +0.000 NA
ATOM     20  C   UNL     1      -1.707  10.460  18.016  0.00  0.00    +0.000 A 
ATOM     21  C   UNL     1      -2.402  10.272  16.732  0.00  0.00    +0.000 C 
ATOM     22  O   UNL     1      -0.603   9.682  18.255  0.00  0.00    +0.000 OA
ENDBRANCH  16  17
BRANCH  16  23
ATOM     23  C   UNL     1       0.532   8.665  21.347  0.00  0.00    +0.000 C 
BRANCH  23  24
ATOM     24  C   UNL     1       0.928   9.319  22.643  0.00  0.00    +0.000 C 
ATOM     25  O   UNL     1       0.138   9.809  23.430  0.00  0.00    +0.000 OA
BRANCH  24  26
ATOM     26  O   UNL     1       2.252   9.254  22.890  0.00  0.00    +0.000 OA
ATOM     27  H   UNL     1       2.518   9.483  23.802  0.00  0.00    +0.000 HD
ENDBRANCH  24  26
ENDBRANCH  23  24
ENDBRANCH  16  23
ENDBRANCH   5  16
TORSDOF 7
ENDMDL
MODEL 9
REMARK VINA RESULT:      -8.1      3.015      4.969
REMARK  Name = 
REMARK  9 active torsions:
REMARK  status: ('A' for Active; 'I' for Inactive)
REMARK    1  A    between atoms: C_1  and  O_2
REMARK    2  A    between atoms: O_2  and  C_3
REMARK    3  A    between atoms: C_9  and  C_10
REMARK    4  A    between atoms: C_14  and  C_15
REMARK    5  A    between atoms: C_15  and  C_16
REMARK    6  A    between atoms: C_15  and  C_20
REMARK    7  A    between atoms: C_16  and  C_17
REMARK    8  A    between atoms: C_17  and  O_19
REMARK    9  A    between atoms: C_23  and  C_24
REMARK                            x       y       z     vdW  Elec       q    Type
REMARK                         _______ _______ _______ _____ _____    ______ ____
ROOT
ATOM      1  C   UNL     1       1.436   8.894  19.616  0.00  0.00    +0.000 A 
ATOM      2  C   UNL     1       1.372   9.392  18.312  0.00  0.00    +0.000 A 
ATOM      3  N   UNL     1       2.032   8.890  17.235  0.00  0.00    +0.000 NA
ATOM      4  C   UNL     1       2.787   7.796  17.442  0.00  0.00    +0.000 A 
ATOM      5  C   UNL     1       2.938   7.184  18.680  0.00  0.00    +0.000 A 
ATOM      6  C   UNL     1       2.264   7.766  19.768  0.00  0.00    +0.000 A 
ENDROOT
BRANCH   1  13
ATOM      7  C   UNL     1       0.604  10.882  21.009  0.00  0.00    +0.000 A 
ATOM      8  C   UNL     1      -0.149  11.382  22.086  0.00  0.00    +0.000 A 
ATOM      9  C   UNL     1      -0.817  10.521  22.955  0.00  0.00    +0.000 A 
ATOM     10  C   UNL     1      -0.751   9.154  22.741  0.00  0.00    +0.000 A 
ATOM     11  C   UNL     1      -0.030   8.656  21.654  0.00  0.00    +0.000 A 
ATOM     12  F   UNL     1      -0.049   7.323  21.486  0.00  0.00    +0.000 F 
ATOM     13  C   UNL     1       0.673   9.486  20.754  0.00  0.00    +0.000 A 
BRANCH   7  15
ATOM     14  C   UNL     1       1.596  13.020  20.604  0.00  0.00    +0.000 C 
ATOM     15  O   UNL     1       1.274  11.714  20.145  0.00  0.00    +0.000 OA
ENDBRANCH   7  15
ENDBRANCH   1  13
BRANCH   5  16
ATOM     16  C   UNL     1       3.760   5.919  18.863  0.00  0.00    +0.000 C 
BRANCH  16  17
ATOM     17  C   UNL     1       3.022   4.723  18.346  0.00  0.00    +0.000 A 
ATOM     18  N   UNL     1       3.170   4.085  17.203  0.00  0.00    +0.000 NA
ATOM     19  N   UNL     1       2.257   3.053  17.213  0.00  0.00    +0.000 NA
ATOM     20  C   UNL     1       1.614   3.137  18.358  0.00  0.00    +0.000 A 
ATOM     21  C   UNL     1       0.541   2.286  18.897  0.00  0.00    +0.000 C 
ATOM     22  O   UNL     1       2.051   4.173  19.141  0.00  0.00    +0.000 OA
ENDBRANCH  16  17
BRANCH  16  23
ATOM     23  C   UNL     1       5.134   5.997  18.179  0.00  0.00    +0.000 C 
BRANCH  23  24
ATOM     24  C   UNL     1       6.145   5.106  18.850  0.00  0.00    +0.000 C 
ATOM     25  O   UNL     1       6.683   5.364  19.912  0.00  0.00    +0.000 OA
BRANCH  24  26
ATOM     26  O   UNL     1       6.355   3.949  18.192  0.00  0.00    +0.000 OA
ATOM     27  H   UNL     1       6.095   3.952  17.250  0.00  0.00    +0.000 HD
ENDBRANCH  24  26
ENDBRANCH  23  24
ENDBRANCH  16  23
ENDBRANCH   5  16
TORSDOF 7
ENDMDL
