MODEL 1
REMARK VINA RESULT:      -6.8      0.000      0.000
REMARK  Name = 
REMARK  5 active torsions:
REMARK  status: ('A' for Active; 'I' for Inactive)
REMARK    1  A    between atoms: C_1  and  C_2
REMARK    2  A    between atoms: C_7  and  N_8
REMARK    3  A    between atoms: N_8  and  C_9
REMARK    4  A    between atoms: C_9  and  N_11
REMARK    5  A    between atoms: N_11  and  C_12
REMARK                            x       y       z     vdW  Elec       q    Type
REMARK                         _______ _______ _______ _____ _____    ______ ____
ROOT
ATOM      1  C   UNL     1       3.084   4.709  18.580  0.00  0.00    +0.000 C 
ATOM      2  S   UNL     1       1.842   3.648  18.189  0.00  0.00    +0.000 S 
ENDROOT
BRANCH   1   3
ATOM      3  N   UNL     1       4.255   4.544  17.904  0.00  0.00    +0.000 N 
ATOM      4  H   UNL     1       4.240   3.769  17.262  0.00  0.00    +0.000 HD
BRANCH   3  11
ATOM      5  C   UNL     1       5.148   6.437  15.875  0.00  0.00    +0.000 C 
ATOM      6  C   UNL     1       5.898   6.142  17.143  0.00  0.00    +0.000 A 
ATOM      7  C   UNL     1       7.095   6.827  17.389  0.00  0.00    +0.000 A 
ATOM      8  C   UNL     1       7.825   6.562  18.540  0.00  0.00    +0.000 A 
ATOM      9  C   UNL     1       7.334   5.614  19.416  0.00  0.00    +0.000 A 
ATOM     10  N   UNL     1       6.185   4.932  19.219  0.00  0.00    +0.000 NA
ATOM     11  C   UNL     1       5.475   5.209  18.100  0.00  0.00    +0.000 A 
ENDBRANCH   3  11
ENDBRANCH   1   3
BRANCH   1  12
ATOM     12  N   UNL     1       3.041   5.686  19.540  0.00  0.00    +0.000 N 
ATOM     13  H   UNL     1       3.489   5.437  20.420  0.00  0.00    +0.000 HD
BRANCH  12  14
ATOM     14  C   UNL     1       2.419   6.944  19.446  0.00  0.00    +0.000 A 
ATOM     15  C   UNL     1       1.795   7.526  20.556  0.00  0.00    +0.000 A 
ATOM     16  C   UNL     1       1.161   8.763  20.449  0.00  0.00    +0.000 A 
ATOM     17  C   UNL     1       1.153   9.426  19.227  0.00  0.00    +0.000 A 
ATOM     18  I   UNL     1       0.109  11.212  19.040  0.00  0.00    +0.000 I 
ATOM     19  C   UNL     1       1.826   8.887  18.130  0.00  0.00    +0.000 A 
ATOM     20  C   UNL     1       2.484   7.656  18.247  0.00  0.00    +0.000 A 
ENDBRANCH  12  14
ENDBRANCH   1  12
TORSDOF 4
ENDMDL
MODEL 2
REMARK VINA RESULT:      -6.7      1.481      2.048
REMARK  Name = 
REMARK  5 active torsions:
REMARK  status: ('A' for Active; 'I' for Inactive)
REMARK    1  A    between atoms: C_1  and  C_2
REMARK    2  A    between atoms: C_7  and  N_8
REMARK    3  A    between atoms: N_8  and  C_9
REMARK    4  A    between atoms: C_9  and  N_11
REMARK    5  A    between atoms: N_11  and  C_12
REMARK                            x       y       z     vdW  Elec       q    Type
REMARK                         _______ _______ _______ _____ _____    ______ ____
ROOT
ATOM      1  C   UNL     1       4.054   3.442  18.074  0.00  0.00    +0.000 C 
ATOM      2  S   UNL     1       3.922   2.097  19.072  0.00  0.00    +0.000 S 
ENDROOT
BRANCH   1   3
ATOM      3  N   UNL     1       5.282   3.678  17.536  0.00  0.00    +0.000 N 
ATOM      4  H   UNL     1       5.614   2.927  16.954  0.00  0.00    +0.000 HD
BRANCH   3  11
ATOM      5  C   UNL     1       5.457   5.869  15.622  0.00  0.00    +0.000 C 
ATOM      6  C   UNL     1       6.233   5.807  16.906  0.00  0.00    +0.000 A 
ATOM      7  C   UNL     1       7.085   6.872  17.228  0.00  0.00    +0.000 A 
ATOM      8  C   UNL     1       7.835   6.835  18.396  0.00  0.00    +0.000 A 
ATOM      9  C   UNL     1       7.709   5.728  19.213  0.00  0.00    +0.000 A 
ATOM     10  N   UNL     1       6.900   4.682  18.943  0.00  0.00    +0.000 NA
ATOM     11  C   UNL     1       6.164   4.735  17.807  0.00  0.00    +0.000 A 
ENDBRANCH   3  11
ENDBRANCH   1   3
BRANCH   1  12
ATOM     12  N   UNL     1       3.058   4.340  17.793  0.00  0.00    +0.000 N 
ATOM     13  H   UNL     1       2.644   4.240  16.868  0.00  0.00    +0.000 HD
BRANCH  12  14
ATOM     14  C   UNL     1       2.595   5.383  18.616  0.00  0.00    +0.000 A 
ATOM     15  C   UNL     1       2.657   6.716  18.196  0.00  0.00    +0.000 A 
ATOM     16  C   UNL     1       2.217   7.746  19.027  0.00  0.00    +0.000 A 
ATOM     17  C   UNL     1       1.708   7.441  20.285  0.00  0.00    +0.000 A 
ATOM     18  I   UNL     1       1.162   8.983  21.566  0.00  0.00    +0.000 I 
ATOM     19  C   UNL     1       1.581   6.112  20.690  0.00  0.00    +0.000 A 
ATOM     20  C   UNL     1       2.001   5.079  19.843  0.00  0.00    +0.000 A 
ENDBRANCH  12  14
ENDBRANCH   1  12
TORSDOF 4
ENDMDL
MODEL 3
REMARK VINA RESULT:      -6.7      1.420      1.675
REMARK  Name = 
REMARK  5 active torsions:
REMARK  status: ('A' for Active; 'I' for Inactive)
REMARK    1  A    between atoms: C_1  and  C_2
REMARK    2  A    between atoms: C_7  and  N_8
REMARK    3  A    between atoms: N_8  and  C_9
REMARK    4  A    between atoms: C_9  and  N_11
REMARK    5  A    between atoms: N_11  and  C_12
REMARK                            x       y       z     vdW  Elec       q    Type
REMARK                         _______ _______ _______ _____ _____    ______ ____
ROOT
ATOM      1  C   UNL     1       4.060   3.426  18.376  0.00  0.00    +0.000 C 
ATOM      2  S   UNL     1       4.146   2.180  19.499  0.00  0.00    +0.000 S 
ENDROOT
BRANCH   1   3
ATOM      3  N   UNL     1       5.206   3.708  17.697  0.00  0.00    +0.000 N 
ATOM      4  H   UNL     1       5.464   2.994  17.035  0.00  0.00    +0.000 HD
BRANCH   3  11
ATOM      5  C   UNL     1       5.397   5.804  15.679  0.00  0.00    +0.000 C 
ATOM      6  C   UNL     1       6.186   5.788  16.957  0.00  0.00    +0.000 A 
ATOM      7  C   UNL     1       7.059   6.852  17.220  0.00  0.00    +0.000 A 
ATOM      8  C   UNL     1       7.821   6.857  18.381  0.00  0.00    +0.000 A 
ATOM      9  C   UNL     1       7.686   5.792  19.251  0.00  0.00    +0.000 A 
ATOM     10  N   UNL     1       6.856   4.749  19.038  0.00  0.00    +0.000 NA
ATOM     11  C   UNL     1       6.109   4.761  17.908  0.00  0.00    +0.000 A 
ENDBRANCH   3  11
ENDBRANCH   1   3
BRANCH   1  12
ATOM     12  N   UNL     1       2.964   4.207  18.119  0.00  0.00    +0.000 N 
ATOM     13  H   UNL     1       2.421   3.922  17.305  0.00  0.00    +0.000 HD
BRANCH  12  14
ATOM     14  C   UNL     1       2.553   5.355  18.820  0.00  0.00    +0.000 A 
ATOM     15  C   UNL     1       2.001   5.259  20.102  0.00  0.00    +0.000 A 
ATOM     16  C   UNL     1       1.574   6.399  20.782  0.00  0.00    +0.000 A 
ATOM     17  C   UNL     1       1.705   7.645  20.178  0.00  0.00    +0.000 A 
ATOM     18  I   UNL     1       0.962   9.329  21.143  0.00  0.00    +0.000 I 
ATOM     19  C   UNL     1       2.312   7.761  18.928  0.00  0.00    +0.000 A 
ATOM     20  C   UNL     1       2.762   6.616  18.258  0.00  0.00    +0.000 A 
ENDBRANCH  12  14
ENDBRANCH   1  12
TORSDOF 4
ENDMDL
MODEL 4
REMARK VINA RESULT:      -6.7      0.891      1.481
REMARK  Name = 
REMARK  5 active torsions:
REMARK  status: ('A' for Active; 'I' for Inactive)
REMARK    1  A    between atoms: C_1  and  C_2
REMARK    2  A    between atoms: C_7  and  N_8
REMARK    3  A    between atoms: N_8  and  C_9
REMARK    4  A    between atoms: C_9  and  N_11
REMARK    5  A    between atoms: N_11  and  C_12
REMARK                            x       y       z     vdW  Elec       q    Type
REMARK                         _______ _______ _______ _____ _____    ______ ____
ROOT
ATOM      1  C   UNL     1       3.785   3.863  18.437  0.00  0.00    +0.000 C 
ATOM      2  S   UNL     1       2.725   2.824  17.650  0.00  0.00    +0.000 S 
ENDROOT
BRANCH   1   3
ATOM      3  N   UNL     1       5.090   3.798  18.054  0.00  0.00    +0.000 N 
ATOM      4  H   UNL     1       5.374   2.879  17.756  0.00  0.00    +0.000 HD
BRANCH   3  11
ATOM      5  C   UNL     1       5.637   5.484  15.740  0.00  0.00    +0.000 C 
ATOM      6  C   UNL     1       6.330   5.620  17.065  0.00  0.00    +0.000 A 
ATOM      7  C   UNL     1       7.289   6.629  17.220  0.00  0.00    +0.000 A 
ATOM      8  C   UNL     1       7.966   6.767  18.425  0.00  0.00    +0.000 A 
ATOM      9  C   UNL     1       7.661   5.887  19.446  0.00  0.00    +0.000 A 
ATOM     10  N   UNL     1       6.744   4.902  19.340  0.00  0.00    +0.000 NA
ATOM     11  C   UNL     1       6.081   4.786  18.164  0.00  0.00    +0.000 A 
ENDBRANCH   3  11
ENDBRANCH   1   3
BRANCH   1  12
ATOM     12  N   UNL     1       3.466   4.729  19.449  0.00  0.00    +0.000 N 
ATOM     13  H   UNL     1       3.676   4.384  20.385  0.00  0.00    +0.000 HD
BRANCH  12  14
ATOM     14  C   UNL     1       2.854   5.990  19.330  0.00  0.00    +0.000 A 
ATOM     15  C   UNL     1       2.888   6.698  18.124  0.00  0.00    +0.000 A 
ATOM     16  C   UNL     1       2.299   7.958  18.020  0.00  0.00    +0.000 A 
ATOM     17  C   UNL     1       1.669   8.512  19.128  0.00  0.00    +0.000 A 
ATOM     18  I   UNL     1       0.895  10.437  19.006  0.00  0.00    +0.000 I 
ATOM     19  C   UNL     1       1.572   7.790  20.318  0.00  0.00    +0.000 A 
ATOM     20  C   UNL     1       2.143   6.514  20.411  0.00  0.00    +0.000 A 
ENDBRANCH  12  14
ENDBRANCH   1  12
TORSDOF 4
ENDMDL
MODEL 5
REMARK VINA RESULT:      -6.5      2.272      4.120
REMARK  Name = 
REMARK  5 active torsions:
REMARK  status: ('A' for Active; 'I' for Inactive)
REMARK    1  A    between atoms: C_1  and  C_2
REMARK    2  A    between atoms: C_7  and  N_8
REMARK    3  A    between atoms: N_8  and  C_9
REMARK    4  A    between atoms: C_9  and  N_11
REMARK    5  A    between atoms: N_11  and  C_12
REMARK                            x       y       z     vdW  Elec       q    Type
REMARK                         _______ _______ _______ _____ _____    ______ ____
ROOT
ATOM      1  C   UNL     1       4.769   4.140  17.797  0.00  0.00    +0.000 C 
ATOM      2  S   UNL     1       5.401   4.008  16.246  0.00  0.00    +0.000 S 
ENDROOT
BRANCH   1   3
ATOM      3  N   UNL     1       4.134   3.039  18.287  0.00  0.00    +0.000 N 
ATOM      4  H   UNL     1       4.308   2.205  17.750  0.00  0.00    +0.000 HD
BRANCH   3  11
ATOM      5  C   UNL     1       1.353   3.659  17.675  0.00  0.00    +0.000 C 
ATOM      6  C   UNL     1       1.844   3.235  19.029  0.00  0.00    +0.000 A 
ATOM      7  C   UNL     1       0.915   3.104  20.069  0.00  0.00    +0.000 A 
ATOM      8  C   UNL     1       1.339   2.737  21.339  0.00  0.00    +0.000 A 
ATOM      9  C   UNL     1       2.688   2.507  21.532  0.00  0.00    +0.000 A 
ATOM     10  N   UNL     1       3.616   2.619  20.559  0.00  0.00    +0.000 NA
ATOM     11  C   UNL     1       3.189   2.966  19.321  0.00  0.00    +0.000 A 
ENDBRANCH   3  11
ENDBRANCH   1   3
BRANCH   1  12
ATOM     12  N   UNL     1       4.796   5.258  18.588  0.00  0.00    +0.000 N 
ATOM     13  H   UNL     1       5.573   5.295  19.246  0.00  0.00    +0.000 HD
BRANCH  12  14
ATOM     14  C   UNL     1       3.859   6.307  18.611  0.00  0.00    +0.000 A 
ATOM     15  C   UNL     1       3.753   7.204  17.542  0.00  0.00    +0.000 A 
ATOM     16  C   UNL     1       2.838   8.255  17.581  0.00  0.00    +0.000 A 
ATOM     17  C   UNL     1       2.019   8.409  18.695  0.00  0.00    +0.000 A 
ATOM     18  I   UNL     1       0.739  10.042  18.804  0.00  0.00    +0.000 I 
ATOM     19  C   UNL     1       2.070   7.484  19.739  0.00  0.00    +0.000 A 
ATOM     20  C   UNL     1       2.973   6.415  19.685  0.00  0.00    +0.000 A 
ENDBRANCH  12  14
ENDBRANCH   1  12
TORSDOF 4
ENDMDL
MODEL 6
REMARK VINA RESULT:      -6.4      3.735      4.924
REMARK  Name = 
REMARK  5 active torsions:
REMARK  status: ('A' for Active; 'I' for Inactive)
REMARK    1  A    between atoms: C_1  and  C_2
REMARK    2  A    between atoms: C_7  and  N_8
REMARK    3  A    between atoms: N_8  and  C_9
REMARK    4  A    between atoms: C_9  and  N_11
REMARK    5  A    between atoms: N_11  and  C_12
REMARK                            x       y       z     vdW  Elec       q    Type
REMARK                         _______ _______ _______ _____ _____    ______ ____
ROOT
ATOM      1  C   UNL     1       6.668   6.515  17.003  0.00  0.00    +0.000 C 
ATOM      2  S   UNL     1       7.758   7.690  17.506  0.00  0.00    +0.000 S 
ENDROOT
BRANCH   1   3
ATOM      3  N   UNL     1       7.202   5.401  16.431  0.00  0.00    +0.000 N 
ATOM      4  H   UNL     1       7.797   4.878  17.053  0.00  0.00    +0.000 HD
BRANCH   3  11
ATOM      5  C   UNL     1       5.287   3.330  15.693  0.00  0.00    +0.000 C 
ATOM      6  C   UNL     1       6.201   4.019  14.721  0.00  0.00    +0.000 A 
ATOM      7  C   UNL     1       6.127   3.670  13.366  0.00  0.00    +0.000 A 
ATOM      8  C   UNL     1       6.974   4.271  12.444  0.00  0.00    +0.000 A 
ATOM      9  C   UNL     1       7.875   5.210  12.907  0.00  0.00    +0.000 A 
ATOM     10  N   UNL     1       7.979   5.578  14.202  0.00  0.00    +0.000 NA
ATOM     11  C   UNL     1       7.139   4.994  15.090  0.00  0.00    +0.000 A 
ENDBRANCH   3  11
ENDBRANCH   1   3
BRANCH   1  12
ATOM     12  N   UNL     1       5.302   6.596  17.074  0.00  0.00    +0.000 N 
ATOM     13  H   UNL     1       4.885   7.290  16.455  0.00  0.00    +0.000 HD
BRANCH  12  14
ATOM     14  C   UNL     1       4.449   5.869  17.924  0.00  0.00    +0.000 A 
ATOM     15  C   UNL     1       4.963   5.071  18.952  0.00  0.00    +0.000 A 
ATOM     16  C   UNL     1       4.112   4.335  19.776  0.00  0.00    +0.000 A 
ATOM     17  C   UNL     1       2.738   4.401  19.574  0.00  0.00    +0.000 A 
ATOM     18  I   UNL     1       1.479   3.214  20.725  0.00  0.00    +0.000 I 
ATOM     19  C   UNL     1       2.209   5.242  18.595  0.00  0.00    +0.000 A 
ATOM     20  C   UNL     1       3.066   5.999  17.786  0.00  0.00    +0.000 A 
ENDBRANCH  12  14
ENDBRANCH   1  12
TORSDOF 4
ENDMDL
MODEL 7
REMARK VINA RESULT:      -6.4      0.631      1.301
REMARK  Name = 
REMARK  5 active torsions:
REMARK  status: ('A' for Active; 'I' for Inactive)
REMARK    1  A    between atoms: C_1  and  C_2
REMARK    2  A    between atoms: C_7  and  N_8
REMARK    3  A    between atoms: N_8  and  C_9
REMARK    4  A    between atoms: C_9  and  N_11
REMARK    5  A    between atoms: N_11  and  C_12
REMARK                            x       y       z     vdW  Elec       q    Type
REMARK                         _______ _______ _______ _____ _____    ______ ____
ROOT
ATOM      1  C   UNL     1       3.079   4.722  19.275  0.00  0.00    +0.000 C 
ATOM      2  S   UNL     1       1.762   3.680  19.322  0.00  0.00    +0.000 S 
ENDROOT
BRANCH   1   3
ATOM      3  N   UNL     1       4.146   4.315  18.534  0.00  0.00    +0.000 N 
ATOM      4  H   UNL     1       4.006   3.422  18.088  0.00  0.00    +0.000 HD
BRANCH   3  11
ATOM      5  C   UNL     1       5.161   5.037  15.898  0.00  0.00    +0.000 C 
ATOM      6  C   UNL     1       5.902   5.276  17.183  0.00  0.00    +0.000 A 
ATOM      7  C   UNL     1       7.154   5.903  17.128  0.00  0.00    +0.000 A 
ATOM      8  C   UNL     1       7.876   6.117  18.295  0.00  0.00    +0.000 A 
ATOM      9  C   UNL     1       7.322   5.697  19.488  0.00  0.00    +0.000 A 
ATOM     10  N   UNL     1       6.120   5.091  19.587  0.00  0.00    +0.000 NA
ATOM     11  C   UNL     1       5.419   4.899  18.443  0.00  0.00    +0.000 A 
ENDBRANCH   3  11
ENDBRANCH   1   3
BRANCH   1  12
ATOM     12  N   UNL     1       3.193   5.911  19.947  0.00  0.00    +0.000 N 
ATOM     13  H   UNL     1       3.881   5.911  20.698  0.00  0.00    +0.000 HD
BRANCH  12  14
ATOM     14  C   UNL     1       2.444   7.083  19.735  0.00  0.00    +0.000 A 
ATOM     15  C   UNL     1       2.427   7.713  18.486  0.00  0.00    +0.000 A 
ATOM     16  C   UNL     1       1.701   8.887  18.290  0.00  0.00    +0.000 A 
ATOM     17  C   UNL     1       0.983   9.433  19.349  0.00  0.00    +0.000 A 
ATOM     18  I   UNL     1      -0.003  11.243  19.088  0.00  0.00    +0.000 I 
ATOM     19  C   UNL     1       0.940   8.780  20.581  0.00  0.00    +0.000 A 
ATOM     20  C   UNL     1       1.650   7.587  20.767  0.00  0.00    +0.000 A 
ENDBRANCH  12  14
ENDBRANCH   1  12
TORSDOF 4
ENDMDL
MODEL 8
REMARK VINA RESULT:      -6.4      2.289      3.987
REMARK  Name = 
REMARK  5 active torsions:
REMARK  status: ('A' for Active; 'I' for Inactive)
REMARK    1  A    between atoms: C_1  and  C_2
REMARK    2  A    between atoms: C_7  and  N_8
REMARK    3  A    between atoms: N_8  and  C_9
REMARK    4  A    between atoms: C_9  and  N_11
REMARK    5  A    between atoms: N_11  and  C_12
REMARK                            x       y       z     vdW  Elec       q    Type
REMARK                         _______ _______ _______ _____ _____    ______ ____
ROOT
ATOM      1  C   UNL     1       4.767   4.082  17.739  0.00  0.00    +0.000 C 
ATOM      2  S   UNL     1       5.495   3.931  16.232  0.00  0.00    +0.000 S 
ENDROOT
BRANCH   1   3
ATOM      3  N   UNL     1       4.027   3.020  18.162  0.00  0.00    +0.000 N 
ATOM      4  H   UNL     1       4.071   2.229  17.540  0.00  0.00    +0.000 HD
BRANCH   3  11
ATOM      5  C   UNL     1       1.240   3.738  17.702  0.00  0.00    +0.000 C 
ATOM      6  C   UNL     1       1.784   3.271  19.021  0.00  0.00    +0.000 A 
ATOM      7  C   UNL     1       0.904   3.149  20.104  0.00  0.00    +0.000 A 
ATOM      8  C   UNL     1       1.379   2.742  21.345  0.00  0.00    +0.000 A 
ATOM      9  C   UNL     1       2.727   2.468  21.466  0.00  0.00    +0.000 A 
ATOM     10  N   UNL     1       3.609   2.570  20.449  0.00  0.00    +0.000 NA
ATOM     11  C   UNL     1       3.132   2.955  19.241  0.00  0.00    +0.000 A 
ENDBRANCH   3  11
ENDBRANCH   1   3
BRANCH   1  12
ATOM     12  N   UNL     1       4.812   5.184  18.551  0.00  0.00    +0.000 N 
ATOM     13  H   UNL     1       5.583   5.190  19.217  0.00  0.00    +0.000 HD
BRANCH  12  14
ATOM     14  C   UNL     1       3.901   6.256  18.584  0.00  0.00    +0.000 A 
ATOM     15  C   UNL     1       3.052   6.448  19.680  0.00  0.00    +0.000 A 
ATOM     16  C   UNL     1       2.135   7.499  19.695  0.00  0.00    +0.000 A 
ATOM     17  C   UNL     1       2.069   8.366  18.610  0.00  0.00    +0.000 A 
ATOM     18  I   UNL     1       0.625   9.859  18.583  0.00  0.00    +0.000 I 
ATOM     19  C   UNL     1       2.954   8.224  17.541  0.00  0.00    +0.000 A 
ATOM     20  C   UNL     1       3.890   7.182  17.540  0.00  0.00    +0.000 A 
ENDBRANCH  12  14
ENDBRANCH   1  12
TORSDOF 4
ENDMDL
MODEL 9
REMARK VINA RESULT:      -6.3      3.883      5.244
REMARK  Name = 
REMARK  5 active torsions:
REMARK  status: ('A' for Active; 'I' for Inactive)
REMARK    1  A    between atoms: C_1  and  C_2
REMARK    2  A    between atoms: C_7  and  N_8
REMARK    3  A    between atoms: N_8  and  C_9
REMARK    4  A    between atoms: C_9  and  N_11
REMARK    5  A    between atoms: N_11  and  C_12
REMARK                            x       y       z     vdW  Elec       q    Type
REMARK                         _______ _______ _______ _____ _____    ______ ____
ROOT
ATOM      1  C   UNL     1       6.584   6.036  16.316  0.00  0.00    +0.000 C 
ATOM      2  S   UNL     1       7.408   6.881  17.511  0.00  0.00    +0.000 S 
ENDROOT
BRANCH   1   3
ATOM      3  N   UNL     1       7.351   5.401  15.387  0.00  0.00    +0.000 N 
ATOM      4  H   UNL     1       8.340   5.511  15.542  0.00  0.00    +0.000 HD
BRANCH   3  11
ATOM      5  C   UNL     1       8.764   6.013  12.912  0.00  0.00    +0.000 C 
ATOM      6  C   UNL     1       7.633   5.030  13.017  0.00  0.00    +0.000 A 
ATOM      7  C   UNL     1       7.234   4.341  11.865  0.00  0.00    +0.000 A 
ATOM      8  C   UNL     1       6.177   3.443  11.922  0.00  0.00    +0.000 A 
ATOM      9  C   UNL     1       5.546   3.258  13.137  0.00  0.00    +0.000 A 
ATOM     10  N   UNL     1       5.899   3.899  14.272  0.00  0.00    +0.000 NA
ATOM     11  C   UNL     1       6.941   4.764  14.206  0.00  0.00    +0.000 A 
ENDBRANCH   3  11
ENDBRANCH   1   3
BRANCH   1  12
ATOM     12  N   UNL     1       5.224   5.967  16.166  0.00  0.00    +0.000 N 
ATOM     13  H   UNL     1       4.869   6.381  15.305  0.00  0.00    +0.000 HD
BRANCH  12  14
ATOM     14  C   UNL     1       4.293   5.437  17.078  0.00  0.00    +0.000 A 
ATOM     15  C   UNL     1       3.528   6.273  17.898  0.00  0.00    +0.000 A 
ATOM     16  C   UNL     1       2.623   5.738  18.815  0.00  0.00    +0.000 A 
ATOM     17  C   UNL     1       2.480   4.358  18.911  0.00  0.00    +0.000 A 
ATOM     18  I   UNL     1       1.221   3.560  20.358  0.00  0.00    +0.000 I 
ATOM     19  C   UNL     1       3.191   3.516  18.055  0.00  0.00    +0.000 A 
ATOM     20  C   UNL     1       4.079   4.057  17.117  0.00  0.00    +0.000 A 
ENDBRANCH  12  14
ENDBRANCH   1  12
TORSDOF 4
ENDMDL
