MODEL 1
REMARK VINA RESULT:      -7.2      0.000      0.000
REMARK  Name = 
REMARK  8 active torsions:
REMARK  status: ('A' for Active; 'I' for Inactive)
REMARK    1  A    between atoms: C_1  and  C_2
REMARK    2  A    between atoms: C_2  and  C_3
REMARK    3  A    between atoms: C_3  and  C_4
REMARK    4  A    between atoms: C_4  and  O_5
REMARK    5  A    between atoms: O_5  and  C_6
REMARK    6  A    between atoms: C_6  and  C_8
REMARK    7  A    between atoms: C_11  and  N_12
REMARK    8  A    between atoms: C_13  and  C_15
REMARK                            x       y       z     vdW  Elec       q    Type
REMARK                         _______ _______ _______ _____ _____    ______ ____
ROOT
ATOM      1  C   UNL     1       6.252   4.906  14.795  0.00  0.00    +0.000 A 
ATOM      2  C   UNL     1       5.674   6.073  15.295  0.00  0.00    +0.000 A 
ATOM      3  C   UNL     1       4.855   6.034  16.418  0.00  0.00    +0.000 A 
ATOM      4  C   UNL     1       4.582   4.831  17.068  0.00  0.00    +0.000 A 
ATOM      5  C   UNL     1       5.179   3.657  16.584  0.00  0.00    +0.000 A 
ATOM      6  C   UNL     1       6.021   3.693  15.455  0.00  0.00    +0.000 A 
ENDROOT
BRANCH   4   7
ATOM      7  N   UNL     1       3.733   4.761  18.191  0.00  0.00    +0.000 N 
ATOM      8  C   UNL     1       3.981   4.064  19.366  0.00  0.00    +0.000 C 
ATOM      9  O   UNL     1       5.007   3.445  19.641  0.00  0.00    +0.000 OA
ATOM     10  H   UNL     1       2.839   5.246  18.152  0.00  0.00    +0.000 HD
BRANCH   8  11
ATOM     11  C   UNL     1       2.856   4.182  20.401  0.00  0.00    +0.000 C 
ATOM     12  C   UNL     1       2.774   2.914  21.246  0.00  0.00    +0.000 C 
ATOM     13  C   UNL     1       1.299   2.761  21.494  0.00  0.00    +0.000 C 
ATOM     14  C   UNL     1       0.706   3.322  20.223  0.00  0.00    +0.000 C 
ATOM     15  O   UNL     1       1.564   4.395  19.811  0.00  0.00    +0.000 OA
ENDBRANCH   8  11
ENDBRANCH   4   7
BRANCH   1  16
ATOM     16  C   UNL     1       7.182   4.995  13.641  0.00  0.00    +0.000 C 
ATOM     17  O   UNL     1       8.302   5.469  13.686  0.00  0.00    +0.000 OA
BRANCH  16  18
ATOM     18  O   UNL     1       6.529   4.569  12.531  0.00  0.00    +0.000 OA
BRANCH  18  19
ATOM     19  C   UNL     1       6.856   3.243  12.110  0.00  0.00    +0.000 C 
BRANCH  19  20
ATOM     20  C   UNL     1       5.631   2.514  11.579  0.00  0.00    +0.000 C 
BRANCH  20  22
ATOM     21  C   UNL     1       3.520   3.466  10.572  0.00  0.00    +0.000 C 
ATOM     22  C   UNL     1       4.382   3.361  11.817  0.00  0.00    +0.000 C 
ENDBRANCH  20  22
ENDBRANCH  19  20
ENDBRANCH  18  19
ENDBRANCH  16  18
ENDBRANCH   1  16
TORSDOF 7
ENDMDL
MODEL 2
REMARK VINA RESULT:      -7.0      1.186      1.287
REMARK  Name = 
REMARK  8 active torsions:
REMARK  status: ('A' for Active; 'I' for Inactive)
REMARK    1  A    between atoms: C_1  and  C_2
REMARK    2  A    between atoms: C_2  and  C_3
REMARK    3  A    between atoms: C_3  and  C_4
REMARK    4  A    between atoms: C_4  and  O_5
REMARK    5  A    between atoms: O_5  and  C_6
REMARK    6  A    between atoms: C_6  and  C_8
REMARK    7  A    between atoms: C_11  and  N_12
REMARK    8  A    between atoms: C_13  and  C_15
REMARK                            x       y       z     vdW  Elec       q    Type
REMARK                         _______ _______ _______ _____ _____    ______ ____
ROOT
ATOM      1  C   UNL     1       6.578   4.488  15.375  0.00  0.00    +0.000 A 
ATOM      2  C   UNL     1       5.203   4.280  15.257  0.00  0.00    +0.000 A 
ATOM      3  C   UNL     1       4.405   4.160  16.389  0.00  0.00    +0.000 A 
ATOM      4  C   UNL     1       4.954   4.235  17.668  0.00  0.00    +0.000 A 
ATOM      5  C   UNL     1       6.332   4.467  17.793  0.00  0.00    +0.000 A 
ATOM      6  C   UNL     1       7.143   4.604  16.650  0.00  0.00    +0.000 A 
ENDROOT
BRANCH   4   7
ATOM      7  N   UNL     1       4.171   4.088  18.831  0.00  0.00    +0.000 N 
ATOM      8  C   UNL     1       3.325   5.044  19.378  0.00  0.00    +0.000 C 
ATOM      9  O   UNL     1       3.077   6.152  18.904  0.00  0.00    +0.000 OA
ATOM     10  H   UNL     1       4.228   3.211  19.345  0.00  0.00    +0.000 HD
BRANCH   8  11
ATOM     11  C   UNL     1       2.614   4.579  20.654  0.00  0.00    +0.000 C 
ATOM     12  C   UNL     1       3.055   3.166  21.025  0.00  0.00    +0.000 C 
ATOM     13  C   UNL     1       1.805   2.553  21.593  0.00  0.00    +0.000 C 
ATOM     14  C   UNL     1       0.726   3.233  20.783  0.00  0.00    +0.000 C 
ATOM     15  O   UNL     1       1.183   4.570  20.533  0.00  0.00    +0.000 OA
ENDBRANCH   8  11
ENDBRANCH   4   7
BRANCH   1  16
ATOM     16  C   UNL     1       7.388   4.688  14.146  0.00  0.00    +0.000 C 
ATOM     17  O   UNL     1       8.020   5.695  13.887  0.00  0.00    +0.000 OA
BRANCH  16  18
ATOM     18  O   UNL     1       7.204   3.617  13.334  0.00  0.00    +0.000 OA
BRANCH  18  19
ATOM     19  C   UNL     1       6.614   3.915  12.067  0.00  0.00    +0.000 C 
BRANCH  19  20
ATOM     20  C   UNL     1       5.583   2.867  11.678  0.00  0.00    +0.000 C 
BRANCH  20  22
ATOM     21  C   UNL     1       3.425   3.300  10.440  0.00  0.00    +0.000 C 
ATOM     22  C   UNL     1       4.181   3.471  11.744  0.00  0.00    +0.000 C 
ENDBRANCH  20  22
ENDBRANCH  19  20
ENDBRANCH  18  19
ENDBRANCH  16  18
ENDBRANCH   1  16
TORSDOF 7
ENDMDL
MODEL 3
REMARK VINA RESULT:      -6.8      0.709      1.302
REMARK  Name = 
REMARK  8 active torsions:
REMARK  status: ('A' for Active; 'I' for Inactive)
REMARK    1  A    between atoms: C_1  and  C_2
REMARK    2  A    between atoms: C_2  and  C_3
REMARK    3  A    between atoms: C_3  and  C_4
REMARK    4  A    between atoms: C_4  and  O_5
REMARK    5  A    between atoms: O_5  and  C_6
REMARK    6  A    between atoms: C_6  and  C_8
REMARK    7  A    between atoms: C_11  and  N_12
REMARK    8  A    between atoms: C_13  and  C_15
REMARK                            x       y       z     vdW  Elec       q    Type
REMARK                         _______ _______ _______ _____ _____    ______ ____
ROOT
ATOM      1  C   UNL     1       6.129   4.783  14.870  0.00  0.00    +0.000 A 
ATOM      2  C   UNL     1       5.903   3.570  15.523  0.00  0.00    +0.000 A 
ATOM      3  C   UNL     1       5.038   3.501  16.609  0.00  0.00    +0.000 A 
ATOM      4  C   UNL     1       4.382   4.637  17.081  0.00  0.00    +0.000 A 
ATOM      5  C   UNL     1       4.588   5.855  16.415  0.00  0.00    +0.000 A 
ATOM      6  C   UNL     1       5.452   5.928  15.304  0.00  0.00    +0.000 A 
ENDROOT
BRANCH   4   7
ATOM      7  N   UNL     1       3.522   4.599  18.197  0.00  0.00    +0.000 N 
ATOM      8  C   UNL     1       3.891   4.771  19.525  0.00  0.00    +0.000 C 
ATOM      9  O   UNL     1       5.018   5.044  19.937  0.00  0.00    +0.000 OA
ATOM     10  H   UNL     1       2.534   4.412  18.041  0.00  0.00    +0.000 HD
BRANCH   8  11
ATOM     11  C   UNL     1       2.719   4.668  20.508  0.00  0.00    +0.000 C 
ATOM     12  C   UNL     1       2.760   3.334  21.248  0.00  0.00    +0.000 C 
ATOM     13  C   UNL     1       1.306   2.986  21.409  0.00  0.00    +0.000 C 
ATOM     14  C   UNL     1       0.700   3.576  20.157  0.00  0.00    +0.000 C 
ATOM     15  O   UNL     1       1.437   4.774  19.873  0.00  0.00    +0.000 OA
ENDBRANCH   8  11
ENDBRANCH   4   7
BRANCH   1  16
ATOM     16  C   UNL     1       6.999   4.806  13.667  0.00  0.00    +0.000 C 
ATOM     17  O   UNL     1       7.819   5.670  13.418  0.00  0.00    +0.000 OA
BRANCH  16  18
ATOM     18  O   UNL     1       6.639   3.777  12.860  0.00  0.00    +0.000 OA
BRANCH  18  19
ATOM     19  C   UNL     1       5.233   3.642  12.643  0.00  0.00    +0.000 C 
BRANCH  19  20
ATOM     20  C   UNL     1       4.935   3.164  11.231  0.00  0.00    +0.000 C 
BRANCH  20  22
ATOM     21  C   UNL     1       3.086   4.013   9.735  0.00  0.00    +0.000 C 
ATOM     22  C   UNL     1       3.429   3.210  10.976  0.00  0.00    +0.000 C 
ENDBRANCH  20  22
ENDBRANCH  19  20
ENDBRANCH  18  19
ENDBRANCH  16  18
ENDBRANCH   1  16
TORSDOF 7
ENDMDL
MODEL 4
REMARK VINA RESULT:      -6.8      1.097      1.208
REMARK  Name = 
REMARK  8 active torsions:
REMARK  status: ('A' for Active; 'I' for Inactive)
REMARK    1  A    between atoms: C_1  and  C_2
REMARK    2  A    between atoms: C_2  and  C_3
REMARK    3  A    between atoms: C_3  and  C_4
REMARK    4  A    between atoms: C_4  and  O_5
REMARK    5  A    between atoms: O_5  and  C_6
REMARK    6  A    between atoms: C_6  and  C_8
REMARK    7  A    between atoms: C_11  and  N_12
REMARK    8  A    between atoms: C_13  and  C_15
REMARK                            x       y       z     vdW  Elec       q    Type
REMARK                         _______ _______ _______ _____ _____    ______ ____
ROOT
ATOM      1  C   UNL     1       6.367   4.801  15.274  0.00  0.00    +0.000 A 
ATOM      2  C   UNL     1       7.001   4.821  16.517  0.00  0.00    +0.000 A 
ATOM      3  C   UNL     1       6.283   4.576  17.682  0.00  0.00    +0.000 A 
ATOM      4  C   UNL     1       4.914   4.314  17.643  0.00  0.00    +0.000 A 
ATOM      5  C   UNL     1       4.276   4.270  16.394  0.00  0.00    +0.000 A 
ATOM      6  C   UNL     1       5.001   4.502  15.209  0.00  0.00    +0.000 A 
ENDROOT
BRANCH   4   7
ATOM      7  N   UNL     1       4.159   4.091  18.812  0.00  0.00    +0.000 N 
ATOM      8  C   UNL     1       3.423   5.041  19.509  0.00  0.00    +0.000 C 
ATOM      9  O   UNL     1       3.263   6.217  19.185  0.00  0.00    +0.000 OA
ATOM     10  H   UNL     1       4.150   3.155  19.211  0.00  0.00    +0.000 HD
BRANCH   8  11
ATOM     11  C   UNL     1       2.713   4.483  20.747  0.00  0.00    +0.000 C 
ATOM     12  C   UNL     1       3.105   3.025  20.975  0.00  0.00    +0.000 C 
ATOM     13  C   UNL     1       1.841   2.407  21.504  0.00  0.00    +0.000 C 
ATOM     14  C   UNL     1       0.777   3.200  20.782  0.00  0.00    +0.000 C 
ATOM     15  O   UNL     1       1.281   4.537  20.651  0.00  0.00    +0.000 OA
ENDBRANCH   8  11
ENDBRANCH   4   7
BRANCH   1  16
ATOM     16  C   UNL     1       7.178   4.990  14.044  0.00  0.00    +0.000 C 
ATOM     17  O   UNL     1       8.258   5.549  14.003  0.00  0.00    +0.000 OA
BRANCH  16  18
ATOM     18  O   UNL     1       6.460   4.539  12.985  0.00  0.00    +0.000 OA
BRANCH  18  19
ATOM     19  C   UNL     1       6.639   3.155  12.679  0.00  0.00    +0.000 C 
BRANCH  19  20
ATOM     20  C   UNL     1       5.667   2.697  11.604  0.00  0.00    +0.000 C 
BRANCH  20  22
ATOM     21  C   UNL     1       3.479   3.367  10.535  0.00  0.00    +0.000 C 
ATOM     22  C   UNL     1       4.315   3.382  11.801  0.00  0.00    +0.000 C 
ENDBRANCH  20  22
ENDBRANCH  19  20
ENDBRANCH  18  19
ENDBRANCH  16  18
ENDBRANCH   1  16
TORSDOF 7
ENDMDL
MODEL 5
REMARK VINA RESULT:      -6.7      4.455      6.376
REMARK  Name = 
REMARK  8 active torsions:
REMARK  status: ('A' for Active; 'I' for Inactive)
REMARK    1  A    between atoms: C_1  and  C_2
REMARK    2  A    between atoms: C_2  and  C_3
REMARK    3  A    between atoms: C_3  and  C_4
REMARK    4  A    between atoms: C_4  and  O_5
REMARK    5  A    between atoms: O_5  and  C_6
REMARK    6  A    between atoms: C_6  and  C_8
REMARK    7  A    between atoms: C_11  and  N_12
REMARK    8  A    between atoms: C_13  and  C_15
REMARK                            x       y       z     vdW  Elec       q    Type
REMARK                         _______ _______ _______ _____ _____    ______ ____
ROOT
ATOM      1  C   UNL     1       2.805   4.789  18.437  0.00  0.00    +0.000 A 
ATOM      2  C   UNL     1       2.289   4.453  19.690  0.00  0.00    +0.000 A 
ATOM      3  C   UNL     1       1.883   5.442  20.578  0.00  0.00    +0.000 A 
ATOM      4  C   UNL     1       1.987   6.793  20.247  0.00  0.00    +0.000 A 
ATOM      5  C   UNL     1       2.482   7.136  18.980  0.00  0.00    +0.000 A 
ATOM      6  C   UNL     1       2.882   6.137  18.071  0.00  0.00    +0.000 A 
ENDROOT
BRANCH   4   7
ATOM      7  N   UNL     1       1.608   7.816  21.140  0.00  0.00    +0.000 N 
ATOM      8  C   UNL     1       1.072   9.050  20.797  0.00  0.00    +0.000 C 
ATOM      9  O   UNL     1       0.786   9.427  19.661  0.00  0.00    +0.000 OA
ATOM     10  H   UNL     1       1.748   7.663  22.137  0.00  0.00    +0.000 HD
BRANCH   8  11
ATOM     11  C   UNL     1       0.769   9.946  22.002  0.00  0.00    +0.000 C 
ATOM     12  C   UNL     1      -0.488   9.464  22.723  0.00  0.00    +0.000 C 
ATOM     13  C   UNL     1      -1.131  10.741  23.185  0.00  0.00    +0.000 C 
ATOM     14  C   UNL     1      -0.748  11.703  22.084  0.00  0.00    +0.000 C 
ATOM     15  O   UNL     1       0.565  11.322  21.648  0.00  0.00    +0.000 OA
ENDBRANCH   8  11
ENDBRANCH   4   7
BRANCH   1  16
ATOM     16  C   UNL     1       3.157   3.705  17.485  0.00  0.00    +0.000 C 
ATOM     17  O   UNL     1       2.360   3.109  16.785  0.00  0.00    +0.000 OA
BRANCH  16  18
ATOM     18  O   UNL     1       4.478   3.430  17.620  0.00  0.00    +0.000 OA
BRANCH  18  19
ATOM     19  C   UNL     1       5.332   4.102  16.692  0.00  0.00    +0.000 C 
BRANCH  19  20
ATOM     20  C   UNL     1       6.406   4.904  17.410  0.00  0.00    +0.000 C 
BRANCH  20  22
ATOM     21  C   UNL     1       7.445   7.205  17.460  0.00  0.00    +0.000 C 
ATOM     22  C   UNL     1       6.725   6.170  16.616  0.00  0.00    +0.000 C 
ENDBRANCH  20  22
ENDBRANCH  19  20
ENDBRANCH  18  19
ENDBRANCH  16  18
ENDBRANCH   1  16
TORSDOF 7
ENDMDL
MODEL 6
REMARK VINA RESULT:      -6.6      1.290      1.745
REMARK  Name = 
REMARK  8 active torsions:
REMARK  status: ('A' for Active; 'I' for Inactive)
REMARK    1  A    between atoms: C_1  and  C_2
REMARK    2  A    between atoms: C_2  and  C_3
REMARK    3  A    between atoms: C_3  and  C_4
REMARK    4  A    between atoms: C_4  and  O_5
REMARK    5  A    between atoms: O_5  and  C_6
REMARK    6  A    between atoms: C_6  and  C_8
REMARK    7  A    between atoms: C_11  and  N_12
REMARK    8  A    between atoms: C_13  and  C_15
REMARK                            x       y       z     vdW  Elec       q    Type
REMARK                         _______ _______ _______ _____ _____    ______ ____
ROOT
ATOM      1  C   UNL     1       6.197   4.769  15.223  0.00  0.00    +0.000 A 
ATOM      2  C   UNL     1       5.799   3.526  15.716  0.00  0.00    +0.000 A 
ATOM      3  C   UNL     1       4.895   3.438  16.768  0.00  0.00    +0.000 A 
ATOM      4  C   UNL     1       4.369   4.583  17.364  0.00  0.00    +0.000 A 
ATOM      5  C   UNL     1       4.747   5.836  16.857  0.00  0.00    +0.000 A 
ATOM      6  C   UNL     1       5.652   5.931  15.782  0.00  0.00    +0.000 A 
ENDROOT
BRANCH   4   7
ATOM      7  N   UNL     1       3.473   4.521  18.450  0.00  0.00    +0.000 N 
ATOM      8  C   UNL     1       2.102   4.311  18.373  0.00  0.00    +0.000 C 
ATOM      9  O   UNL     1       1.457   4.086  17.350  0.00  0.00    +0.000 OA
ATOM     10  H   UNL     1       3.841   4.657  19.389  0.00  0.00    +0.000 HD
BRANCH   8  11
ATOM     11  C   UNL     1       1.403   4.301  19.737  0.00  0.00    +0.000 C 
ATOM     12  C   UNL     1       2.411   4.560  20.854  0.00  0.00    +0.000 C 
ATOM     13  C   UNL     1       1.905   3.701  21.980  0.00  0.00    +0.000 C 
ATOM     14  C   UNL     1       1.304   2.531  21.238  0.00  0.00    +0.000 C 
ATOM     15  O   UNL     1       0.744   3.059  20.027  0.00  0.00    +0.000 OA
ENDBRANCH   8  11
ENDBRANCH   4   7
BRANCH   1  16
ATOM     16  C   UNL     1       7.105   4.826  14.049  0.00  0.00    +0.000 C 
ATOM     17  O   UNL     1       7.841   5.758  13.784  0.00  0.00    +0.000 OA
BRANCH  16  18
ATOM     18  O   UNL     1       6.883   3.728  13.284  0.00  0.00    +0.000 OA
BRANCH  18  19
ATOM     19  C   UNL     1       7.141   3.902  11.889  0.00  0.00    +0.000 C 
BRANCH  19  20
ATOM     20  C   UNL     1       6.422   2.850  11.059  0.00  0.00    +0.000 C 
BRANCH  20  22
ATOM     21  C   UNL     1       3.922   3.200  11.017  0.00  0.00    +0.000 C 
ATOM     22  C   UNL     1       5.082   2.507  11.707  0.00  0.00    +0.000 C 
ENDBRANCH  20  22
ENDBRANCH  19  20
ENDBRANCH  18  19
ENDBRANCH  16  18
ENDBRANCH   1  16
TORSDOF 7
ENDMDL
MODEL 7
REMARK VINA RESULT:      -6.6      1.432      1.660
REMARK  Name = 
REMARK  8 active torsions:
REMARK  status: ('A' for Active; 'I' for Inactive)
REMARK    1  A    between atoms: C_1  and  C_2
REMARK    2  A    between atoms: C_2  and  C_3
REMARK    3  A    between atoms: C_3  and  C_4
REMARK    4  A    between atoms: C_4  and  O_5
REMARK    5  A    between atoms: O_5  and  C_6
REMARK    6  A    between atoms: C_6  and  C_8
REMARK    7  A    between atoms: C_11  and  N_12
REMARK    8  A    between atoms: C_13  and  C_15
REMARK                            x       y       z     vdW  Elec       q    Type
REMARK                         _______ _______ _______ _____ _____    ______ ____
ROOT
ATOM      1  C   UNL     1       6.382   4.538  15.369  0.00  0.00    +0.000 A 
ATOM      2  C   UNL     1       5.011   4.290  15.289  0.00  0.00    +0.000 A 
ATOM      3  C   UNL     1       4.248   4.148  16.442  0.00  0.00    +0.000 A 
ATOM      4  C   UNL     1       4.829   4.239  17.706  0.00  0.00    +0.000 A 
ATOM      5  C   UNL     1       6.203   4.512  17.794  0.00  0.00    +0.000 A 
ATOM      6  C   UNL     1       6.978   4.671  16.628  0.00  0.00    +0.000 A 
ENDROOT
BRANCH   4   7
ATOM      7  N   UNL     1       4.083   4.071  18.890  0.00  0.00    +0.000 N 
ATOM      8  C   UNL     1       3.282   5.028  19.500  0.00  0.00    +0.000 C 
ATOM      9  O   UNL     1       3.048   6.158  19.074  0.00  0.00    +0.000 OA
ATOM     10  H   UNL     1       4.133   3.175  19.369  0.00  0.00    +0.000 HD
BRANCH   8  11
ATOM     11  C   UNL     1       2.602   4.535  20.782  0.00  0.00    +0.000 C 
ATOM     12  C   UNL     1       3.082   3.129  21.133  0.00  0.00    +0.000 C 
ATOM     13  C   UNL     1       1.855   2.482  21.715  0.00  0.00    +0.000 C 
ATOM     14  C   UNL     1       0.748   3.145  20.929  0.00  0.00    +0.000 C 
ATOM     15  O   UNL     1       1.171   4.494  20.684  0.00  0.00    +0.000 OA
ENDBRANCH   8  11
ENDBRANCH   4   7
BRANCH   1  16
ATOM     16  C   UNL     1       7.152   4.762  14.119  0.00  0.00    +0.000 C 
ATOM     17  O   UNL     1       8.039   5.584  13.987  0.00  0.00    +0.000 OA
BRANCH  16  18
ATOM     18  O   UNL     1       6.621   3.982  13.145  0.00  0.00    +0.000 OA
BRANCH  18  19
ATOM     19  C   UNL     1       7.316   4.018  11.897  0.00  0.00    +0.000 C 
BRANCH  19  20
ATOM     20  C   UNL     1       7.362   2.643  11.250  0.00  0.00    +0.000 C 
BRANCH  20  22
ATOM     21  C   UNL     1       6.108   0.452  11.179  0.00  0.00    +0.000 C 
ATOM     22  C   UNL     1       6.011   1.949  11.411  0.00  0.00    +0.000 C 
ENDBRANCH  20  22
ENDBRANCH  19  20
ENDBRANCH  18  19
ENDBRANCH  16  18
ENDBRANCH   1  16
TORSDOF 7
ENDMDL
MODEL 8
REMARK VINA RESULT:      -6.6      4.249      5.779
REMARK  Name = 
REMARK  8 active torsions:
REMARK  status: ('A' for Active; 'I' for Inactive)
REMARK    1  A    between atoms: C_1  and  C_2
REMARK    2  A    between atoms: C_2  and  C_3
REMARK    3  A    between atoms: C_3  and  C_4
REMARK    4  A    between atoms: C_4  and  O_5
REMARK    5  A    between atoms: O_5  and  C_6
REMARK    6  A    between atoms: C_6  and  C_8
REMARK    7  A    between atoms: C_11  and  N_12
REMARK    8  A    between atoms: C_13  and  C_15
REMARK                            x       y       z     vdW  Elec       q    Type
REMARK                         _______ _______ _______ _____ _____    ______ ____
ROOT
ATOM      1  C   UNL     1       2.683   4.416  18.436  0.00  0.00    +0.000 A 
ATOM      2  C   UNL     1       3.272   5.678  18.349  0.00  0.00    +0.000 A 
ATOM      3  C   UNL     1       2.945   6.677  19.259  0.00  0.00    +0.000 A 
ATOM      4  C   UNL     1       2.018   6.449  20.275  0.00  0.00    +0.000 A 
ATOM      5  C   UNL     1       1.440   5.175  20.382  0.00  0.00    +0.000 A 
ATOM      6  C   UNL     1       1.778   4.155  19.471  0.00  0.00    +0.000 A 
ENDROOT
BRANCH   4   7
ATOM      7  N   UNL     1       1.649   7.454  21.193  0.00  0.00    +0.000 N 
ATOM      8  C   UNL     1       1.155   8.713  20.879  0.00  0.00    +0.000 C 
ATOM      9  O   UNL     1       0.903   9.134  19.751  0.00  0.00    +0.000 OA
ATOM     10  H   UNL     1       1.762   7.266  22.187  0.00  0.00    +0.000 HD
BRANCH   8  11
ATOM     11  C   UNL     1       0.850   9.579  22.107  0.00  0.00    +0.000 C 
ATOM     12  C   UNL     1      -0.523   9.232  22.676  0.00  0.00    +0.000 C 
ATOM     13  C   UNL     1      -1.040  10.559  23.159  0.00  0.00    +0.000 C 
ATOM     14  C   UNL     1      -0.429  11.516  22.162  0.00  0.00    +0.000 C 
ATOM     15  O   UNL     1       0.860  10.986  21.824  0.00  0.00    +0.000 OA
ENDBRANCH   8  11
ENDBRANCH   4   7
BRANCH   1  16
ATOM     16  C   UNL     1       3.112   3.350  17.495  0.00  0.00    +0.000 C 
ATOM     17  O   UNL     1       2.799   2.177  17.584  0.00  0.00    +0.000 OA
BRANCH  16  18
ATOM     18  O   UNL     1       3.986   3.888  16.609  0.00  0.00    +0.000 OA
BRANCH  18  19
ATOM     19  C   UNL     1       5.359   3.576  16.851  0.00  0.00    +0.000 C 
BRANCH  19  20
ATOM     20  C   UNL     1       6.260   4.192  15.792  0.00  0.00    +0.000 C 
BRANCH  20  22
ATOM     21  C   UNL     1       6.036   3.673  13.331  0.00  0.00    +0.000 C 
ATOM     22  C   UNL     1       5.463   4.435  14.511  0.00  0.00    +0.000 C 
ENDBRANCH  20  22
ENDBRANCH  19  20
ENDBRANCH  18  19
ENDBRANCH  16  18
ENDBRANCH   1  16
TORSDOF 7
ENDMDL
MODEL 9
REMARK VINA RESULT:      -6.6      4.790      6.717
REMARK  Name = 
REMARK  8 active torsions:
REMARK  status: ('A' for Active; 'I' for Inactive)
REMARK    1  A    between atoms: C_1  and  C_2
REMARK    2  A    between atoms: C_2  and  C_3
REMARK    3  A    between atoms: C_3  and  C_4
REMARK    4  A    between atoms: C_4  and  O_5
REMARK    5  A    between atoms: O_5  and  C_6
REMARK    6  A    between atoms: C_6  and  C_8
REMARK    7  A    between atoms: C_11  and  N_12
REMARK    8  A    between atoms: C_13  and  C_15
REMARK                            x       y       z     vdW  Elec       q    Type
REMARK                         _______ _______ _______ _____ _____    ______ ____
ROOT
ATOM      1  C   UNL     1       4.110   5.679  18.613  0.00  0.00    +0.000 A 
ATOM      2  C   UNL     1       4.069   6.717  17.681  0.00  0.00    +0.000 A 
ATOM      3  C   UNL     1       3.148   7.751  17.813  0.00  0.00    +0.000 A 
ATOM      4  C   UNL     1       2.238   7.774  18.869  0.00  0.00    +0.000 A 
ATOM      5  C   UNL     1       2.291   6.746  19.821  0.00  0.00    +0.000 A 
ATOM      6  C   UNL     1       3.231   5.703  19.701  0.00  0.00    +0.000 A 
ENDROOT
BRANCH   4   7
ATOM      7  N   UNL     1       1.277   8.795  19.009  0.00  0.00    +0.000 N 
ATOM      8  C   UNL     1       0.871   9.385  20.199  0.00  0.00    +0.000 C 
ATOM      9  O   UNL     1       1.327   9.153  21.317  0.00  0.00    +0.000 OA
ATOM     10  H   UNL     1       0.810   9.138  18.172  0.00  0.00    +0.000 HD
BRANCH   8  11
ATOM     11  C   UNL     1      -0.199  10.467  20.017  0.00  0.00    +0.000 C 
ATOM     12  C   UNL     1      -0.971  10.241  18.719  0.00  0.00    +0.000 C 
ATOM     13  C   UNL     1      -1.250  11.637  18.237  0.00  0.00    +0.000 C 
ATOM     14  C   UNL     1      -0.030  12.387  18.720  0.00  0.00    +0.000 C 
ATOM     15  O   UNL     1       0.342  11.796  19.974  0.00  0.00    +0.000 OA
ENDBRANCH   8  11
ENDBRANCH   4   7
BRANCH   1  16
ATOM     16  C   UNL     1       5.156   4.633  18.484  0.00  0.00    +0.000 C 
ATOM     17  O   UNL     1       5.280   3.678  19.229  0.00  0.00    +0.000 OA
BRANCH  16  18
ATOM     18  O   UNL     1       5.998   4.990  17.482  0.00  0.00    +0.000 OA
BRANCH  18  19
ATOM     19  C   UNL     1       7.381   5.030  17.840  0.00  0.00    +0.000 C 
BRANCH  19  20
ATOM     20  C   UNL     1       7.742   6.349  18.505  0.00  0.00    +0.000 C 
BRANCH  20  22
ATOM     21  C   UNL     1       8.211   8.783  18.025  0.00  0.00    +0.000 C 
ATOM     22  C   UNL     1       7.631   7.487  17.491  0.00  0.00    +0.000 C 
ENDBRANCH  20  22
ENDBRANCH  19  20
ENDBRANCH  18  19
ENDBRANCH  16  18
ENDBRANCH   1  16
TORSDOF 7
ENDMDL
