MODEL 1
REMARK VINA RESULT:      -7.9      0.000      0.000
REMARK  Name = 
REMARK  6 active torsions:
REMARK  status: ('A' for Active; 'I' for Inactive)
REMARK    1  A    between atoms: C_1  and  O_2
REMARK    2  A    between atoms: O_2  and  C_3
REMARK    3  A    between atoms: C_7  and  C_8
REMARK    4  A    between atoms: C_12  and  C_13
REMARK    5  A    between atoms: N_16  and  C_17
REMARK    6  A    between atoms: C_17  and  C_18
REMARK                            x       y       z     vdW  Elec       q    Type
REMARK                         _______ _______ _______ _____ _____    ______ ____
ROOT
ATOM      1  C   UNL     1       3.691   5.234  18.486  0.00  0.00    +0.000 A 
ATOM      2  C   UNL     1       3.287   4.111  19.228  0.00  0.00    +0.000 A 
ATOM      3  C   UNL     1       2.374   4.232  20.276  0.00  0.00    +0.000 A 
ATOM      4  C   UNL     1       1.846   5.480  20.600  0.00  0.00    +0.000 A 
ATOM      5  C   UNL     1       2.218   6.629  19.887  0.00  0.00    +0.000 A 
ATOM      6  C   UNL     1       3.142   6.490  18.838  0.00  0.00    +0.000 A 
ENDROOT
BRANCH   1  11
ATOM      7  C   UNL     1       6.697   5.935  16.575  0.00  0.00    +0.000 A 
ATOM      8  C   UNL     1       6.734   4.990  15.567  0.00  0.00    +0.000 A 
ATOM      9  C   UNL     1       5.678   4.091  15.475  0.00  0.00    +0.000 A 
ATOM     10  C   UNL     1       4.643   4.159  16.405  0.00  0.00    +0.000 A 
ATOM     11  C   UNL     1       4.689   5.127  17.408  0.00  0.00    +0.000 A 
ATOM     12  N   UNL     1       5.701   6.027  17.479  0.00  0.00    +0.000 NA
BRANCH   7  14
ATOM     13  C   UNL     1       7.527   7.867  17.580  0.00  0.00    +0.000 C 
ATOM     14  O   UNL     1       7.761   6.812  16.652  0.00  0.00    +0.000 OA
ENDBRANCH   7  14
ENDBRANCH   1  11
BRANCH   5  15
ATOM     15  C   UNL     1       1.612   7.926  20.214  0.00  0.00    +0.000 A 
ATOM     16  C   UNL     1       1.140   8.407  21.466  0.00  0.00    +0.000 A 
ATOM     17  C   UNL     1       0.786   9.722  21.255  0.00  0.00    +0.000 A 
ATOM     18  N   UNL     1       1.048   9.966  19.941  0.00  0.00    +0.000 N 
ATOM     19  N   UNL     1       1.479   8.883  19.279  0.00  0.00    +0.000 NA
BRANCH  18  20
ATOM     20  C   UNL     1       1.126  11.258  19.289  0.00  0.00    +0.000 C 
BRANCH  20  21
ATOM     21  C   UNL     1       1.061  12.469  20.225  0.00  0.00    +0.000 C 
ATOM     22  C   UNL     1       0.054  13.545  19.796  0.00  0.00    +0.000 C 
ATOM     23  O   UNL     1       0.457  14.166  18.567  0.00  0.00    +0.000 OA
ATOM     24  C   UNL     1       1.740  14.784  18.719  0.00  0.00    +0.000 C 
ATOM     25  C   UNL     1       2.784  13.764  19.168  0.00  0.00    +0.000 C 
ATOM     26  O   UNL     1       2.374  13.071  20.359  0.00  0.00    +0.000 OA
ENDBRANCH  20  21
ENDBRANCH  18  20
ENDBRANCH   5  15
TORSDOF 5
ENDMDL
MODEL 2
REMARK VINA RESULT:      -7.8      1.891      2.449
REMARK  Name = 
REMARK  6 active torsions:
REMARK  status: ('A' for Active; 'I' for Inactive)
REMARK    1  A    between atoms: C_1  and  O_2
REMARK    2  A    between atoms: O_2  and  C_3
REMARK    3  A    between atoms: C_7  and  C_8
REMARK    4  A    between atoms: C_12  and  C_13
REMARK    5  A    between atoms: N_16  and  C_17
REMARK    6  A    between atoms: C_17  and  C_18
REMARK                            x       y       z     vdW  Elec       q    Type
REMARK                         _______ _______ _______ _____ _____    ______ ____
ROOT
ATOM      1  C   UNL     1       3.627   5.711  18.520  0.00  0.00    +0.000 A 
ATOM      2  C   UNL     1       3.212   4.836  19.539  0.00  0.00    +0.000 A 
ATOM      3  C   UNL     1       2.250   5.222  20.471  0.00  0.00    +0.000 A 
ATOM      4  C   UNL     1       1.681   6.492  20.400  0.00  0.00    +0.000 A 
ATOM      5  C   UNL     1       2.062   7.399  19.401  0.00  0.00    +0.000 A 
ATOM      6  C   UNL     1       3.036   6.996  18.473  0.00  0.00    +0.000 A 
ENDROOT
BRANCH   1  11
ATOM      7  C   UNL     1       6.705   5.929  16.607  0.00  0.00    +0.000 A 
ATOM      8  C   UNL     1       6.806   4.736  15.916  0.00  0.00    +0.000 A 
ATOM      9  C   UNL     1       5.772   3.816  16.044  0.00  0.00    +0.000 A 
ATOM     10  C   UNL     1       4.694   4.115  16.875  0.00  0.00    +0.000 A 
ATOM     11  C   UNL     1       4.676   5.331  17.558  0.00  0.00    +0.000 A 
ATOM     12  N   UNL     1       5.666   6.244  17.407  0.00  0.00    +0.000 NA
BRANCH   7  14
ATOM     13  C   UNL     1       7.819   7.743  17.556  0.00  0.00    +0.000 C 
ATOM     14  O   UNL     1       7.747   6.824  16.470  0.00  0.00    +0.000 OA
ENDBRANCH   7  14
ENDBRANCH   1  11
BRANCH   5  15
ATOM     15  C   UNL     1       1.415   8.715  19.316  0.00  0.00    +0.000 A 
ATOM     16  C   UNL     1       1.282   9.580  18.196  0.00  0.00    +0.000 A 
ATOM     17  C   UNL     1       0.487  10.624  18.618  0.00  0.00    +0.000 A 
ATOM     18  N   UNL     1       0.188  10.354  19.920  0.00  0.00    +0.000 N 
ATOM     19  N   UNL     1       0.791   9.249  20.380  0.00  0.00    +0.000 NA
BRANCH  18  20
ATOM     20  C   UNL     1      -0.841  10.975  20.729  0.00  0.00    +0.000 C 
BRANCH  20  21
ATOM     21  C   UNL     1      -0.416  11.356  22.151  0.00  0.00    +0.000 C 
ATOM     22  C   UNL     1      -1.545  11.283  23.187  0.00  0.00    +0.000 C 
ATOM     23  O   UNL     1      -2.549  12.274  22.924  0.00  0.00    +0.000 OA
ATOM     24  C   UNL     1      -1.977  13.586  22.971  0.00  0.00    +0.000 C 
ATOM     25  C   UNL     1      -0.828  13.714  21.973  0.00  0.00    +0.000 C 
ATOM     26  O   UNL     1       0.161  12.687  22.164  0.00  0.00    +0.000 OA
ENDBRANCH  20  21
ENDBRANCH  18  20
ENDBRANCH   5  15
TORSDOF 5
ENDMDL
MODEL 3
REMARK VINA RESULT:      -7.8      3.521      4.928
REMARK  Name = 
REMARK  6 active torsions:
REMARK  status: ('A' for Active; 'I' for Inactive)
REMARK    1  A    between atoms: C_1  and  O_2
REMARK    2  A    between atoms: O_2  and  C_3
REMARK    3  A    between atoms: C_7  and  C_8
REMARK    4  A    between atoms: C_12  and  C_13
REMARK    5  A    between atoms: N_16  and  C_17
REMARK    6  A    between atoms: C_17  and  C_18
REMARK                            x       y       z     vdW  Elec       q    Type
REMARK                         _______ _______ _______ _____ _____    ______ ____
ROOT
ATOM      1  C   UNL     1       2.483   7.213  19.213  0.00  0.00    +0.000 A 
ATOM      2  C   UNL     1       2.616   7.954  18.026  0.00  0.00    +0.000 A 
ATOM      3  C   UNL     1       1.986   9.189  17.876  0.00  0.00    +0.000 A 
ATOM      4  C   UNL     1       1.212   9.708  18.913  0.00  0.00    +0.000 A 
ATOM      5  C   UNL     1       1.053   9.005  20.116  0.00  0.00    +0.000 A 
ATOM      6  C   UNL     1       1.689   7.761  20.248  0.00  0.00    +0.000 A 
ENDROOT
BRANCH   1  11
ATOM      7  C   UNL     1       2.741   3.648  19.853  0.00  0.00    +0.000 A 
ATOM      8  C   UNL     1       4.049   3.306  19.565  0.00  0.00    +0.000 A 
ATOM      9  C   UNL     1       4.921   4.318  19.182  0.00  0.00    +0.000 A 
ATOM     10  C   UNL     1       4.446   5.624  19.081  0.00  0.00    +0.000 A 
ATOM     11  C   UNL     1       3.106   5.886  19.366  0.00  0.00    +0.000 A 
ATOM     12  N   UNL     1       2.262   4.906  19.773  0.00  0.00    +0.000 NA
BRANCH   7  14
ATOM     13  C   UNL     1       1.595   2.645  21.617  0.00  0.00    +0.000 C 
ATOM     14  O   UNL     1       1.891   2.625  20.223  0.00  0.00    +0.000 OA
ENDBRANCH   7  14
ENDBRANCH   1  11
BRANCH   5  15
ATOM     15  C   UNL     1       0.272   9.593  21.213  0.00  0.00    +0.000 A 
ATOM     16  C   UNL     1       0.043   9.088  22.522  0.00  0.00    +0.000 A 
ATOM     17  C   UNL     1      -0.644  10.078  23.192  0.00  0.00    +0.000 A 
ATOM     18  N   UNL     1      -0.792  11.093  22.295  0.00  0.00    +0.000 N 
ATOM     19  N   UNL     1      -0.311  10.796  21.080  0.00  0.00    +0.000 NA
BRANCH  18  20
ATOM     20  C   UNL     1      -1.180  12.460  22.577  0.00  0.00    +0.000 C 
BRANCH  20  21
ATOM     21  C   UNL     1      -2.565  12.868  22.063  0.00  0.00    +0.000 C 
ATOM     22  C   UNL     1      -2.854  14.372  22.154  0.00  0.00    +0.000 C 
ATOM     23  O   UNL     1      -2.931  14.799  23.522  0.00  0.00    +0.000 OA
ATOM     24  C   UNL     1      -3.975  14.095  24.205  0.00  0.00    +0.000 C 
ATOM     25  C   UNL     1      -3.754  12.586  24.129  0.00  0.00    +0.000 C 
ATOM     26  O   UNL     1      -3.599  12.138  22.771  0.00  0.00    +0.000 OA
ENDBRANCH  20  21
ENDBRANCH  18  20
ENDBRANCH   5  15
TORSDOF 5
ENDMDL
MODEL 4
REMARK VINA RESULT:      -7.7      3.119      4.478
REMARK  Name = 
REMARK  6 active torsions:
REMARK  status: ('A' for Active; 'I' for Inactive)
REMARK    1  A    between atoms: C_1  and  O_2
REMARK    2  A    between atoms: O_2  and  C_3
REMARK    3  A    between atoms: C_7  and  C_8
REMARK    4  A    between atoms: C_12  and  C_13
REMARK    5  A    between atoms: N_16  and  C_17
REMARK    6  A    between atoms: C_17  and  C_18
REMARK                            x       y       z     vdW  Elec       q    Type
REMARK                         _______ _______ _______ _____ _____    ______ ____
ROOT
ATOM      1  C   UNL     1       2.316   7.149  19.356  0.00  0.00    +0.000 A 
ATOM      2  C   UNL     1       2.557   7.885  18.183  0.00  0.00    +0.000 A 
ATOM      3  C   UNL     1       2.026   9.163  18.015  0.00  0.00    +0.000 A 
ATOM      4  C   UNL     1       1.246   9.732  19.020  0.00  0.00    +0.000 A 
ATOM      5  C   UNL     1       0.980   9.037  20.208  0.00  0.00    +0.000 A 
ATOM      6  C   UNL     1       1.518   7.749  20.359  0.00  0.00    +0.000 A 
ENDROOT
BRANCH   1  11
ATOM      7  C   UNL     1       4.681   4.395  19.317  0.00  0.00    +0.000 A 
ATOM      8  C   UNL     1       4.028   3.326  19.902  0.00  0.00    +0.000 A 
ATOM      9  C   UNL     1       2.705   3.503  20.292  0.00  0.00    +0.000 A 
ATOM     10  C   UNL     1       2.100   4.743  20.103  0.00  0.00    +0.000 A 
ATOM     11  C   UNL     1       2.833   5.780  19.527  0.00  0.00    +0.000 A 
ATOM     12  N   UNL     1       4.112   5.600  19.114  0.00  0.00    +0.000 NA
BRANCH   7  14
ATOM     13  C   UNL     1       6.517   5.294  18.197  0.00  0.00    +0.000 C 
ATOM     14  O   UNL     1       5.997   4.198  18.945  0.00  0.00    +0.000 OA
ENDBRANCH   7  14
ENDBRANCH   1  11
BRANCH   5  15
ATOM     15  C   UNL     1       0.195   9.675  21.274  0.00  0.00    +0.000 A 
ATOM     16  C   UNL     1      -0.052   9.225  22.599  0.00  0.00    +0.000 A 
ATOM     17  C   UNL     1      -0.735  10.247  23.222  0.00  0.00    +0.000 A 
ATOM     18  N   UNL     1      -0.864  11.227  22.285  0.00  0.00    +0.000 N 
ATOM     19  N   UNL     1      -0.374  10.878  21.087  0.00  0.00    +0.000 NA
BRANCH  18  20
ATOM     20  C   UNL     1      -1.242  12.608  22.509  0.00  0.00    +0.000 C 
BRANCH  20  21
ATOM     21  C   UNL     1      -2.645  12.990  22.028  0.00  0.00    +0.000 C 
ATOM     22  C   UNL     1      -2.980  14.480  22.179  0.00  0.00    +0.000 C 
ATOM     23  O   UNL     1      -3.051  14.854  23.563  0.00  0.00    +0.000 OA
ATOM     24  C   UNL     1      -4.063  14.093  24.231  0.00  0.00    +0.000 C 
ATOM     25  C   UNL     1      -3.797  12.595  24.097  0.00  0.00    +0.000 C 
ATOM     26  O   UNL     1      -3.646  12.203  22.721  0.00  0.00    +0.000 OA
ENDBRANCH  20  21
ENDBRANCH  18  20
ENDBRANCH   5  15
TORSDOF 5
ENDMDL
MODEL 5
REMARK VINA RESULT:      -7.6      1.192      1.631
REMARK  Name = 
REMARK  6 active torsions:
REMARK  status: ('A' for Active; 'I' for Inactive)
REMARK    1  A    between atoms: C_1  and  O_2
REMARK    2  A    between atoms: O_2  and  C_3
REMARK    3  A    between atoms: C_7  and  C_8
REMARK    4  A    between atoms: C_12  and  C_13
REMARK    5  A    between atoms: N_16  and  C_17
REMARK    6  A    between atoms: C_17  and  C_18
REMARK                            x       y       z     vdW  Elec       q    Type
REMARK                         _______ _______ _______ _____ _____    ______ ____
ROOT
ATOM      1  C   UNL     1       3.341   5.381  18.670  0.00  0.00    +0.000 A 
ATOM      2  C   UNL     1       2.815   4.253  19.323  0.00  0.00    +0.000 A 
ATOM      3  C   UNL     1       1.892   4.386  20.359  0.00  0.00    +0.000 A 
ATOM      4  C   UNL     1       1.474   5.654  20.761  0.00  0.00    +0.000 A 
ATOM      5  C   UNL     1       1.970   6.808  20.139  0.00  0.00    +0.000 A 
ATOM      6  C   UNL     1       2.903   6.656  19.100  0.00  0.00    +0.000 A 
ENDROOT
BRANCH   1  11
ATOM      7  C   UNL     1       6.250   6.184  16.652  0.00  0.00    +0.000 A 
ATOM      8  C   UNL     1       6.409   5.125  15.779  0.00  0.00    +0.000 A 
ATOM      9  C   UNL     1       5.472   4.099  15.817  0.00  0.00    +0.000 A 
ATOM     10  C   UNL     1       4.431   4.163  16.741  0.00  0.00    +0.000 A 
ATOM     11  C   UNL     1       4.351   5.254  17.605  0.00  0.00    +0.000 A 
ATOM     12  N   UNL     1       5.244   6.272  17.546  0.00  0.00    +0.000 NA
BRANCH   7  14
ATOM     13  C   UNL     1       7.700   7.525  17.890  0.00  0.00    +0.000 C 
ATOM     14  O   UNL     1       7.198   7.188  16.600  0.00  0.00    +0.000 OA
ENDBRANCH   7  14
ENDBRANCH   1  11
BRANCH   5  15
ATOM     15  C   UNL     1       1.479   8.132  20.546  0.00  0.00    +0.000 A 
ATOM     16  C   UNL     1       1.287   8.655  21.854  0.00  0.00    +0.000 A 
ATOM     17  C   UNL     1       0.933   9.976  21.683  0.00  0.00    +0.000 A 
ATOM     18  N   UNL     1       0.927  10.183  20.336  0.00  0.00    +0.000 N 
ATOM     19  N   UNL     1       1.184   9.072  19.632  0.00  0.00    +0.000 NA
BRANCH  18  20
ATOM     20  C   UNL     1       0.905  11.456  19.646  0.00  0.00    +0.000 C 
BRANCH  20  21
ATOM     21  C   UNL     1      -0.397  11.780  18.908  0.00  0.00    +0.000 C 
ATOM     22  C   UNL     1      -0.467  13.207  18.349  0.00  0.00    +0.000 C 
ATOM     23  O   UNL     1      -0.503  14.174  19.408  0.00  0.00    +0.000 OA
ATOM     24  C   UNL     1      -1.648  13.959  20.240  0.00  0.00    +0.000 C 
ATOM     25  C   UNL     1      -1.647  12.542  20.811  0.00  0.00    +0.000 C 
ATOM     26  O   UNL     1      -1.537  11.550  19.775  0.00  0.00    +0.000 OA
ENDBRANCH  20  21
ENDBRANCH  18  20
ENDBRANCH   5  15
TORSDOF 5
ENDMDL
MODEL 6
REMARK VINA RESULT:      -7.6      1.993      2.630
REMARK  Name = 
REMARK  6 active torsions:
REMARK  status: ('A' for Active; 'I' for Inactive)
REMARK    1  A    between atoms: C_1  and  O_2
REMARK    2  A    between atoms: O_2  and  C_3
REMARK    3  A    between atoms: C_7  and  C_8
REMARK    4  A    between atoms: C_12  and  C_13
REMARK    5  A    between atoms: N_16  and  C_17
REMARK    6  A    between atoms: C_17  and  C_18
REMARK                            x       y       z     vdW  Elec       q    Type
REMARK                         _______ _______ _______ _____ _____    ______ ____
ROOT
ATOM      1  C   UNL     1       3.463   5.641  18.644  0.00  0.00    +0.000 A 
ATOM      2  C   UNL     1       3.013   4.682  19.568  0.00  0.00    +0.000 A 
ATOM      3  C   UNL     1       2.109   5.021  20.574  0.00  0.00    +0.000 A 
ATOM      4  C   UNL     1       1.635   6.328  20.673  0.00  0.00    +0.000 A 
ATOM      5  C   UNL     1       2.054   7.319  19.773  0.00  0.00    +0.000 A 
ATOM      6  C   UNL     1       2.969   6.961  18.770  0.00  0.00    +0.000 A 
ENDROOT
BRANCH   1  11
ATOM      7  C   UNL     1       6.423   5.947  16.565  0.00  0.00    +0.000 A 
ATOM      8  C   UNL     1       6.481   4.787  15.816  0.00  0.00    +0.000 A 
ATOM      9  C   UNL     1       5.455   3.861  15.963  0.00  0.00    +0.000 A 
ATOM     10  C   UNL     1       4.428   4.122  16.868  0.00  0.00    +0.000 A 
ATOM     11  C   UNL     1       4.452   5.305  17.606  0.00  0.00    +0.000 A 
ATOM     12  N   UNL     1       5.434   6.225  17.438  0.00  0.00    +0.000 NA
BRANCH   7  14
ATOM     13  C   UNL     1       7.768   7.534  17.618  0.00  0.00    +0.000 C 
ATOM     14  O   UNL     1       7.458   6.848  16.408  0.00  0.00    +0.000 OA
ENDBRANCH   7  14
ENDBRANCH   1  11
BRANCH   5  15
ATOM     15  C   UNL     1       1.505   8.678  19.867  0.00  0.00    +0.000 A 
ATOM     16  C   UNL     1       1.237   9.612  18.830  0.00  0.00    +0.000 A 
ATOM     17  C   UNL     1       0.614  10.681  19.437  0.00  0.00    +0.000 A 
ATOM     18  N   UNL     1       0.536  10.358  20.758  0.00  0.00    +0.000 N 
ATOM     19  N   UNL     1       1.127   9.191  21.051  0.00  0.00    +0.000 NA
BRANCH  18  20
ATOM     20  C   UNL     1      -0.278  11.000  21.770  0.00  0.00    +0.000 C 
BRANCH  20  21
ATOM     21  C   UNL     1      -0.906  12.335  21.356  0.00  0.00    +0.000 C 
ATOM     22  C   UNL     1      -0.373  13.549  22.127  0.00  0.00    +0.000 C 
ATOM     23  O   UNL     1      -0.747  13.485  23.511  0.00  0.00    +0.000 OA
ATOM     24  C   UNL     1      -2.173  13.459  23.640  0.00  0.00    +0.000 C 
ATOM     25  C   UNL     1      -2.767  12.280  22.872  0.00  0.00    +0.000 C 
ATOM     26  O   UNL     1      -2.349  12.276  21.496  0.00  0.00    +0.000 OA
ENDBRANCH  20  21
ENDBRANCH  18  20
ENDBRANCH   5  15
TORSDOF 5
ENDMDL
MODEL 7
REMARK VINA RESULT:      -7.5      2.227      3.214
REMARK  Name = 
REMARK  6 active torsions:
REMARK  status: ('A' for Active; 'I' for Inactive)
REMARK    1  A    between atoms: C_1  and  O_2
REMARK    2  A    between atoms: O_2  and  C_3
REMARK    3  A    between atoms: C_7  and  C_8
REMARK    4  A    between atoms: C_12  and  C_13
REMARK    5  A    between atoms: N_16  and  C_17
REMARK    6  A    between atoms: C_17  and  C_18
REMARK                            x       y       z     vdW  Elec       q    Type
REMARK                         _______ _______ _______ _____ _____    ______ ____
ROOT
ATOM      1  C   UNL     1       4.583   4.989  17.353  0.00  0.00    +0.000 A 
ATOM      2  C   UNL     1       4.392   3.973  18.305  0.00  0.00    +0.000 A 
ATOM      3  C   UNL     1       3.558   4.165  19.405  0.00  0.00    +0.000 A 
ATOM      4  C   UNL     1       2.895   5.380  19.573  0.00  0.00    +0.000 A 
ATOM      5  C   UNL     1       3.054   6.423  18.649  0.00  0.00    +0.000 A 
ATOM      6  C   UNL     1       3.901   6.213  17.549  0.00  0.00    +0.000 A 
ENDROOT
BRANCH   1  11
ATOM      7  C   UNL     1       5.676   4.188  13.985  0.00  0.00    +0.000 A 
ATOM      8  C   UNL     1       7.008   4.550  13.923  0.00  0.00    +0.000 A 
ATOM      9  C   UNL     1       7.606   5.045  15.076  0.00  0.00    +0.000 A 
ATOM     10  C   UNL     1       6.842   5.179  16.234  0.00  0.00    +0.000 A 
ATOM     11  C   UNL     1       5.497   4.813  16.211  0.00  0.00    +0.000 A 
ATOM     12  N   UNL     1       4.921   4.298  15.097  0.00  0.00    +0.000 NA
BRANCH   7  14
ATOM     13  C   UNL     1       6.022   2.955  12.037  0.00  0.00    +0.000 C 
ATOM     14  O   UNL     1       5.102   3.706  12.824  0.00  0.00    +0.000 OA
ENDBRANCH   7  14
ENDBRANCH   1  11
BRANCH   5  15
ATOM     15  C   UNL     1       2.308   7.677  18.820  0.00  0.00    +0.000 A 
ATOM     16  C   UNL     1       2.060   8.710  17.876  0.00  0.00    +0.000 A 
ATOM     17  C   UNL     1       1.211   9.597  18.503  0.00  0.00    +0.000 A 
ATOM     18  N   UNL     1       0.993   9.081  19.744  0.00  0.00    +0.000 N 
ATOM     19  N   UNL     1       1.697   7.965  19.982  0.00  0.00    +0.000 NA
BRANCH  18  20
ATOM     20  C   UNL     1      -0.039   9.467  20.684  0.00  0.00    +0.000 C 
BRANCH  20  21
ATOM     21  C   UNL     1       0.461  10.118  21.978  0.00  0.00    +0.000 C 
ATOM     22  C   UNL     1      -0.644  10.426  22.997  0.00  0.00    +0.000 C 
ATOM     23  O   UNL     1      -1.531  11.440  22.503  0.00  0.00    +0.000 OA
ATOM     24  C   UNL     1      -0.808  12.648  22.241  0.00  0.00    +0.000 C 
ATOM     25  C   UNL     1       0.324  12.400  21.247  0.00  0.00    +0.000 C 
ATOM     26  O   UNL     1       1.189  11.336  21.679  0.00  0.00    +0.000 OA
ENDBRANCH  20  21
ENDBRANCH  18  20
ENDBRANCH   5  15
TORSDOF 5
ENDMDL
MODEL 8
REMARK VINA RESULT:      -7.5      3.425      4.689
REMARK  Name = 
REMARK  6 active torsions:
REMARK  status: ('A' for Active; 'I' for Inactive)
REMARK    1  A    between atoms: C_1  and  O_2
REMARK    2  A    between atoms: O_2  and  C_3
REMARK    3  A    between atoms: C_7  and  C_8
REMARK    4  A    between atoms: C_12  and  C_13
REMARK    5  A    between atoms: N_16  and  C_17
REMARK    6  A    between atoms: C_17  and  C_18
REMARK                            x       y       z     vdW  Elec       q    Type
REMARK                         _______ _______ _______ _____ _____    ______ ____
ROOT
ATOM      1  C   UNL     1       2.497   7.188  19.187  0.00  0.00    +0.000 A 
ATOM      2  C   UNL     1       2.621   7.913  17.989  0.00  0.00    +0.000 A 
ATOM      3  C   UNL     1       1.992   9.146  17.826  0.00  0.00    +0.000 A 
ATOM      4  C   UNL     1       1.228   9.681  18.862  0.00  0.00    +0.000 A 
ATOM      5  C   UNL     1       1.077   8.996  20.076  0.00  0.00    +0.000 A 
ATOM      6  C   UNL     1       1.713   7.752  20.221  0.00  0.00    +0.000 A 
ENDROOT
BRANCH   1  11
ATOM      7  C   UNL     1       2.750   3.628  19.853  0.00  0.00    +0.000 A 
ATOM      8  C   UNL     1       4.060   3.284  19.577  0.00  0.00    +0.000 A 
ATOM      9  C   UNL     1       4.935   4.294  19.195  0.00  0.00    +0.000 A 
ATOM     10  C   UNL     1       4.461   5.599  19.081  0.00  0.00    +0.000 A 
ATOM     11  C   UNL     1       3.119   5.863  19.354  0.00  0.00    +0.000 A 
ATOM     12  N   UNL     1       2.272   4.886  19.761  0.00  0.00    +0.000 NA
BRANCH   7  14
ATOM     13  C   UNL     1       1.553   2.664  21.605  0.00  0.00    +0.000 C 
ATOM     14  O   UNL     1       1.898   2.607  20.224  0.00  0.00    +0.000 OA
ENDBRANCH   7  14
ENDBRANCH   1  11
BRANCH   5  15
ATOM     15  C   UNL     1       0.306   9.600  21.171  0.00  0.00    +0.000 A 
ATOM     16  C   UNL     1       0.015   9.077  22.460  0.00  0.00    +0.000 A 
ATOM     17  C   UNL     1      -0.628  10.088  23.141  0.00  0.00    +0.000 A 
ATOM     18  N   UNL     1      -0.693  11.133  22.269  0.00  0.00    +0.000 N 
ATOM     19  N   UNL     1      -0.201  10.840  21.057  0.00  0.00    +0.000 NA
BRANCH  18  20
ATOM     20  C   UNL     1      -1.007  12.513  22.579  0.00  0.00    +0.000 C 
BRANCH  20  21
ATOM     21  C   UNL     1      -2.358  12.741  23.263  0.00  0.00    +0.000 C 
ATOM     22  C   UNL     1      -3.563  12.691  22.314  0.00  0.00    +0.000 C 
ATOM     23  O   UNL     1      -3.534  13.786  21.387  0.00  0.00    +0.000 OA
ATOM     24  C   UNL     1      -3.565  15.033  22.091  0.00  0.00    +0.000 C 
ATOM     25  C   UNL     1      -2.399  15.134  23.072  0.00  0.00    +0.000 C 
ATOM     26  O   UNL     1      -2.358  14.009  23.967  0.00  0.00    +0.000 OA
ENDBRANCH  20  21
ENDBRANCH  18  20
ENDBRANCH   5  15
TORSDOF 5
ENDMDL
MODEL 9
REMARK VINA RESULT:      -7.5      1.260      1.734
REMARK  Name = 
REMARK  6 active torsions:
REMARK  status: ('A' for Active; 'I' for Inactive)
REMARK    1  A    between atoms: C_1  and  O_2
REMARK    2  A    between atoms: O_2  and  C_3
REMARK    3  A    between atoms: C_7  and  C_8
REMARK    4  A    between atoms: C_12  and  C_13
REMARK    5  A    between atoms: N_16  and  C_17
REMARK    6  A    between atoms: C_17  and  C_18
REMARK                            x       y       z     vdW  Elec       q    Type
REMARK                         _______ _______ _______ _____ _____    ______ ____
ROOT
ATOM      1  C   UNL     1       3.851   4.960  19.301  0.00  0.00    +0.000 A 
ATOM      2  C   UNL     1       3.224   3.830  19.854  0.00  0.00    +0.000 A 
ATOM      3  C   UNL     1       2.044   3.948  20.586  0.00  0.00    +0.000 A 
ATOM      4  C   UNL     1       1.465   5.201  20.777  0.00  0.00    +0.000 A 
ATOM      5  C   UNL     1       2.053   6.357  20.243  0.00  0.00    +0.000 A 
ATOM      6  C   UNL     1       3.244   6.220  19.513  0.00  0.00    +0.000 A 
ENDROOT
BRANCH   1  11
ATOM      7  C   UNL     1       6.131   4.225  16.573  0.00  0.00    +0.000 A 
ATOM      8  C   UNL     1       7.366   4.700  16.973  0.00  0.00    +0.000 A 
ATOM      9  C   UNL     1       7.473   5.255  18.243  0.00  0.00    +0.000 A 
ATOM     10  C   UNL     1       6.339   5.333  19.049  0.00  0.00    +0.000 A 
ATOM     11  C   UNL     1       5.123   4.853  18.565  0.00  0.00    +0.000 A 
ATOM     12  N   UNL     1       5.024   4.280  17.340  0.00  0.00    +0.000 NA
BRANCH   7  14
ATOM     13  C   UNL     1       6.655   4.517  14.320  0.00  0.00    +0.000 C 
ATOM     14  O   UNL     1       6.047   3.685  15.304  0.00  0.00    +0.000 OA
ENDBRANCH   7  14
ENDBRANCH   1  11
BRANCH   5  15
ATOM     15  C   UNL     1       1.399   7.662  20.416  0.00  0.00    +0.000 A 
ATOM     16  C   UNL     1       0.604   8.131  21.497  0.00  0.00    +0.000 A 
ATOM     17  C   UNL     1       0.343   9.457  21.223  0.00  0.00    +0.000 A 
ATOM     18  N   UNL     1       0.966   9.717  20.040  0.00  0.00    +0.000 N 
ATOM     19  N   UNL     1       1.548   8.636  19.502  0.00  0.00    +0.000 NA
BRANCH  18  20
ATOM     20  C   UNL     1       1.243  11.017  19.464  0.00  0.00    +0.000 C 
BRANCH  20  21
ATOM     21  C   UNL     1       0.695  12.213  20.249  0.00  0.00    +0.000 C 
ATOM     22  C   UNL     1       0.004  13.274  19.382  0.00  0.00    +0.000 C 
ATOM     23  O   UNL     1       0.945  13.922  18.514  0.00  0.00    +0.000 OA
ATOM     24  C   UNL     1       1.969  14.563  19.281  0.00  0.00    +0.000 C 
ATOM     25  C   UNL     1       2.682  13.559  20.185  0.00  0.00    +0.000 C 
ATOM     26  O   UNL     1       1.754  12.839  21.016  0.00  0.00    +0.000 OA
ENDBRANCH  20  21
ENDBRANCH  18  20
ENDBRANCH   5  15
TORSDOF 5
ENDMDL
