MODEL 1
REMARK VINA RESULT:      -7.8      0.000      0.000
REMARK  Name = 
REMARK  2 active torsions:
REMARK  status: ('A' for Active; 'I' for Inactive)
REMARK    1  A    between atoms: N_12  and  C_13
REMARK    2  A    between atoms: C_15  and  C_16
REMARK                            x       y       z     vdW  Elec       q    Type
REMARK                         _______ _______ _______ _____ _____    ______ ____
ROOT
ATOM      1  H   UNL     1       0.905   9.539  22.407  0.00  0.00    +0.000 HD
ATOM      2  N   UNL     1       0.903   9.950  21.483  0.00  0.00    +0.000 N 
ATOM      3  C   UNL     1       0.295  11.160  21.216  0.00  0.00    +0.000 C 
ATOM      4  O   UNL     1      -0.244  11.864  22.064  0.00  0.00    +0.000 OA
ATOM      5  C   UNL     1       0.426  11.449  19.657  0.00  0.00    +0.000 C 
ATOM      6  C   UNL     1       1.134  10.175  19.220  0.00  0.00    +0.000 A 
ATOM      7  C   UNL     1       1.427   9.689  17.956  0.00  0.00    +0.000 A 
ATOM      8  C   UNL     1       1.929   8.391  17.824  0.00  0.00    +0.000 A 
ATOM      9  C   UNL     1       2.149   7.586  18.954  0.00  0.00    +0.000 A 
ATOM     10  C   UNL     1       1.869   8.068  20.229  0.00  0.00    +0.000 A 
ATOM     11  C   UNL     1       1.352   9.349  20.325  0.00  0.00    +0.000 A 
ATOM     12  N   UNL     1      -0.980  11.566  19.179  0.00  0.00    +0.000 NA
ATOM     13  C   UNL     1      -1.636  10.388  18.627  0.00  0.00    +0.000 C 
ATOM     14  C   UNL     1      -1.126  12.712  18.298  0.00  0.00    +0.000 C 
ATOM     15  C   UNL     1       0.047  13.653  18.562  0.00  0.00    +0.000 C 
ATOM     16  C   UNL     1       1.097  12.839  19.427  0.00  0.00    +0.000 C 
ATOM     17  C   UNL     1       1.572  13.615  20.694  0.00  0.00    +0.000 C 
ATOM     18  C   UNL     1       2.516  14.607  20.093  0.00  0.00    +0.000 A 
ATOM     19  C   UNL     1       2.526  15.987  20.178  0.00  0.00    +0.000 A 
ATOM     20  C   UNL     1       3.343  16.696  19.290  0.00  0.00    +0.000 A 
ATOM     21  C   UNL     1       4.256  16.024  18.460  0.00  0.00    +0.000 A 
ATOM     22  C   UNL     1       4.247  14.633  18.386  0.00  0.00    +0.000 A 
ATOM     23  C   UNL     1       3.271  13.982  19.117  0.00  0.00    +0.000 A 
ATOM     24  C   UNL     1       2.465  12.829  18.678  0.00  0.00    +0.000 C 
ATOM     25  O   UNL     1       2.794  12.172  17.706  0.00  0.00    +0.000 OA
ENDROOT
BRANCH  15  26
ATOM     26  C   UNL     1      -0.469  14.999  19.081  0.00  0.00    +0.000 A 
ATOM     27  C   UNL     1      -0.263  16.200  18.377  0.00  0.00    +0.000 A 
ATOM     28  C   UNL     1      -0.919  17.373  18.759  0.00  0.00    +0.000 A 
ATOM     29  C   UNL     1      -1.728  17.369  19.887  0.00  0.00    +0.000 A 
ATOM     30  F   UNL     1      -2.412  18.473  20.215  0.00  0.00    +0.000 F 
ATOM     31  C   UNL     1      -1.862  16.224  20.662  0.00  0.00    +0.000 A 
ATOM     32  C   UNL     1      -1.228  15.043  20.265  0.00  0.00    +0.000 A 
ENDBRANCH  15  26
TORSDOF 1
ENDMDL
MODEL 2
REMARK VINA RESULT:      -7.6      7.355      9.499
REMARK  Name = 
REMARK  2 active torsions:
REMARK  status: ('A' for Active; 'I' for Inactive)
REMARK    1  A    between atoms: N_12  and  C_13
REMARK    2  A    between atoms: C_15  and  C_16
REMARK                            x       y       z     vdW  Elec       q    Type
REMARK                         _______ _______ _______ _____ _____    ______ ____
ROOT
ATOM      1  H   UNL     1       9.219  15.065  25.767  0.00  0.00    +0.000 HD
ATOM      2  N   UNL     1       8.830  14.667  24.922  0.00  0.00    +0.000 N 
ATOM      3  C   UNL     1       8.876  15.325  23.710  0.00  0.00    +0.000 C 
ATOM      4  O   UNL     1       9.428  16.407  23.531  0.00  0.00    +0.000 OA
ATOM      5  C   UNL     1       8.107  14.441  22.634  0.00  0.00    +0.000 C 
ATOM      6  C   UNL     1       7.644  13.299  23.527  0.00  0.00    +0.000 A 
ATOM      7  C   UNL     1       6.785  12.242  23.274  0.00  0.00    +0.000 A 
ATOM      8  C   UNL     1       6.379  11.425  24.333  0.00  0.00    +0.000 A 
ATOM      9  C   UNL     1       6.840  11.657  25.639  0.00  0.00    +0.000 A 
ATOM     10  C   UNL     1       7.711  12.710  25.903  0.00  0.00    +0.000 A 
ATOM     11  C   UNL     1       8.078  13.514  24.838  0.00  0.00    +0.000 A 
ATOM     12  N   UNL     1       7.010  15.321  22.142  0.00  0.00    +0.000 NA
ATOM     13  C   UNL     1       5.696  15.221  22.762  0.00  0.00    +0.000 C 
ATOM     14  C   UNL     1       6.916  15.258  20.694  0.00  0.00    +0.000 C 
ATOM     15  C   UNL     1       8.247  14.728  20.165  0.00  0.00    +0.000 C 
ATOM     16  C   UNL     1       9.037  14.156  21.414  0.00  0.00    +0.000 C 
ATOM     17  C   UNL     1      10.501  14.686  21.501  0.00  0.00    +0.000 C 
ATOM     18  C   UNL     1      11.170  13.874  20.437  0.00  0.00    +0.000 A 
ATOM     19  C   UNL     1      11.895  14.282  19.333  0.00  0.00    +0.000 A 
ATOM     20  C   UNL     1      12.169  13.337  18.338  0.00  0.00    +0.000 A 
ATOM     21  C   UNL     1      11.870  11.978  18.534  0.00  0.00    +0.000 A 
ATOM     22  C   UNL     1      11.147  11.572  19.654  0.00  0.00    +0.000 A 
ATOM     23  C   UNL     1      10.707  12.572  20.500  0.00  0.00    +0.000 A 
ATOM     24  C   UNL     1       9.385  12.659  21.146  0.00  0.00    +0.000 C 
ATOM     25  O   UNL     1       8.650  11.688  21.198  0.00  0.00    +0.000 OA
ENDROOT
BRANCH  15  26
ATOM     26  C   UNL     1       8.913  15.782  19.274  0.00  0.00    +0.000 A 
ATOM     27  C   UNL     1       9.352  17.020  19.782  0.00  0.00    +0.000 A 
ATOM     28  C   UNL     1      10.139  17.871  19.003  0.00  0.00    +0.000 A 
ATOM     29  C   UNL     1      10.435  17.523  17.692  0.00  0.00    +0.000 A 
ATOM     30  F   UNL     1      11.247  18.303  16.967  0.00  0.00    +0.000 F 
ATOM     31  C   UNL     1       9.924  16.359  17.133  0.00  0.00    +0.000 A 
ATOM     32  C   UNL     1       9.158  15.493  17.919  0.00  0.00    +0.000 A 
ENDBRANCH  15  26
TORSDOF 1
ENDMDL
MODEL 3
REMARK VINA RESULT:      -7.0      3.173      5.987
REMARK  Name = 
REMARK  2 active torsions:
REMARK  status: ('A' for Active; 'I' for Inactive)
REMARK    1  A    between atoms: N_12  and  C_13
REMARK    2  A    between atoms: C_15  and  C_16
REMARK                            x       y       z     vdW  Elec       q    Type
REMARK                         _______ _______ _______ _____ _____    ______ ____
ROOT
ATOM      1  H   UNL     1      -3.092  12.919  24.806  0.00  0.00    +0.000 HD
ATOM      2  N   UNL     1      -3.077  13.133  23.818  0.00  0.00    +0.000 N 
ATOM      3  C   UNL     1      -1.923  13.519  23.165  0.00  0.00    +0.000 C 
ATOM      4  O   UNL     1      -0.819  13.585  23.696  0.00  0.00    +0.000 OA
ATOM      5  C   UNL     1      -2.293  13.845  21.653  0.00  0.00    +0.000 C 
ATOM      6  C   UNL     1      -3.796  13.611  21.701  0.00  0.00    +0.000 A 
ATOM      7  C   UNL     1      -4.782  13.860  20.761  0.00  0.00    +0.000 A 
ATOM      8  C   UNL     1      -6.124  13.722  21.128  0.00  0.00    +0.000 A 
ATOM      9  C   UNL     1      -6.478  13.324  22.427  0.00  0.00    +0.000 A 
ATOM     10  C   UNL     1      -5.495  13.061  23.377  0.00  0.00    +0.000 A 
ATOM     11  C   UNL     1      -4.176  13.228  22.990  0.00  0.00    +0.000 A 
ATOM     12  N   UNL     1      -1.898  15.270  21.470  0.00  0.00    +0.000 NA
ATOM     13  C   UNL     1      -2.903  16.308  21.653  0.00  0.00    +0.000 C 
ATOM     14  C   UNL     1      -1.181  15.444  20.219  0.00  0.00    +0.000 C 
ATOM     15  C   UNL     1      -0.660  14.075  19.787  0.00  0.00    +0.000 C 
ATOM     16  C   UNL     1      -1.398  13.003  20.691  0.00  0.00    +0.000 C 
ATOM     17  C   UNL     1      -0.416  11.984  21.349  0.00  0.00    +0.000 C 
ATOM     18  C   UNL     1      -0.094  11.097  20.188  0.00  0.00    +0.000 A 
ATOM     19  C   UNL     1       1.130  10.762  19.639  0.00  0.00    +0.000 A 
ATOM     20  C   UNL     1       1.143  10.147  18.382  0.00  0.00    +0.000 A 
ATOM     21  C   UNL     1      -0.052   9.723  17.776  0.00  0.00    +0.000 A 
ATOM     22  C   UNL     1      -1.282  10.056  18.339  0.00  0.00    +0.000 A 
ATOM     23  C   UNL     1      -1.249  10.856  19.466  0.00  0.00    +0.000 A 
ATOM     24  C   UNL     1      -2.141  11.990  19.766  0.00  0.00    +0.000 C 
ATOM     25  O   UNL     1      -3.180  12.147  19.149  0.00  0.00    +0.000 OA
ENDROOT
BRANCH  15  26
ATOM     26  C   UNL     1       0.871  14.089  19.738  0.00  0.00    +0.000 A 
ATOM     27  C   UNL     1       1.582  13.905  18.537  0.00  0.00    +0.000 A 
ATOM     28  C   UNL     1       2.960  14.130  18.482  0.00  0.00    +0.000 A 
ATOM     29  C   UNL     1       3.645  14.473  19.640  0.00  0.00    +0.000 A 
ATOM     30  F   UNL     1       4.952  14.758  19.576  0.00  0.00    +0.000 F 
ATOM     31  C   UNL     1       2.985  14.555  20.859  0.00  0.00    +0.000 A 
ATOM     32  C   UNL     1       1.602  14.357  20.910  0.00  0.00    +0.000 A 
ENDBRANCH  15  26
TORSDOF 1
ENDMDL
MODEL 4
REMARK VINA RESULT:      -6.9      3.441      6.608
REMARK  Name = 
REMARK  2 active torsions:
REMARK  status: ('A' for Active; 'I' for Inactive)
REMARK    1  A    between atoms: N_12  and  C_13
REMARK    2  A    between atoms: C_15  and  C_16
REMARK                            x       y       z     vdW  Elec       q    Type
REMARK                         _______ _______ _______ _____ _____    ______ ____
ROOT
ATOM      1  H   UNL     1      -5.293  15.715  21.359  0.00  0.00    +0.000 HD
ATOM      2  N   UNL     1      -4.485  15.333  21.832  0.00  0.00    +0.000 N 
ATOM      3  C   UNL     1      -3.840  14.197  21.386  0.00  0.00    +0.000 C 
ATOM      4  O   UNL     1      -4.143  13.586  20.365  0.00  0.00    +0.000 OA
ATOM      5  C   UNL     1      -2.673  13.853  22.411  0.00  0.00    +0.000 C 
ATOM      6  C   UNL     1      -2.898  14.957  23.434  0.00  0.00    +0.000 A 
ATOM      7  C   UNL     1      -2.328  15.169  24.679  0.00  0.00    +0.000 A 
ATOM      8  C   UNL     1      -2.848  16.170  25.505  0.00  0.00    +0.000 A 
ATOM      9  C   UNL     1      -3.926  16.964  25.082  0.00  0.00    +0.000 A 
ATOM     10  C   UNL     1      -4.499  16.767  23.829  0.00  0.00    +0.000 A 
ATOM     11  C   UNL     1      -3.977  15.755  23.043  0.00  0.00    +0.000 A 
ATOM     12  N   UNL     1      -2.998  12.484  22.902  0.00  0.00    +0.000 NA
ATOM     13  C   UNL     1      -3.756  12.342  24.138  0.00  0.00    +0.000 C 
ATOM     14  C   UNL     1      -1.810  11.650  22.913  0.00  0.00    +0.000 C 
ATOM     15  C   UNL     1      -0.786  12.287  21.976  0.00  0.00    +0.000 C 
ATOM     16  C   UNL     1      -1.312  13.748  21.655  0.00  0.00    +0.000 C 
ATOM     17  C   UNL     1      -1.324  14.067  20.128  0.00  0.00    +0.000 C 
ATOM     18  C   UNL     1       0.131  14.304  19.867  0.00  0.00    +0.000 A 
ATOM     19  C   UNL     1       0.980  13.698  18.960  0.00  0.00    +0.000 A 
ATOM     20  C   UNL     1       2.357  13.894  19.113  0.00  0.00    +0.000 A 
ATOM     21  C   UNL     1       2.852  14.818  20.049  0.00  0.00    +0.000 A 
ATOM     22  C   UNL     1       1.990  15.431  20.955  0.00  0.00    +0.000 A 
ATOM     23  C   UNL     1       0.665  15.038  20.910  0.00  0.00    +0.000 A 
ATOM     24  C   UNL     1      -0.214  14.778  22.063  0.00  0.00    +0.000 C 
ATOM     25  O   UNL     1       0.090  15.161  23.179  0.00  0.00    +0.000 OA
ENDROOT
BRANCH  15  26
ATOM     26  C   UNL     1      -0.469  11.333  20.820  0.00  0.00    +0.000 A 
ATOM     27  C   UNL     1      -1.412  11.033  19.819  0.00  0.00    +0.000 A 
ATOM     28  C   UNL     1      -1.035  10.333  18.670  0.00  0.00    +0.000 A 
ATOM     29  C   UNL     1       0.268   9.870  18.547  0.00  0.00    +0.000 A 
ATOM     30  F   UNL     1       0.650   9.261  17.417  0.00  0.00    +0.000 F 
ATOM     31  C   UNL     1       1.189  10.059  19.569  0.00  0.00    +0.000 A 
ATOM     32  C   UNL     1       0.820  10.783  20.706  0.00  0.00    +0.000 A 
ENDBRANCH  15  26
TORSDOF 1
ENDMDL
MODEL 5
REMARK VINA RESULT:      -6.8      3.388      6.093
REMARK  Name = 
REMARK  2 active torsions:
REMARK  status: ('A' for Active; 'I' for Inactive)
REMARK    1  A    between atoms: N_12  and  C_13
REMARK    2  A    between atoms: C_15  and  C_16
REMARK                            x       y       z     vdW  Elec       q    Type
REMARK                         _______ _______ _______ _____ _____    ______ ____
ROOT
ATOM      1  H   UNL     1      -3.348  13.147  25.187  0.00  0.00    +0.000 HD
ATOM      2  N   UNL     1      -3.353  13.331  24.192  0.00  0.00    +0.000 N 
ATOM      3  C   UNL     1      -2.248  13.827  23.530  0.00  0.00    +0.000 C 
ATOM      4  O   UNL     1      -1.161  14.036  24.060  0.00  0.00    +0.000 OA
ATOM      5  C   UNL     1      -2.645  14.061  22.007  0.00  0.00    +0.000 C 
ATOM      6  C   UNL     1      -4.111  13.657  22.061  0.00  0.00    +0.000 A 
ATOM      7  C   UNL     1      -5.115  13.761  21.112  0.00  0.00    +0.000 A 
ATOM      8  C   UNL     1      -6.434  13.480  21.481  0.00  0.00    +0.000 A 
ATOM      9  C   UNL     1      -6.746  13.085  22.792  0.00  0.00    +0.000 A 
ATOM     10  C   UNL     1      -5.744  12.967  23.750  0.00  0.00    +0.000 A 
ATOM     11  C   UNL     1      -4.452  13.273  23.360  0.00  0.00    +0.000 A 
ATOM     12  N   UNL     1      -2.416  15.515  21.780  0.00  0.00    +0.000 NA
ATOM     13  C   UNL     1      -3.535  16.436  21.929  0.00  0.00    +0.000 C 
ATOM     14  C   UNL     1      -1.718  15.732  20.525  0.00  0.00    +0.000 C 
ATOM     15  C   UNL     1      -1.041  14.420  20.137  0.00  0.00    +0.000 C 
ATOM     16  C   UNL     1      -1.655  13.298  21.074  0.00  0.00    +0.000 C 
ATOM     17  C   UNL     1      -0.565  12.420  21.764  0.00  0.00    +0.000 C 
ATOM     18  C   UNL     1      -0.137  11.540  20.632  0.00  0.00    +0.000 A 
ATOM     19  C   UNL     1       1.120  11.332  20.096  0.00  0.00    +0.000 A 
ATOM     20  C   UNL     1       1.210  10.683  18.859  0.00  0.00    +0.000 A 
ATOM     21  C   UNL     1       0.074  10.106  18.265  0.00  0.00    +0.000 A 
ATOM     22  C   UNL     1      -1.188  10.313  18.816  0.00  0.00    +0.000 A 
ATOM     23  C   UNL     1      -1.253  11.146  19.917  0.00  0.00    +0.000 A 
ATOM     24  C   UNL     1      -2.271  12.178  20.180  0.00  0.00    +0.000 C 
ATOM     25  O   UNL     1      -3.318  12.195  19.557  0.00  0.00    +0.000 OA
ENDROOT
BRANCH  15  26
ATOM     26  C   UNL     1       0.479  14.609  20.090  0.00  0.00    +0.000 A 
ATOM     27  C   UNL     1       1.238  14.854  21.250  0.00  0.00    +0.000 A 
ATOM     28  C   UNL     1       2.634  14.813  21.211  0.00  0.00    +0.000 A 
ATOM     29  C   UNL     1       3.280  14.596  20.001  0.00  0.00    +0.000 A 
ATOM     30  F   UNL     1       4.614  14.487  19.973  0.00  0.00    +0.000 F 
ATOM     31  C   UNL     1       2.556  14.459  18.824  0.00  0.00    +0.000 A 
ATOM     32  C   UNL     1       1.159  14.473  18.866  0.00  0.00    +0.000 A 
ENDBRANCH  15  26
TORSDOF 1
ENDMDL
MODEL 6
REMARK VINA RESULT:      -6.8      3.463      6.159
REMARK  Name = 
REMARK  2 active torsions:
REMARK  status: ('A' for Active; 'I' for Inactive)
REMARK    1  A    between atoms: N_12  and  C_13
REMARK    2  A    between atoms: C_15  and  C_16
REMARK                            x       y       z     vdW  Elec       q    Type
REMARK                         _______ _______ _______ _____ _____    ______ ____
ROOT
ATOM      1  H   UNL     1      -0.550  13.458  17.075  0.00  0.00    +0.000 HD
ATOM      2  N   UNL     1      -1.110  12.977  17.767  0.00  0.00    +0.000 N 
ATOM      3  C   UNL     1      -1.028  13.270  19.113  0.00  0.00    +0.000 C 
ATOM      4  O   UNL     1      -0.326  14.159  19.586  0.00  0.00    +0.000 OA
ATOM      5  C   UNL     1      -1.985  12.271  19.898  0.00  0.00    +0.000 C 
ATOM      6  C   UNL     1      -2.487  11.429  18.734  0.00  0.00    +0.000 A 
ATOM      7  C   UNL     1      -3.244  10.269  18.713  0.00  0.00    +0.000 A 
ATOM      8  C   UNL     1      -3.415   9.587  17.504  0.00  0.00    +0.000 A 
ATOM      9  C   UNL     1      -2.840  10.071  16.318  0.00  0.00    +0.000 A 
ATOM     10  C   UNL     1      -2.086  11.240  16.325  0.00  0.00    +0.000 A 
ATOM     11  C   UNL     1      -1.917  11.881  17.541  0.00  0.00    +0.000 A 
ATOM     12  N   UNL     1      -1.083  11.547  20.836  0.00  0.00    +0.000 NA
ATOM     13  C   UNL     1      -0.528  10.263  20.430  0.00  0.00    +0.000 C 
ATOM     14  C   UNL     1      -1.677  11.469  22.160  0.00  0.00    +0.000 C 
ATOM     15  C   UNL     1      -2.748  12.554  22.252  0.00  0.00    +0.000 C 
ATOM     16  C   UNL     1      -2.994  13.076  20.775  0.00  0.00    +0.000 C 
ATOM     17  C   UNL     1      -2.943  14.631  20.665  0.00  0.00    +0.000 C 
ATOM     18  C   UNL     1      -4.268  15.010  21.247  0.00  0.00    +0.000 A 
ATOM     19  C   UNL     1      -4.567  15.854  22.300  0.00  0.00    +0.000 A 
ATOM     20  C   UNL     1      -5.861  15.814  22.831  0.00  0.00    +0.000 A 
ATOM     21  C   UNL     1      -6.874  15.070  22.202  0.00  0.00    +0.000 A 
ATOM     22  C   UNL     1      -6.568  14.227  21.136  0.00  0.00    +0.000 A 
ATOM     23  C   UNL     1      -5.233  14.132  20.787  0.00  0.00    +0.000 A 
ATOM     24  C   UNL     1      -4.504  12.903  20.426  0.00  0.00    +0.000 C 
ATOM     25  O   UNL     1      -5.105  11.883  20.138  0.00  0.00    +0.000 OA
ENDROOT
BRANCH  15  26
ATOM     26  C   UNL     1      -2.384  13.557  23.351  0.00  0.00    +0.000 A 
ATOM     27  C   UNL     1      -1.227  14.355  23.281  0.00  0.00    +0.000 A 
ATOM     28  C   UNL     1      -1.028  15.403  24.184  0.00  0.00    +0.000 A 
ATOM     29  C   UNL     1      -1.948  15.615  25.201  0.00  0.00    +0.000 A 
ATOM     30  F   UNL     1      -1.796  16.661  26.023  0.00  0.00    +0.000 F 
ATOM     31  C   UNL     1      -3.042  14.774  25.358  0.00  0.00    +0.000 A 
ATOM     32  C   UNL     1      -3.256  13.742  24.440  0.00  0.00    +0.000 A 
ENDBRANCH  15  26
TORSDOF 1
ENDMDL
MODEL 7
REMARK VINA RESULT:      -6.8      3.473      6.034
REMARK  Name = 
REMARK  2 active torsions:
REMARK  status: ('A' for Active; 'I' for Inactive)
REMARK    1  A    between atoms: N_12  and  C_13
REMARK    2  A    between atoms: C_15  and  C_16
REMARK                            x       y       z     vdW  Elec       q    Type
REMARK                         _______ _______ _______ _____ _____    ______ ____
ROOT
ATOM      1  H   UNL     1      -4.675  12.384  23.993  0.00  0.00    +0.000 HD
ATOM      2  N   UNL     1      -4.440  12.652  23.047  0.00  0.00    +0.000 N 
ATOM      3  C   UNL     1      -3.211  13.187  22.717  0.00  0.00    +0.000 C 
ATOM      4  O   UNL     1      -2.287  13.336  23.511  0.00  0.00    +0.000 OA
ATOM      5  C   UNL     1      -3.228  13.555  21.170  0.00  0.00    +0.000 C 
ATOM      6  C   UNL     1      -4.661  13.168  20.831  0.00  0.00    +0.000 A 
ATOM      7  C   UNL     1      -5.405  13.366  19.679  0.00  0.00    +0.000 A 
ATOM      8  C   UNL     1      -6.772  13.073  19.692  0.00  0.00    +0.000 A 
ATOM      9  C   UNL     1      -7.389  12.571  20.849  0.00  0.00    +0.000 A 
ATOM     10  C   UNL     1      -6.650  12.359  22.008  0.00  0.00    +0.000 A 
ATOM     11  C   UNL     1      -5.303  12.680  21.971  0.00  0.00    +0.000 A 
ATOM     12  N   UNL     1      -2.962  15.021  21.130  0.00  0.00    +0.000 NA
ATOM     13  C   UNL     1      -4.090  15.940  21.082  0.00  0.00    +0.000 C 
ATOM     14  C   UNL     1      -1.982  15.334  20.105  0.00  0.00    +0.000 C 
ATOM     15  C   UNL     1      -1.220  14.050  19.782  0.00  0.00    +0.000 C 
ATOM     16  C   UNL     1      -2.035  12.861  20.442  0.00  0.00    +0.000 C 
ATOM     17  C   UNL     1      -1.139  11.913  21.299  0.00  0.00    +0.000 C 
ATOM     18  C   UNL     1      -0.442  11.127  20.233  0.00  0.00    +0.000 A 
ATOM     19  C   UNL     1       0.909  10.948  20.002  0.00  0.00    +0.000 A 
ATOM     20  C   UNL     1       1.301  10.406  18.773  0.00  0.00    +0.000 A 
ATOM     21  C   UNL     1       0.349   9.897  17.874  0.00  0.00    +0.000 A 
ATOM     22  C   UNL     1      -1.012  10.073  18.118  0.00  0.00    +0.000 A 
ATOM     23  C   UNL     1      -1.348  10.810  19.238  0.00  0.00    +0.000 A 
ATOM     24  C   UNL     1      -2.408  11.830  19.333  0.00  0.00    +0.000 C 
ATOM     25  O   UNL     1      -3.272  11.914  18.479  0.00  0.00    +0.000 OA
ENDROOT
BRANCH  15  26
ATOM     26  C   UNL     1       0.264  14.222  20.122  0.00  0.00    +0.000 A 
ATOM     27  C   UNL     1       0.711  14.415  21.442  0.00  0.00    +0.000 A 
ATOM     28  C   UNL     1       2.073  14.359  21.750  0.00  0.00    +0.000 A 
ATOM     29  C   UNL     1       2.998  14.178  20.731  0.00  0.00    +0.000 A 
ATOM     30  F   UNL     1       4.297  14.054  21.032  0.00  0.00    +0.000 F 
ATOM     31  C   UNL     1       2.590  14.094  19.406  0.00  0.00    +0.000 A 
ATOM     32  C   UNL     1       1.226  14.123  19.100  0.00  0.00    +0.000 A 
ENDBRANCH  15  26
TORSDOF 1
ENDMDL
MODEL 8
REMARK VINA RESULT:      -6.7      3.398      6.358
REMARK  Name = 
REMARK  2 active torsions:
REMARK  status: ('A' for Active; 'I' for Inactive)
REMARK    1  A    between atoms: N_12  and  C_13
REMARK    2  A    between atoms: C_15  and  C_16
REMARK                            x       y       z     vdW  Elec       q    Type
REMARK                         _______ _______ _______ _____ _____    ______ ____
ROOT
ATOM      1  H   UNL     1      -4.220  17.049  22.068  0.00  0.00    +0.000 HD
ATOM      2  N   UNL     1      -3.517  16.369  22.325  0.00  0.00    +0.000 N 
ATOM      3  C   UNL     1      -3.297  15.223  21.589  0.00  0.00    +0.000 C 
ATOM      4  O   UNL     1      -3.881  14.950  20.544  0.00  0.00    +0.000 OA
ATOM      5  C   UNL     1      -2.182  14.362  22.328  0.00  0.00    +0.000 C 
ATOM      6  C   UNL     1      -1.949  15.241  23.549  0.00  0.00    +0.000 A 
ATOM      7  C   UNL     1      -1.209  15.019  24.698  0.00  0.00    +0.000 A 
ATOM      8  C   UNL     1      -1.308  15.923  25.759  0.00  0.00    +0.000 A 
ATOM      9  C   UNL     1      -2.137  17.053  25.666  0.00  0.00    +0.000 A 
ATOM     10  C   UNL     1      -2.877  17.292  24.513  0.00  0.00    +0.000 A 
ATOM     11  C   UNL     1      -2.775  16.367  23.488  0.00  0.00    +0.000 A 
ATOM     12  N   UNL     1      -2.848  13.063  22.625  0.00  0.00    +0.000 NA
ATOM     13  C   UNL     1      -3.471  12.872  23.927  0.00  0.00    +0.000 C 
ATOM     14  C   UNL     1      -1.972  11.953  22.292  0.00  0.00    +0.000 C 
ATOM     15  C   UNL     1      -0.914  12.471  21.320  0.00  0.00    +0.000 C 
ATOM     16  C   UNL     1      -1.008  14.053  21.348  0.00  0.00    +0.000 C 
ATOM     17  C   UNL     1      -1.092  14.682  19.923  0.00  0.00    +0.000 C 
ATOM     18  C   UNL     1       0.328  14.562  19.466  0.00  0.00    +0.000 A 
ATOM     19  C   UNL     1       0.849  13.956  18.338  0.00  0.00    +0.000 A 
ATOM     20  C   UNL     1       2.229  13.731  18.289  0.00  0.00    +0.000 A 
ATOM     21  C   UNL     1       3.080  14.262  19.273  0.00  0.00    +0.000 A 
ATOM     22  C   UNL     1       2.548  14.880  20.403  0.00  0.00    +0.000 A 
ATOM     23  C   UNL     1       1.171  14.883  20.514  0.00  0.00    +0.000 A 
ATOM     24  C   UNL     1       0.387  14.633  21.737  0.00  0.00    +0.000 C 
ATOM     25  O   UNL     1       0.914  14.670  22.835  0.00  0.00    +0.000 OA
ENDROOT
BRANCH  15  26
ATOM     26  C   UNL     1      -1.029  11.737  19.980  0.00  0.00    +0.000 A 
ATOM     27  C   UNL     1      -0.012  10.888  19.504  0.00  0.00    +0.000 A 
ATOM     28  C   UNL     1      -0.228  10.072  18.391  0.00  0.00    +0.000 A 
ATOM     29  C   UNL     1      -1.434  10.149  17.707  0.00  0.00    +0.000 A 
ATOM     30  F   UNL     1      -1.669   9.318  16.684  0.00  0.00    +0.000 F 
ATOM     31  C   UNL     1      -2.412  11.056  18.092  0.00  0.00    +0.000 A 
ATOM     32  C   UNL     1      -2.208  11.854  19.222  0.00  0.00    +0.000 A 
ENDBRANCH  15  26
TORSDOF 1
ENDMDL
MODEL 9
REMARK VINA RESULT:      -6.5      3.858      6.859
REMARK  Name = 
REMARK  2 active torsions:
REMARK  status: ('A' for Active; 'I' for Inactive)
REMARK    1  A    between atoms: N_12  and  C_13
REMARK    2  A    between atoms: C_15  and  C_16
REMARK                            x       y       z     vdW  Elec       q    Type
REMARK                         _______ _______ _______ _____ _____    ______ ____
ROOT
ATOM      1  H   UNL     1      -3.967  11.437  24.951  0.00  0.00    +0.000 HD
ATOM      2  N   UNL     1      -4.031  12.055  24.153  0.00  0.00    +0.000 N 
ATOM      3  C   UNL     1      -2.917  12.466  23.449  0.00  0.00    +0.000 C 
ATOM      4  O   UNL     1      -1.773  12.089  23.684  0.00  0.00    +0.000 OA
ATOM      5  C   UNL     1      -3.389  13.482  22.320  0.00  0.00    +0.000 C 
ATOM      6  C   UNL     1      -4.879  13.533  22.629  0.00  0.00    +0.000 A 
ATOM      7  C   UNL     1      -5.881  14.345  22.125  0.00  0.00    +0.000 A 
ATOM      8  C   UNL     1      -7.148  14.311  22.716  0.00  0.00    +0.000 A 
ATOM      9  C   UNL     1      -7.414  13.458  23.800  0.00  0.00    +0.000 A 
ATOM     10  C   UNL     1      -6.417  12.631  24.308  0.00  0.00    +0.000 A 
ATOM     11  C   UNL     1      -5.167  12.703  23.715  0.00  0.00    +0.000 A 
ATOM     12  N   UNL     1      -2.656  14.744  22.621  0.00  0.00    +0.000 NA
ATOM     13  C   UNL     1      -3.310  15.764  23.428  0.00  0.00    +0.000 C 
ATOM     14  C   UNL     1      -2.097  15.311  21.406  0.00  0.00    +0.000 C 
ATOM     15  C   UNL     1      -2.027  14.198  20.363  0.00  0.00    +0.000 C 
ATOM     16  C   UNL     1      -2.894  12.996  20.923  0.00  0.00    +0.000 C 
ATOM     17  C   UNL     1      -2.140  11.630  20.875  0.00  0.00    +0.000 C 
ATOM     18  C   UNL     1      -2.230  11.297  19.420  0.00  0.00    +0.000 A 
ATOM     19  C   UNL     1      -1.229  11.015  18.510  0.00  0.00    +0.000 A 
ATOM     20  C   UNL     1      -1.553  11.020  17.149  0.00  0.00    +0.000 A 
ATOM     21  C   UNL     1      -2.890  11.133  16.728  0.00  0.00    +0.000 A 
ATOM     22  C   UNL     1      -3.896  11.407  17.652  0.00  0.00    +0.000 A 
ATOM     23  C   UNL     1      -3.495  11.613  18.959  0.00  0.00    +0.000 A 
ATOM     24  C   UNL     1      -4.001  12.646  19.881  0.00  0.00    +0.000 C 
ATOM     25  O   UNL     1      -5.034  13.245  19.641  0.00  0.00    +0.000 OA
ENDROOT
BRANCH  15  26
ATOM     26  C   UNL     1      -0.569  13.949  19.961  0.00  0.00    +0.000 A 
ATOM     27  C   UNL     1       0.370  13.404  20.856  0.00  0.00    +0.000 A 
ATOM     28  C   UNL     1       1.628  12.993  20.407  0.00  0.00    +0.000 A 
ATOM     29  C   UNL     1       1.979  13.188  19.078  0.00  0.00    +0.000 A 
ATOM     30  F   UNL     1       3.155  12.732  18.631  0.00  0.00    +0.000 F 
ATOM     31  C   UNL     1       1.111  13.823  18.200  0.00  0.00    +0.000 A 
ATOM     32  C   UNL     1      -0.158  14.210  18.641  0.00  0.00    +0.000 A 
ENDBRANCH  15  26
TORSDOF 1
ENDMDL
