MODEL 1
REMARK VINA RESULT:      -8.2      0.000      0.000
REMARK  Name = 
REMARK  12 active torsions:
REMARK  status: ('A' for Active; 'I' for Inactive)
REMARK    1  A    between atoms: C_5  and  C_6
REMARK    2  A    between atoms: C_6  and  C_7
REMARK    3  A    between atoms: C_7  and  C_8
REMARK    4  A    between atoms: C_8  and  C_9
REMARK    5  A    between atoms: C_9  and  C_10
REMARK    6  A    between atoms: C_10  and  C_11
REMARK    7  A    between atoms: N_13  and  C_14
REMARK    8  A    between atoms: C_14  and  C_15
REMARK    9  A    between atoms: C_15  and  C_16
REMARK   10  A    between atoms: C_16  and  C_17
REMARK   11  A    between atoms: C_17  and  O_18
REMARK   12  A    between atoms: O_18  and  C_19
REMARK                            x       y       z     vdW  Elec       q    Type
REMARK                         _______ _______ _______ _____ _____    ______ ____
ROOT
ATOM      1  C   UNL     1       6.655   6.132  17.846  0.00  0.00    +0.000 A 
ATOM      2  C   UNL     1       5.326   5.795  17.720  0.00  0.00    +0.000 A 
ATOM      3  N   UNL     1       5.229   4.623  18.401  0.00  0.00    +0.000 N 
ATOM      4  N   UNL     1       6.400   4.263  18.945  0.00  0.00    +0.000 NA
ATOM      5  N   UNL     1       7.287   5.190  18.612  0.00  0.00    +0.000 NA
ENDROOT
BRANCH   1   6
ATOM      6  C   UNL     1       7.402   7.252  17.226  0.00  0.00    +0.000 C 
BRANCH   6   7
ATOM      7  C   UNL     1       8.205   8.060  18.251  0.00  0.00    +0.000 C 
BRANCH   7   8
ATOM      8  C   UNL     1       8.128   9.571  18.006  0.00  0.00    +0.000 C 
BRANCH   8   9
ATOM      9  C   UNL     1       9.444  10.253  18.378  0.00  0.00    +0.000 C 
BRANCH   9  10
ATOM     10  C   UNL     1       9.220  11.732  18.705  0.00  0.00    +0.000 C 
BRANCH  10  15
ATOM     11  O   UNL     1       8.264  16.529  17.827  0.00  0.00    +0.000 OA
ATOM     12  C   UNL     1       9.192  15.744  17.868  0.00  0.00    +0.000 C 
ATOM     13  N   UNL     1       9.132  14.408  17.555  0.00  0.00    +0.000 N 
ATOM     14  C   UNL     1      10.424  13.756  17.643  0.00  0.00    +0.000 C 
ATOM     15  C   UNL     1      10.494  12.583  18.641  0.00  0.00    +0.000 C 
ATOM     16  S   UNL     1      10.960  13.356  20.220  0.00  0.00    +0.000 S 
ATOM     17  C   UNL     1      12.046  14.552  19.416  0.00  0.00    +0.000 C 
ATOM     18  C   UNL     1      11.369  14.899  18.094  0.00  0.00    +0.000 C 
ATOM     19  N   UNL     1      10.490  16.046  18.205  0.00  0.00    +0.000 N 
ATOM     20  H   UNL     1       8.270  14.005  17.213  0.00  0.00    +0.000 HD
ATOM     21  H   UNL     1      10.754  16.996  18.429  0.00  0.00    +0.000 HD
ENDBRANCH  10  15
ENDBRANCH   9  10
ENDBRANCH   8   9
ENDBRANCH   7   8
ENDBRANCH   6   7
ENDBRANCH   1   6
BRANCH   3  22
ATOM     22  C   UNL     1       4.062   3.785  18.543  0.00  0.00    +0.000 C 
BRANCH  22  23
ATOM     23  C   UNL     1       2.771   4.534  18.210  0.00  0.00    +0.000 C 
BRANCH  23  24
ATOM     24  C   UNL     1       1.900   4.785  19.442  0.00  0.00    +0.000 C 
BRANCH  24  25
ATOM     25  C   UNL     1       2.319   6.052  20.182  0.00  0.00    +0.000 C 
BRANCH  25  26
ATOM     26  O   UNL     1       2.412   7.138  19.264  0.00  0.00    +0.000 OA
BRANCH  26  27
ATOM     27  C   UNL     1       1.714   8.254  19.647  0.00  0.00    +0.000 A 
ATOM     28  C   UNL     1       1.487   9.367  18.835  0.00  0.00    +0.000 A 
ATOM     29  C   UNL     1       0.737  10.444  19.309  0.00  0.00    +0.000 A 
ATOM     30  C   UNL     1       0.194  10.422  20.598  0.00  0.00    +0.000 A 
ATOM     31  C   UNL     1      -0.572  11.495  21.074  0.00  0.00    +0.000 A 
ATOM     32  C   UNL     1      -1.113  11.462  22.358  0.00  0.00    +0.000 A 
ATOM     33  C   UNL     1      -0.889  10.361  23.178  0.00  0.00    +0.000 A 
ATOM     34  C   UNL     1      -0.129   9.284  22.718  0.00  0.00    +0.000 A 
ATOM     35  C   UNL     1       0.418   9.297  21.426  0.00  0.00    +0.000 A 
ATOM     36  C   UNL     1       1.174   8.220  20.935  0.00  0.00    +0.000 A 
ENDBRANCH  26  27
ENDBRANCH  25  26
ENDBRANCH  24  25
ENDBRANCH  23  24
ENDBRANCH  22  23
ENDBRANCH   3  22
TORSDOF 12
ENDMDL
MODEL 2
REMARK VINA RESULT:      -8.0      1.210      1.417
REMARK  Name = 
REMARK  12 active torsions:
REMARK  status: ('A' for Active; 'I' for Inactive)
REMARK    1  A    between atoms: C_5  and  C_6
REMARK    2  A    between atoms: C_6  and  C_7
REMARK    3  A    between atoms: C_7  and  C_8
REMARK    4  A    between atoms: C_8  and  C_9
REMARK    5  A    between atoms: C_9  and  C_10
REMARK    6  A    between atoms: C_10  and  C_11
REMARK    7  A    between atoms: N_13  and  C_14
REMARK    8  A    between atoms: C_14  and  C_15
REMARK    9  A    between atoms: C_15  and  C_16
REMARK   10  A    between atoms: C_16  and  C_17
REMARK   11  A    between atoms: C_17  and  O_18
REMARK   12  A    between atoms: O_18  and  C_19
REMARK                            x       y       z     vdW  Elec       q    Type
REMARK                         _______ _______ _______ _____ _____    ______ ____
ROOT
ATOM      1  C   UNL     1       6.264   5.612  18.192  0.00  0.00    +0.000 A 
ATOM      2  C   UNL     1       5.319   4.719  18.647  0.00  0.00    +0.000 A 
ATOM      3  N   UNL     1       4.361   4.751  17.684  0.00  0.00    +0.000 N 
ATOM      4  N   UNL     1       4.690   5.575  16.679  0.00  0.00    +0.000 NA
ATOM      5  N   UNL     1       5.865   6.109  16.980  0.00  0.00    +0.000 NA
ENDROOT
BRANCH   1   6
ATOM      6  C   UNL     1       7.496   6.095  18.859  0.00  0.00    +0.000 C 
BRANCH   6   7
ATOM      7  C   UNL     1       8.253   7.126  18.016  0.00  0.00    +0.000 C 
BRANCH   7   8
ATOM      8  C   UNL     1       8.422   8.470  18.732  0.00  0.00    +0.000 C 
BRANCH   8   9
ATOM      9  C   UNL     1       8.163   9.636  17.778  0.00  0.00    +0.000 C 
BRANCH   9  10
ATOM     10  C   UNL     1       8.604  10.962  18.403  0.00  0.00    +0.000 C 
BRANCH  10  15
ATOM     11  O   UNL     1      10.107  15.598  17.433  0.00  0.00    +0.000 OA
ATOM     12  C   UNL     1      10.550  14.477  17.593  0.00  0.00    +0.000 C 
ATOM     13  N   UNL     1       9.913  13.305  17.267  0.00  0.00    +0.000 N 
ATOM     14  C   UNL     1      10.730  12.135  17.523  0.00  0.00    +0.000 C 
ATOM     15  C   UNL     1      10.125  11.122  18.515  0.00  0.00    +0.000 C 
ATOM     16  S   UNL     1      10.703  11.681  20.147  0.00  0.00    +0.000 S 
ATOM     17  C   UNL     1      12.310  12.190  19.502  0.00  0.00    +0.000 C 
ATOM     18  C   UNL     1      12.037  12.735  18.103  0.00  0.00    +0.000 C 
ATOM     19  N   UNL     1      11.788  14.163  18.102  0.00  0.00    +0.000 N 
ATOM     20  H   UNL     1       9.010  13.327  16.811  0.00  0.00    +0.000 HD
ATOM     21  H   UNL     1      12.434  14.894  18.365  0.00  0.00    +0.000 HD
ENDBRANCH  10  15
ENDBRANCH   9  10
ENDBRANCH   8   9
ENDBRANCH   7   8
ENDBRANCH   6   7
ENDBRANCH   1   6
BRANCH   3  22
ATOM     22  C   UNL     1       3.100   4.048  17.676  0.00  0.00    +0.000 C 
BRANCH  22  23
ATOM     23  C   UNL     1       1.982   4.862  18.329  0.00  0.00    +0.000 C 
BRANCH  23  24
ATOM     24  C   UNL     1       1.790   4.520  19.808  0.00  0.00    +0.000 C 
BRANCH  24  25
ATOM     25  C   UNL     1       1.901   5.758  20.692  0.00  0.00    +0.000 C 
BRANCH  25  26
ATOM     26  O   UNL     1       2.389   6.857  19.926  0.00  0.00    +0.000 OA
BRANCH  26  27
ATOM     27  C   UNL     1       1.659   8.008  20.073  0.00  0.00    +0.000 A 
ATOM     28  C   UNL     1       1.411   8.928  19.052  0.00  0.00    +0.000 A 
ATOM     29  C   UNL     1       0.630  10.058  19.296  0.00  0.00    +0.000 A 
ATOM     30  C   UNL     1       0.076  10.282  20.561  0.00  0.00    +0.000 A 
ATOM     31  C   UNL     1      -0.721  11.408  20.807  0.00  0.00    +0.000 A 
ATOM     32  C   UNL     1      -1.273  11.621  22.069  0.00  0.00    +0.000 A 
ATOM     33  C   UNL     1      -1.029  10.715  23.096  0.00  0.00    +0.000 A 
ATOM     34  C   UNL     1      -0.237   9.587  22.866  0.00  0.00    +0.000 A 
ATOM     35  C   UNL     1       0.321   9.354  21.599  0.00  0.00    +0.000 A 
ATOM     36  C   UNL     1       1.109   8.221  21.339  0.00  0.00    +0.000 A 
ENDBRANCH  26  27
ENDBRANCH  25  26
ENDBRANCH  24  25
ENDBRANCH  23  24
ENDBRANCH  22  23
ENDBRANCH   3  22
TORSDOF 12
ENDMDL
MODEL 3
REMARK VINA RESULT:      -7.9      4.891      7.667
REMARK  Name = 
REMARK  12 active torsions:
REMARK  status: ('A' for Active; 'I' for Inactive)
REMARK    1  A    between atoms: C_5  and  C_6
REMARK    2  A    between atoms: C_6  and  C_7
REMARK    3  A    between atoms: C_7  and  C_8
REMARK    4  A    between atoms: C_8  and  C_9
REMARK    5  A    between atoms: C_9  and  C_10
REMARK    6  A    between atoms: C_10  and  C_11
REMARK    7  A    between atoms: N_13  and  C_14
REMARK    8  A    between atoms: C_14  and  C_15
REMARK    9  A    between atoms: C_15  and  C_16
REMARK   10  A    between atoms: C_16  and  C_17
REMARK   11  A    between atoms: C_17  and  O_18
REMARK   12  A    between atoms: O_18  and  C_19
REMARK                            x       y       z     vdW  Elec       q    Type
REMARK                         _______ _______ _______ _____ _____    ______ ____
ROOT
ATOM      1  C   UNL     1       2.060   8.252  18.725  0.00  0.00    +0.000 A 
ATOM      2  C   UNL     1       1.896   7.690  19.972  0.00  0.00    +0.000 A 
ATOM      3  N   UNL     1       2.194   6.379  19.772  0.00  0.00    +0.000 N 
ATOM      4  N   UNL     1       2.553   6.136  18.503  0.00  0.00    +0.000 NA
ATOM      5  N   UNL     1       2.478   7.286  17.848  0.00  0.00    +0.000 NA
ENDROOT
BRANCH   1   6
ATOM      6  C   UNL     1       1.776   9.634  18.273  0.00  0.00    +0.000 C 
BRANCH   6   7
ATOM      7  C   UNL     1       0.274   9.935  18.217  0.00  0.00    +0.000 C 
BRANCH   7   8
ATOM      8  C   UNL     1      -0.161  10.979  19.250  0.00  0.00    +0.000 C 
BRANCH   8   9
ATOM      9  C   UNL     1      -0.300  12.359  18.608  0.00  0.00    +0.000 C 
BRANCH   9  10
ATOM     10  C   UNL     1       1.006  13.150  18.723  0.00  0.00    +0.000 C 
BRANCH  10  15
ATOM     11  O   UNL     1       2.702  17.460  16.922  0.00  0.00    +0.000 OA
ATOM     12  C   UNL     1       2.388  16.935  17.973  0.00  0.00    +0.000 C 
ATOM     13  N   UNL     1       2.516  15.602  18.277  0.00  0.00    +0.000 N 
ATOM     14  C   UNL     1       2.110  15.299  19.636  0.00  0.00    +0.000 C 
ATOM     15  C   UNL     1       0.961  14.279  19.760  0.00  0.00    +0.000 C 
ATOM     16  S   UNL     1      -0.551  15.287  19.708  0.00  0.00    +0.000 S 
ATOM     17  C   UNL     1       0.207  16.633  20.641  0.00  0.00    +0.000 C 
ATOM     18  C   UNL     1       1.664  16.676  20.189  0.00  0.00    +0.000 C 
ATOM     19  N   UNL     1       1.872  17.577  19.073  0.00  0.00    +0.000 N 
ATOM     20  H   UNL     1       2.946  14.969  17.616  0.00  0.00    +0.000 HD
ATOM     21  H   UNL     1       1.740  18.579  19.067  0.00  0.00    +0.000 HD
ENDBRANCH  10  15
ENDBRANCH   9  10
ENDBRANCH   8   9
ENDBRANCH   7   8
ENDBRANCH   6   7
ENDBRANCH   1   6
BRANCH   3  22
ATOM     22  C   UNL     1       2.127   5.308  20.737  0.00  0.00    +0.000 C 
BRANCH  22  23
ATOM     23  C   UNL     1       0.967   4.351  20.455  0.00  0.00    +0.000 C 
BRANCH  23  24
ATOM     24  C   UNL     1       1.405   2.886  20.428  0.00  0.00    +0.000 C 
BRANCH  24  25
ATOM     25  C   UNL     1       2.909   2.742  20.643  0.00  0.00    +0.000 C 
BRANCH  25  26
ATOM     26  O   UNL     1       3.500   2.113  19.508  0.00  0.00    +0.000 OA
BRANCH  26  27
ATOM     27  C   UNL     1       4.176   2.973  18.682  0.00  0.00    +0.000 A 
ATOM     28  C   UNL     1       3.939   3.110  17.312  0.00  0.00    +0.000 A 
ATOM     29  C   UNL     1       4.662   4.037  16.562  0.00  0.00    +0.000 A 
ATOM     30  C   UNL     1       5.627   4.849  17.169  0.00  0.00    +0.000 A 
ATOM     31  C   UNL     1       6.346   5.792  16.422  0.00  0.00    +0.000 A 
ATOM     32  C   UNL     1       7.301   6.600  17.036  0.00  0.00    +0.000 A 
ATOM     33  C   UNL     1       7.550   6.469  18.398  0.00  0.00    +0.000 A 
ATOM     34  C   UNL     1       6.841   5.534  19.156  0.00  0.00    +0.000 A 
ATOM     35  C   UNL     1       5.871   4.718  18.555  0.00  0.00    +0.000 A 
ATOM     36  C   UNL     1       5.135   3.780  19.299  0.00  0.00    +0.000 A 
ENDBRANCH  26  27
ENDBRANCH  25  26
ENDBRANCH  24  25
ENDBRANCH  23  24
ENDBRANCH  22  23
ENDBRANCH   3  22
TORSDOF 12
ENDMDL
MODEL 4
REMARK VINA RESULT:      -7.8      6.266     10.088
REMARK  Name = 
REMARK  12 active torsions:
REMARK  status: ('A' for Active; 'I' for Inactive)
REMARK    1  A    between atoms: C_5  and  C_6
REMARK    2  A    between atoms: C_6  and  C_7
REMARK    3  A    between atoms: C_7  and  C_8
REMARK    4  A    between atoms: C_8  and  C_9
REMARK    5  A    between atoms: C_9  and  C_10
REMARK    6  A    between atoms: C_10  and  C_11
REMARK    7  A    between atoms: N_13  and  C_14
REMARK    8  A    between atoms: C_14  and  C_15
REMARK    9  A    between atoms: C_15  and  C_16
REMARK   10  A    between atoms: C_16  and  C_17
REMARK   11  A    between atoms: C_17  and  O_18
REMARK   12  A    between atoms: O_18  and  C_19
REMARK                            x       y       z     vdW  Elec       q    Type
REMARK                         _______ _______ _______ _____ _____    ______ ____
ROOT
ATOM      1  C   UNL     1       1.404   9.773  18.677  0.00  0.00    +0.000 A 
ATOM      2  C   UNL     1       1.480   8.763  19.610  0.00  0.00    +0.000 A 
ATOM      3  N   UNL     1       2.222   7.809  18.986  0.00  0.00    +0.000 N 
ATOM      4  N   UNL     1       2.614   8.201  17.766  0.00  0.00    +0.000 NA
ATOM      5  N   UNL     1       2.118   9.414  17.566  0.00  0.00    +0.000 NA
ENDROOT
BRANCH   1   6
ATOM      6  C   UNL     1       0.634  11.039  18.726  0.00  0.00    +0.000 C 
BRANCH   6   7
ATOM      7  C   UNL     1      -0.862  10.805  18.962  0.00  0.00    +0.000 C 
BRANCH   7   8
ATOM      8  C   UNL     1      -1.302  11.168  20.385  0.00  0.00    +0.000 C 
BRANCH   8   9
ATOM      9  C   UNL     1      -0.414  12.267  20.969  0.00  0.00    +0.000 C 
BRANCH   9  10
ATOM     10  C   UNL     1      -0.807  12.576  22.416  0.00  0.00    +0.000 C 
BRANCH  10  15
ATOM     11  O   UNL     1      -4.997  11.829  24.982  0.00  0.00    +0.000 OA
ATOM     12  C   UNL     1      -4.450  12.668  24.291  0.00  0.00    +0.000 C 
ATOM     13  N   UNL     1      -3.596  12.418  23.246  0.00  0.00    +0.000 N 
ATOM     14  C   UNL     1      -3.159  13.630  22.581  0.00  0.00    +0.000 C 
ATOM     15  C   UNL     1      -1.634  13.857  22.577  0.00  0.00    +0.000 C 
ATOM     16  S   UNL     1      -1.305  14.775  24.112  0.00  0.00    +0.000 S 
ATOM     17  C   UNL     1      -2.841  15.714  23.984  0.00  0.00    +0.000 C 
ATOM     18  C   UNL     1      -3.863  14.751  23.388  0.00  0.00    +0.000 C 
ATOM     19  N   UNL     1      -4.603  14.029  24.403  0.00  0.00    +0.000 N 
ATOM     20  H   UNL     1      -3.409  11.467  22.958  0.00  0.00    +0.000 HD
ATOM     21  H   UNL     1      -5.231  14.420  25.093  0.00  0.00    +0.000 HD
ENDBRANCH  10  15
ENDBRANCH   9  10
ENDBRANCH   8   9
ENDBRANCH   7   8
ENDBRANCH   6   7
ENDBRANCH   1   6
BRANCH   3  22
ATOM     22  C   UNL     1       2.564   6.499  19.485  0.00  0.00    +0.000 C 
BRANCH  22  23
ATOM     23  C   UNL     1       1.620   6.042  20.598  0.00  0.00    +0.000 C 
BRANCH  23  24
ATOM     24  C   UNL     1       1.312   4.545  20.532  0.00  0.00    +0.000 C 
BRANCH  24  25
ATOM     25  C   UNL     1       2.344   3.722  21.297  0.00  0.00    +0.000 C 
BRANCH  25  26
ATOM     26  O   UNL     1       2.813   2.654  20.476  0.00  0.00    +0.000 OA
BRANCH  26  27
ATOM     27  C   UNL     1       3.350   3.062  19.282  0.00  0.00    +0.000 A 
ATOM     28  C   UNL     1       2.688   3.008  18.054  0.00  0.00    +0.000 A 
ATOM     29  C   UNL     1       3.311   3.475  16.897  0.00  0.00    +0.000 A 
ATOM     30  C   UNL     1       4.602   4.014  16.949  0.00  0.00    +0.000 A 
ATOM     31  C   UNL     1       5.226   4.499  15.792  0.00  0.00    +0.000 A 
ATOM     32  C   UNL     1       6.509   5.039  15.856  0.00  0.00    +0.000 A 
ATOM     33  C   UNL     1       7.181   5.093  17.072  0.00  0.00    +0.000 A 
ATOM     34  C   UNL     1       6.571   4.615  18.234  0.00  0.00    +0.000 A 
ATOM     35  C   UNL     1       5.277   4.075  18.190  0.00  0.00    +0.000 A 
ATOM     36  C   UNL     1       4.637   3.600  19.347  0.00  0.00    +0.000 A 
ENDBRANCH  26  27
ENDBRANCH  25  26
ENDBRANCH  24  25
ENDBRANCH  23  24
ENDBRANCH  22  23
ENDBRANCH   3  22
TORSDOF 12
ENDMDL
MODEL 5
REMARK VINA RESULT:      -7.8      5.314      8.120
REMARK  Name = 
REMARK  12 active torsions:
REMARK  status: ('A' for Active; 'I' for Inactive)
REMARK    1  A    between atoms: C_5  and  C_6
REMARK    2  A    between atoms: C_6  and  C_7
REMARK    3  A    between atoms: C_7  and  C_8
REMARK    4  A    between atoms: C_8  and  C_9
REMARK    5  A    between atoms: C_9  and  C_10
REMARK    6  A    between atoms: C_10  and  C_11
REMARK    7  A    between atoms: N_13  and  C_14
REMARK    8  A    between atoms: C_14  and  C_15
REMARK    9  A    between atoms: C_15  and  C_16
REMARK   10  A    between atoms: C_16  and  C_17
REMARK   11  A    between atoms: C_17  and  O_18
REMARK   12  A    between atoms: O_18  and  C_19
REMARK                            x       y       z     vdW  Elec       q    Type
REMARK                         _______ _______ _______ _____ _____    ______ ____
ROOT
ATOM      1  C   UNL     1       4.056   6.510  18.790  0.00  0.00    +0.000 A 
ATOM      2  C   UNL     1       5.369   6.093  18.804  0.00  0.00    +0.000 A 
ATOM      3  N   UNL     1       5.837   6.477  17.587  0.00  0.00    +0.000 N 
ATOM      4  N   UNL     1       4.902   7.119  16.872  0.00  0.00    +0.000 NA
ATOM      5  N   UNL     1       3.799   7.148  17.606  0.00  0.00    +0.000 NA
ENDROOT
BRANCH   1   6
ATOM      6  C   UNL     1       2.989   6.281  19.792  0.00  0.00    +0.000 C 
BRANCH   6   7
ATOM      7  C   UNL     1       1.981   7.434  19.848  0.00  0.00    +0.000 C 
BRANCH   7   8
ATOM      8  C   UNL     1       1.377   7.627  21.243  0.00  0.00    +0.000 C 
BRANCH   8   9
ATOM      9  C   UNL     1       0.369   8.776  21.249  0.00  0.00    +0.000 C 
BRANCH   9  10
ATOM     10  C   UNL     1       0.535   9.656  20.008  0.00  0.00    +0.000 C 
BRANCH  10  15
ATOM     11  O   UNL     1       1.259  14.321  18.456  0.00  0.00    +0.000 OA
ATOM     12  C   UNL     1       0.362  13.550  18.741  0.00  0.00    +0.000 C 
ATOM     13  N   UNL     1       0.428  12.550  19.679  0.00  0.00    +0.000 N 
ATOM     14  C   UNL     1      -0.829  11.842  19.829  0.00  0.00    +0.000 C 
ATOM     15  C   UNL     1      -0.762  10.329  19.543  0.00  0.00    +0.000 C 
ATOM     16  S   UNL     1      -1.084  10.187  17.759  0.00  0.00    +0.000 S 
ATOM     17  C   UNL     1      -2.282  11.538  17.778  0.00  0.00    +0.000 C 
ATOM     18  C   UNL     1      -1.754  12.540  18.800  0.00  0.00    +0.000 C 
ATOM     19  N   UNL     1      -0.902  13.547  18.201  0.00  0.00    +0.000 N 
ATOM     20  H   UNL     1       1.262  12.433  20.240  0.00  0.00    +0.000 HD
ATOM     21  H   UNL     1      -1.168  14.241  17.515  0.00  0.00    +0.000 HD
ENDBRANCH  10  15
ENDBRANCH   9  10
ENDBRANCH   8   9
ENDBRANCH   7   8
ENDBRANCH   6   7
ENDBRANCH   1   6
BRANCH   3  22
ATOM     22  C   UNL     1       7.150   6.237  17.037  0.00  0.00    +0.000 C 
BRANCH  22  23
ATOM     23  C   UNL     1       7.332   4.784  16.596  0.00  0.00    +0.000 C 
BRANCH  23  24
ATOM     24  C   UNL     1       6.653   4.484  15.258  0.00  0.00    +0.000 C 
BRANCH  24  25
ATOM     25  C   UNL     1       5.201   4.058  15.445  0.00  0.00    +0.000 C 
BRANCH  25  26
ATOM     26  O   UNL     1       5.121   3.044  16.445  0.00  0.00    +0.000 OA
BRANCH  26  27
ATOM     27  C   UNL     1       4.030   3.157  17.268  0.00  0.00    +0.000 A 
ATOM     28  C   UNL     1       2.760   3.562  16.852  0.00  0.00    +0.000 A 
ATOM     29  C   UNL     1       1.705   3.616  17.763  0.00  0.00    +0.000 A 
ATOM     30  C   UNL     1       1.899   3.258  19.101  0.00  0.00    +0.000 A 
ATOM     31  C   UNL     1       0.838   3.297  20.017  0.00  0.00    +0.000 A 
ATOM     32  C   UNL     1       1.040   2.933  21.347  0.00  0.00    +0.000 A 
ATOM     33  C   UNL     1       2.302   2.534  21.775  0.00  0.00    +0.000 A 
ATOM     34  C   UNL     1       3.368   2.488  20.874  0.00  0.00    +0.000 A 
ATOM     35  C   UNL     1       3.181   2.845  19.529  0.00  0.00    +0.000 A 
ATOM     36  C   UNL     1       4.235   2.794  18.601  0.00  0.00    +0.000 A 
ENDBRANCH  26  27
ENDBRANCH  25  26
ENDBRANCH  24  25
ENDBRANCH  23  24
ENDBRANCH  22  23
ENDBRANCH   3  22
TORSDOF 12
ENDMDL
MODEL 6
REMARK VINA RESULT:      -7.7      5.987     10.583
REMARK  Name = 
REMARK  12 active torsions:
REMARK  status: ('A' for Active; 'I' for Inactive)
REMARK    1  A    between atoms: C_5  and  C_6
REMARK    2  A    between atoms: C_6  and  C_7
REMARK    3  A    between atoms: C_7  and  C_8
REMARK    4  A    between atoms: C_8  and  C_9
REMARK    5  A    between atoms: C_9  and  C_10
REMARK    6  A    between atoms: C_10  and  C_11
REMARK    7  A    between atoms: N_13  and  C_14
REMARK    8  A    between atoms: C_14  and  C_15
REMARK    9  A    between atoms: C_15  and  C_16
REMARK   10  A    between atoms: C_16  and  C_17
REMARK   11  A    between atoms: C_17  and  O_18
REMARK   12  A    between atoms: O_18  and  C_19
REMARK                            x       y       z     vdW  Elec       q    Type
REMARK                         _______ _______ _______ _____ _____    ______ ____
ROOT
ATOM      1  C   UNL     1       1.017   9.549  19.906  0.00  0.00    +0.000 A 
ATOM      2  C   UNL     1       1.366   8.401  20.583  0.00  0.00    +0.000 A 
ATOM      3  N   UNL     1       2.001   7.656  19.639  0.00  0.00    +0.000 N 
ATOM      4  N   UNL     1       2.079   8.298  18.465  0.00  0.00    +0.000 NA
ATOM      5  N   UNL     1       1.478   9.470  18.619  0.00  0.00    +0.000 NA
ENDROOT
BRANCH   1   6
ATOM      6  C   UNL     1       0.205  10.699  20.367  0.00  0.00    +0.000 C 
BRANCH   6   7
ATOM      7  C   UNL     1      -0.000  11.749  19.270  0.00  0.00    +0.000 C 
BRANCH   7   8
ATOM      8  C   UNL     1      -1.478  12.066  19.022  0.00  0.00    +0.000 C 
BRANCH   8   9
ATOM      9  C   UNL     1      -2.253  12.133  20.337  0.00  0.00    +0.000 C 
BRANCH   9  10
ATOM     10  C   UNL     1      -2.561  13.583  20.719  0.00  0.00    +0.000 C 
BRANCH  10  15
ATOM     11  O   UNL     1      -6.994  11.373  21.107  0.00  0.00    +0.000 OA
ATOM     12  C   UNL     1      -6.268  12.142  21.707  0.00  0.00    +0.000 C 
ATOM     13  N   UNL     1      -5.392  13.032  21.136  0.00  0.00    +0.000 N 
ATOM     14  C   UNL     1      -4.714  13.855  22.119  0.00  0.00    +0.000 C 
ATOM     15  C   UNL     1      -3.177  13.743  22.114  0.00  0.00    +0.000 C 
ATOM     16  S   UNL     1      -2.816  12.373  23.254  0.00  0.00    +0.000 S 
ATOM     17  C   UNL     1      -4.164  12.826  24.366  0.00  0.00    +0.000 C 
ATOM     18  C   UNL     1      -5.283  13.341  23.466  0.00  0.00    +0.000 C 
ATOM     19  N   UNL     1      -6.204  12.295  23.071  0.00  0.00    +0.000 N 
ATOM     20  H   UNL     1      -5.342  13.122  20.130  0.00  0.00    +0.000 HD
ATOM     21  H   UNL     1      -6.809  11.755  23.676  0.00  0.00    +0.000 HD
ENDBRANCH  10  15
ENDBRANCH   9  10
ENDBRANCH   8   9
ENDBRANCH   7   8
ENDBRANCH   6   7
ENDBRANCH   1   6
BRANCH   3  22
ATOM     22  C   UNL     1       2.526   6.319  19.784  0.00  0.00    +0.000 C 
BRANCH  22  23
ATOM     23  C   UNL     1       1.602   5.424  20.610  0.00  0.00    +0.000 C 
BRANCH  23  24
ATOM     24  C   UNL     1       1.433   4.030  20.001  0.00  0.00    +0.000 C 
BRANCH  24  25
ATOM     25  C   UNL     1       2.468   3.049  20.542  0.00  0.00    +0.000 C 
BRANCH  25  26
ATOM     26  O   UNL     1       3.129   2.400  19.458  0.00  0.00    +0.000 OA
BRANCH  26  27
ATOM     27  C   UNL     1       3.880   3.241  18.678  0.00  0.00    +0.000 A 
ATOM     28  C   UNL     1       3.618   3.525  17.336  0.00  0.00    +0.000 A 
ATOM     29  C   UNL     1       4.428   4.419  16.635  0.00  0.00    +0.000 A 
ATOM     30  C   UNL     1       5.505   5.052  17.265  0.00  0.00    +0.000 A 
ATOM     31  C   UNL     1       6.312   5.962  16.570  0.00  0.00    +0.000 A 
ATOM     32  C   UNL     1       7.380   6.591  17.207  0.00  0.00    +0.000 A 
ATOM     33  C   UNL     1       7.654   6.311  18.542  0.00  0.00    +0.000 A 
ATOM     34  C   UNL     1       6.858   5.407  19.249  0.00  0.00    +0.000 A 
ATOM     35  C   UNL     1       5.775   4.770  18.624  0.00  0.00    +0.000 A 
ATOM     36  C   UNL     1       4.952   3.868  19.318  0.00  0.00    +0.000 A 
ENDBRANCH  26  27
ENDBRANCH  25  26
ENDBRANCH  24  25
ENDBRANCH  23  24
ENDBRANCH  22  23
ENDBRANCH   3  22
TORSDOF 12
ENDMDL
MODEL 7
REMARK VINA RESULT:      -7.7      3.950      9.778
REMARK  Name = 
REMARK  12 active torsions:
REMARK  status: ('A' for Active; 'I' for Inactive)
REMARK    1  A    between atoms: C_5  and  C_6
REMARK    2  A    between atoms: C_6  and  C_7
REMARK    3  A    between atoms: C_7  and  C_8
REMARK    4  A    between atoms: C_8  and  C_9
REMARK    5  A    between atoms: C_9  and  C_10
REMARK    6  A    between atoms: C_10  and  C_11
REMARK    7  A    between atoms: N_13  and  C_14
REMARK    8  A    between atoms: C_14  and  C_15
REMARK    9  A    between atoms: C_15  and  C_16
REMARK   10  A    between atoms: C_16  and  C_17
REMARK   11  A    between atoms: C_17  and  O_18
REMARK   12  A    between atoms: O_18  and  C_19
REMARK                            x       y       z     vdW  Elec       q    Type
REMARK                         _______ _______ _______ _____ _____    ______ ____
ROOT
ATOM      1  C   UNL     1       1.009  11.095  20.065  0.00  0.00    +0.000 A 
ATOM      2  C   UNL     1       1.269  12.034  19.091  0.00  0.00    +0.000 A 
ATOM      3  N   UNL     1       1.736  13.100  19.794  0.00  0.00    +0.000 N 
ATOM      4  N   UNL     1       1.799  12.843  21.108  0.00  0.00    +0.000 NA
ATOM      5  N   UNL     1       1.356  11.606  21.287  0.00  0.00    +0.000 NA
ENDROOT
BRANCH   1   6
ATOM      6  C   UNL     1       0.377   9.761  19.936  0.00  0.00    +0.000 C 
BRANCH   6   7
ATOM      7  C   UNL     1       1.407   8.639  19.766  0.00  0.00    +0.000 C 
BRANCH   7   8
ATOM      8  C   UNL     1       2.021   8.605  18.363  0.00  0.00    +0.000 C 
BRANCH   8   9
ATOM      9  C   UNL     1       2.686   7.257  18.089  0.00  0.00    +0.000 C 
BRANCH   9  10
ATOM     10  C   UNL     1       4.099   7.447  17.530  0.00  0.00    +0.000 C 
BRANCH  10  15
ATOM     11  O   UNL     1       8.115   5.396  19.617  0.00  0.00    +0.000 OA
ATOM     12  C   UNL     1       7.466   5.365  18.588  0.00  0.00    +0.000 C 
ATOM     13  N   UNL     1       6.777   6.418  18.039  0.00  0.00    +0.000 N 
ATOM     14  C   UNL     1       6.155   6.079  16.774  0.00  0.00    +0.000 C 
ATOM     15  C   UNL     1       4.623   6.243  16.738  0.00  0.00    +0.000 C 
ATOM     16  S   UNL     1       3.978   4.638  17.299  0.00  0.00    +0.000 S 
ATOM     17  C   UNL     1       5.288   3.720  16.464  0.00  0.00    +0.000 C 
ATOM     18  C   UNL     1       6.537   4.589  16.580  0.00  0.00    +0.000 C 
ATOM     19  N   UNL     1       7.321   4.280  17.758  0.00  0.00    +0.000 N 
ATOM     20  H   UNL     1       6.819   7.332  18.470  0.00  0.00    +0.000 HD
ATOM     21  H   UNL     1       7.791   3.409  17.965  0.00  0.00    +0.000 HD
ENDBRANCH  10  15
ENDBRANCH   9  10
ENDBRANCH   8   9
ENDBRANCH   7   8
ENDBRANCH   6   7
ENDBRANCH   1   6
BRANCH   3  22
ATOM     22  C   UNL     1       2.108  14.396  19.278  0.00  0.00    +0.000 C 
BRANCH  22  23
ATOM     23  C   UNL     1       3.044  14.288  18.074  0.00  0.00    +0.000 C 
BRANCH  23  24
ATOM     24  C   UNL     1       4.164  15.331  18.103  0.00  0.00    +0.000 C 
BRANCH  24  25
ATOM     25  C   UNL     1       5.129  15.091  19.259  0.00  0.00    +0.000 C 
BRANCH  25  26
ATOM     26  O   UNL     1       6.433  15.544  18.901  0.00  0.00    +0.000 OA
BRANCH  26  27
ATOM     27  C   UNL     1       7.329  14.534  18.662  0.00  0.00    +0.000 A 
ATOM     28  C   UNL     1       7.333  13.730  17.520  0.00  0.00    +0.000 A 
ATOM     29  C   UNL     1       8.308  12.745  17.356  0.00  0.00    +0.000 A 
ATOM     30  C   UNL     1       9.298  12.554  18.326  0.00  0.00    +0.000 A 
ATOM     31  C   UNL     1      10.288  11.576  18.159  0.00  0.00    +0.000 A 
ATOM     32  C   UNL     1      11.274  11.396  19.127  0.00  0.00    +0.000 A 
ATOM     33  C   UNL     1      11.276  12.187  20.272  0.00  0.00    +0.000 A 
ATOM     34  C   UNL     1      10.298  13.167  20.451  0.00  0.00    +0.000 A 
ATOM     35  C   UNL     1       9.301  13.366  19.483  0.00  0.00    +0.000 A 
ATOM     36  C   UNL     1       8.314  14.354  19.635  0.00  0.00    +0.000 A 
ENDBRANCH  26  27
ENDBRANCH  25  26
ENDBRANCH  24  25
ENDBRANCH  23  24
ENDBRANCH  22  23
ENDBRANCH   3  22
TORSDOF 12
ENDMDL
MODEL 8
REMARK VINA RESULT:      -7.7      5.434      8.564
REMARK  Name = 
REMARK  12 active torsions:
REMARK  status: ('A' for Active; 'I' for Inactive)
REMARK    1  A    between atoms: C_5  and  C_6
REMARK    2  A    between atoms: C_6  and  C_7
REMARK    3  A    between atoms: C_7  and  C_8
REMARK    4  A    between atoms: C_8  and  C_9
REMARK    5  A    between atoms: C_9  and  C_10
REMARK    6  A    between atoms: C_10  and  C_11
REMARK    7  A    between atoms: N_13  and  C_14
REMARK    8  A    between atoms: C_14  and  C_15
REMARK    9  A    between atoms: C_15  and  C_16
REMARK   10  A    between atoms: C_16  and  C_17
REMARK   11  A    between atoms: C_17  and  O_18
REMARK   12  A    between atoms: O_18  and  C_19
REMARK                            x       y       z     vdW  Elec       q    Type
REMARK                         _______ _______ _______ _____ _____    ______ ____
ROOT
ATOM      1  C   UNL     1       2.446   6.438  18.812  0.00  0.00    +0.000 A 
ATOM      2  C   UNL     1       1.792   5.235  18.664  0.00  0.00    +0.000 A 
ATOM      3  N   UNL     1       1.468   4.890  19.938  0.00  0.00    +0.000 N 
ATOM      4  N   UNL     1       1.857   5.820  20.822  0.00  0.00    +0.000 NA
ATOM      5  N   UNL     1       2.459   6.782  20.137  0.00  0.00    +0.000 NA
ENDROOT
BRANCH   1   6
ATOM      6  C   UNL     1       3.137   7.262  17.792  0.00  0.00    +0.000 C 
BRANCH   6   7
ATOM      7  C   UNL     1       2.780   8.748  17.901  0.00  0.00    +0.000 C 
BRANCH   7   8
ATOM      8  C   UNL     1       1.291   9.020  17.656  0.00  0.00    +0.000 C 
BRANCH   8   9
ATOM      9  C   UNL     1       0.709   9.907  18.756  0.00  0.00    +0.000 C 
BRANCH   9  10
ATOM     10  C   UNL     1      -0.529  10.657  18.256  0.00  0.00    +0.000 C 
BRANCH  10  15
ATOM     11  O   UNL     1      -0.123  15.596  18.617  0.00  0.00    +0.000 OA
ATOM     12  C   UNL     1      -0.575  14.640  19.218  0.00  0.00    +0.000 C 
ATOM     13  N   UNL     1      -0.058  13.368  19.214  0.00  0.00    +0.000 N 
ATOM     14  C   UNL     1      -0.790  12.465  20.081  0.00  0.00    +0.000 C 
ATOM     15  C   UNL     1      -1.400  11.237  19.377  0.00  0.00    +0.000 C 
ATOM     16  S   UNL     1      -3.046  11.792  18.837  0.00  0.00    +0.000 S 
ATOM     17  C   UNL     1      -3.289  12.798  20.316  0.00  0.00    +0.000 C 
ATOM     18  C   UNL     1      -1.914  13.363  20.659  0.00  0.00    +0.000 C 
ATOM     19  N   UNL     1      -1.674  14.652  20.044  0.00  0.00    +0.000 N 
ATOM     20  H   UNL     1       0.800  13.170  18.716  0.00  0.00    +0.000 HD
ATOM     21  H   UNL     1      -2.176  15.512  20.216  0.00  0.00    +0.000 HD
ENDBRANCH  10  15
ENDBRANCH   9  10
ENDBRANCH   8   9
ENDBRANCH   7   8
ENDBRANCH   6   7
ENDBRANCH   1   6
BRANCH   3  22
ATOM     22  C   UNL     1       0.819   3.679  20.381  0.00  0.00    +0.000 C 
BRANCH  22  23
ATOM     23  C   UNL     1       1.719   2.452  20.223  0.00  0.00    +0.000 C 
BRANCH  23  24
ATOM     24  C   UNL     1       1.664   1.858  18.814  0.00  0.00    +0.000 C 
BRANCH  24  25
ATOM     25  C   UNL     1       3.060   1.597  18.256  0.00  0.00    +0.000 C 
BRANCH  25  26
ATOM     26  O   UNL     1       4.028   2.300  19.031  0.00  0.00    +0.000 OA
BRANCH  26  27
ATOM     27  C   UNL     1       4.680   3.292  18.345  0.00  0.00    +0.000 A 
ATOM     28  C   UNL     1       4.451   3.612  17.004  0.00  0.00    +0.000 A 
ATOM     29  C   UNL     1       5.147   4.661  16.403  0.00  0.00    +0.000 A 
ATOM     30  C   UNL     1       6.074   5.413  17.132  0.00  0.00    +0.000 A 
ATOM     31  C   UNL     1       6.765   6.477  16.536  0.00  0.00    +0.000 A 
ATOM     32  C   UNL     1       7.683   7.223  17.271  0.00  0.00    +0.000 A 
ATOM     33  C   UNL     1       7.924   6.910  18.605  0.00  0.00    +0.000 A 
ATOM     34  C   UNL     1       7.242   5.853  19.214  0.00  0.00    +0.000 A 
ATOM     35  C   UNL     1       6.309   5.096  18.490  0.00  0.00    +0.000 A 
ATOM     36  C   UNL     1       5.602   4.037  19.083  0.00  0.00    +0.000 A 
ENDBRANCH  26  27
ENDBRANCH  25  26
ENDBRANCH  24  25
ENDBRANCH  23  24
ENDBRANCH  22  23
ENDBRANCH   3  22
TORSDOF 12
ENDMDL
MODEL 9
REMARK VINA RESULT:      -7.7      6.149     10.284
REMARK  Name = 
REMARK  12 active torsions:
REMARK  status: ('A' for Active; 'I' for Inactive)
REMARK    1  A    between atoms: C_5  and  C_6
REMARK    2  A    between atoms: C_6  and  C_7
REMARK    3  A    between atoms: C_7  and  C_8
REMARK    4  A    between atoms: C_8  and  C_9
REMARK    5  A    between atoms: C_9  and  C_10
REMARK    6  A    between atoms: C_10  and  C_11
REMARK    7  A    between atoms: N_13  and  C_14
REMARK    8  A    between atoms: C_14  and  C_15
REMARK    9  A    between atoms: C_15  and  C_16
REMARK   10  A    between atoms: C_16  and  C_17
REMARK   11  A    between atoms: C_17  and  O_18
REMARK   12  A    between atoms: O_18  and  C_19
REMARK                            x       y       z     vdW  Elec       q    Type
REMARK                         _______ _______ _______ _____ _____    ______ ____
ROOT
ATOM      1  C   UNL     1       2.019   7.868  19.255  0.00  0.00    +0.000 A 
ATOM      2  C   UNL     1       2.415   6.549  19.271  0.00  0.00    +0.000 A 
ATOM      3  N   UNL     1       2.010   6.111  20.492  0.00  0.00    +0.000 N 
ATOM      4  N   UNL     1       1.375   7.069  21.182  0.00  0.00    +0.000 NA
ATOM      5  N   UNL     1       1.371   8.158  20.426  0.00  0.00    +0.000 NA
ENDROOT
BRANCH   1   6
ATOM      6  C   UNL     1       2.275   8.913  18.235  0.00  0.00    +0.000 C 
BRANCH   6   7
ATOM      7  C   UNL     1       1.378  10.141  18.416  0.00  0.00    +0.000 C 
BRANCH   7   8
ATOM      8  C   UNL     1      -0.001   9.969  17.771  0.00  0.00    +0.000 C 
BRANCH   8   9
ATOM      9  C   UNL     1      -1.110  10.419  18.721  0.00  0.00    +0.000 C 
BRANCH   9  10
ATOM     10  C   UNL     1      -2.438  10.578  17.976  0.00  0.00    +0.000 C 
BRANCH  10  15
ATOM     11  O   UNL     1      -7.086   9.486  19.355  0.00  0.00    +0.000 OA
ATOM     12  C   UNL     1      -6.382  10.440  19.083  0.00  0.00    +0.000 C 
ATOM     13  N   UNL     1      -5.342  10.443  18.187  0.00  0.00    +0.000 N 
ATOM     14  C   UNL     1      -4.737  11.752  18.038  0.00  0.00    +0.000 C 
ATOM     15  C   UNL     1      -3.237  11.821  18.385  0.00  0.00    +0.000 C 
ATOM     16  S   UNL     1      -3.198  12.186  20.166  0.00  0.00    +0.000 S 
ATOM     17  C   UNL     1      -4.643  13.263  20.068  0.00  0.00    +0.000 C 
ATOM     18  C   UNL     1      -5.554  12.633  19.018  0.00  0.00    +0.000 C 
ATOM     19  N   UNL     1      -6.509  11.709  19.595  0.00  0.00    +0.000 N 
ATOM     20  H   UNL     1      -5.132   9.612  17.649  0.00  0.00    +0.000 HD
ATOM     21  H   UNL     1      -7.251  11.927  20.246  0.00  0.00    +0.000 HD
ENDBRANCH  10  15
ENDBRANCH   9  10
ENDBRANCH   8   9
ENDBRANCH   7   8
ENDBRANCH   6   7
ENDBRANCH   1   6
BRANCH   3  22
ATOM     22  C   UNL     1       2.224   4.805  21.070  0.00  0.00    +0.000 C 
BRANCH  22  23
ATOM     23  C   UNL     1       1.184   3.789  20.597  0.00  0.00    +0.000 C 
BRANCH  23  24
ATOM     24  C   UNL     1       1.187   3.606  19.078  0.00  0.00    +0.000 C 
BRANCH  24  25
ATOM     25  C   UNL     1       1.896   2.320  18.665  0.00  0.00    +0.000 C 
BRANCH  25  26
ATOM     26  O   UNL     1       3.257   2.362  19.088  0.00  0.00    +0.000 OA
BRANCH  26  27
ATOM     27  C   UNL     1       4.029   3.258  18.394  0.00  0.00    +0.000 A 
ATOM     28  C   UNL     1       3.842   3.596  17.052  0.00  0.00    +0.000 A 
ATOM     29  C   UNL     1       4.665   4.543  16.443  0.00  0.00    +0.000 A 
ATOM     30  C   UNL     1       5.683   5.175  17.167  0.00  0.00    +0.000 A 
ATOM     31  C   UNL     1       6.503   6.138  16.564  0.00  0.00    +0.000 A 
ATOM     32  C   UNL     1       7.510   6.765  17.294  0.00  0.00    +0.000 A 
ATOM     33  C   UNL     1       7.710   6.432  18.630  0.00  0.00    +0.000 A 
ATOM     34  C   UNL     1       6.900   5.476  19.245  0.00  0.00    +0.000 A 
ATOM     35  C   UNL     1       5.877   4.839  18.527  0.00  0.00    +0.000 A 
ATOM     36  C   UNL     1       5.040   3.883  19.127  0.00  0.00    +0.000 A 
ENDBRANCH  26  27
ENDBRANCH  25  26
ENDBRANCH  24  25
ENDBRANCH  23  24
ENDBRANCH  22  23
ENDBRANCH   3  22
TORSDOF 12
ENDMDL
