MODEL 1
REMARK VINA RESULT:      -7.7      0.000      0.000
REMARK  Name = 
REMARK  4 active torsions:
REMARK  status: ('A' for Active; 'I' for Inactive)
REMARK    1  A    between atoms: C_1  and  C_2
REMARK    2  A    between atoms: C_5  and  C_6
REMARK    3  A    between atoms: N_8  and  C_9
REMARK    4  A    between atoms: C_9  and  C_10
REMARK                            x       y       z     vdW  Elec       q    Type
REMARK                         _______ _______ _______ _____ _____    ______ ____
ROOT
ATOM      1  C   UNL     1       2.495   6.374  19.066  0.00  0.00    +0.000 C 
ATOM      2  O   UNL     1       1.942   5.711  18.196  0.00  0.00    +0.000 OA
ATOM      3  N   UNL     1       3.609   5.945  19.755  0.00  0.00    +0.000 N 
ATOM      4  H   UNL     1       3.935   6.456  20.562  0.00  0.00    +0.000 HD
ENDROOT
BRANCH   1   9
ATOM      5  C   UNL     1       0.214  11.488  20.630  0.00  0.00    +0.000 C 
ATOM      6  C   UNL     1       0.820  10.168  20.237  0.00  0.00    +0.000 A 
ATOM      7  C   UNL     1       1.227   9.959  18.911  0.00  0.00    +0.000 A 
ATOM      8  C   UNL     1       1.780   8.737  18.513  0.00  0.00    +0.000 A 
ATOM      9  C   UNL     1       1.939   7.704  19.442  0.00  0.00    +0.000 A 
ATOM     10  C   UNL     1       1.527   7.900  20.766  0.00  0.00    +0.000 A 
ATOM     11  C   UNL     1       0.977   9.122  21.161  0.00  0.00    +0.000 A 
ATOM     12 CL   UNL     1       0.500   9.298  22.812  0.00  0.00    +0.000 Cl
ENDBRANCH   1   9
BRANCH   3  13
ATOM     13  C   UNL     1       4.189   4.639  19.526  0.00  0.00    +0.000 C 
BRANCH  13  14
ATOM     14  C   UNL     1       5.169   4.660  18.378  0.00  0.00    +0.000 A 
ATOM     15  C   UNL     1       6.512   5.052  18.597  0.00  0.00    +0.000 A 
ATOM     16  C   UNL     1       7.428   5.122  17.542  0.00  0.00    +0.000 A 
ATOM     17  C   UNL     1       6.975   4.805  16.280  0.00  0.00    +0.000 A 
ATOM     18  C   UNL     1       5.673   4.429  16.052  0.00  0.00    +0.000 A 
ATOM     19  C   UNL     1       4.749   4.344  17.075  0.00  0.00    +0.000 A 
ATOM     20  O   UNL     1       5.429   4.175  14.739  0.00  0.00    +0.000 OA
ATOM     21  C   UNL     1       6.719   4.470  14.161  0.00  0.00    +0.000 C 
ATOM     22  O   UNL     1       7.716   4.832  15.139  0.00  0.00    +0.000 OA
ENDBRANCH  13  14
ENDBRANCH   3  13
TORSDOF 3
ENDMDL
MODEL 2
REMARK VINA RESULT:      -7.5      1.199      1.589
REMARK  Name = 
REMARK  4 active torsions:
REMARK  status: ('A' for Active; 'I' for Inactive)
REMARK    1  A    between atoms: C_1  and  C_2
REMARK    2  A    between atoms: C_5  and  C_6
REMARK    3  A    between atoms: N_8  and  C_9
REMARK    4  A    between atoms: C_9  and  C_10
REMARK                            x       y       z     vdW  Elec       q    Type
REMARK                         _______ _______ _______ _____ _____    ______ ____
ROOT
ATOM      1  C   UNL     1       2.669   6.070  19.154  0.00  0.00    +0.000 C 
ATOM      2  O   UNL     1       2.183   5.473  18.200  0.00  0.00    +0.000 OA
ATOM      3  N   UNL     1       3.830   5.677  19.785  0.00  0.00    +0.000 N 
ATOM      4  H   UNL     1       4.107   6.108  20.654  0.00  0.00    +0.000 HD
ENDROOT
BRANCH   1   9
ATOM      5  C   UNL     1       0.088  10.848  21.230  0.00  0.00    +0.000 C 
ATOM      6  C   UNL     1       0.742   9.611  20.678  0.00  0.00    +0.000 A 
ATOM      7  C   UNL     1       0.780   8.442  21.453  0.00  0.00    +0.000 A 
ATOM      8  C   UNL     1       1.394   7.280  20.973  0.00  0.00    +0.000 A 
ATOM      9  C   UNL     1       1.977   7.269  19.702  0.00  0.00    +0.000 A 
ATOM     10  C   UNL     1       1.953   8.434  18.925  0.00  0.00    +0.000 A 
ATOM     11  C   UNL     1       1.337   9.592  19.406  0.00  0.00    +0.000 A 
ATOM     12 CL   UNL     1       1.334  10.989  18.390  0.00  0.00    +0.000 Cl
ENDBRANCH   1   9
BRANCH   3  13
ATOM     13  C   UNL     1       4.547   4.483  19.385  0.00  0.00    +0.000 C 
BRANCH  13  14
ATOM     14  C   UNL     1       5.421   4.738  18.181  0.00  0.00    +0.000 A 
ATOM     15  C   UNL     1       6.463   5.694  18.249  0.00  0.00    +0.000 A 
ATOM     16  C   UNL     1       7.259   5.979  17.134  0.00  0.00    +0.000 A 
ATOM     17  C   UNL     1       6.987   5.303  15.965  0.00  0.00    +0.000 A 
ATOM     18  C   UNL     1       5.976   4.377  15.884  0.00  0.00    +0.000 A 
ATOM     19  C   UNL     1       5.179   4.070  16.969  0.00  0.00    +0.000 A 
ATOM     20  O   UNL     1       5.865   3.837  14.640  0.00  0.00    +0.000 OA
ATOM     21  C   UNL     1       6.901   4.558  13.939  0.00  0.00    +0.000 C 
ATOM     22  O   UNL     1       7.643   5.462  14.784  0.00  0.00    +0.000 OA
ENDBRANCH  13  14
ENDBRANCH   3  13
TORSDOF 3
ENDMDL
MODEL 3
REMARK VINA RESULT:      -7.3      3.786      4.689
REMARK  Name = 
REMARK  4 active torsions:
REMARK  status: ('A' for Active; 'I' for Inactive)
REMARK    1  A    between atoms: C_1  and  C_2
REMARK    2  A    between atoms: C_5  and  C_6
REMARK    3  A    between atoms: N_8  and  C_9
REMARK    4  A    between atoms: C_9  and  C_10
REMARK                            x       y       z     vdW  Elec       q    Type
REMARK                         _______ _______ _______ _____ _____    ______ ____
ROOT
ATOM      1  C   UNL     1       1.277   9.187  18.572  0.00  0.00    +0.000 C 
ATOM      2  O   UNL     1       0.778   9.148  17.453  0.00  0.00    +0.000 OA
ATOM      3  N   UNL     1       2.282   8.340  18.986  0.00  0.00    +0.000 N 
ATOM      4  H   UNL     1       2.553   8.309  19.958  0.00  0.00    +0.000 HD
ENDROOT
BRANCH   1   9
ATOM      5  C   UNL     1      -0.820  12.913  22.511  0.00  0.00    +0.000 C 
ATOM      6  C   UNL     1      -0.262  11.945  21.505  0.00  0.00    +0.000 A 
ATOM      7  C   UNL     1       0.154  12.413  20.249  0.00  0.00    +0.000 A 
ATOM      8  C   UNL     1       0.663  11.535  19.286  0.00  0.00    +0.000 A 
ATOM      9  C   UNL     1       0.770  10.170  19.570  0.00  0.00    +0.000 A 
ATOM     10  C   UNL     1       0.349   9.691  20.817  0.00  0.00    +0.000 A 
ATOM     11  C   UNL     1      -0.158  10.571  21.777  0.00  0.00    +0.000 A 
ATOM     12 CL   UNL     1      -0.649   9.915  23.298  0.00  0.00    +0.000 Cl
ENDBRANCH   1   9
BRANCH   3  13
ATOM     13  C   UNL     1       2.801   7.297  18.126  0.00  0.00    +0.000 C 
BRANCH  13  14
ATOM     14  C   UNL     1       2.456   5.924  18.649  0.00  0.00    +0.000 A 
ATOM     15  C   UNL     1       1.999   4.920  17.761  0.00  0.00    +0.000 A 
ATOM     16  C   UNL     1       1.632   3.652  18.228  0.00  0.00    +0.000 A 
ATOM     17  C   UNL     1       1.723   3.419  19.583  0.00  0.00    +0.000 A 
ATOM     18  C   UNL     1       2.160   4.386  20.455  0.00  0.00    +0.000 A 
ATOM     19  C   UNL     1       2.535   5.642  20.023  0.00  0.00    +0.000 A 
ATOM     20  O   UNL     1       2.161   3.958  21.746  0.00  0.00    +0.000 OA
ATOM     21  C   UNL     1       1.639   2.621  21.589  0.00  0.00    +0.000 C 
ATOM     22  O   UNL     1       1.396   2.259  20.213  0.00  0.00    +0.000 OA
ENDBRANCH  13  14
ENDBRANCH   3  13
TORSDOF 3
ENDMDL
MODEL 4
REMARK VINA RESULT:      -7.3      3.608      5.137
REMARK  Name = 
REMARK  4 active torsions:
REMARK  status: ('A' for Active; 'I' for Inactive)
REMARK    1  A    between atoms: C_1  and  C_2
REMARK    2  A    between atoms: C_5  and  C_6
REMARK    3  A    between atoms: N_8  and  C_9
REMARK    4  A    between atoms: C_9  and  C_10
REMARK                            x       y       z     vdW  Elec       q    Type
REMARK                         _______ _______ _______ _____ _____    ______ ____
ROOT
ATOM      1  C   UNL     1       0.374  10.073  18.717  0.00  0.00    +0.000 C 
ATOM      2  O   UNL     1       0.828  10.408  19.805  0.00  0.00    +0.000 OA
ATOM      3  N   UNL     1       1.084   9.338  17.792  0.00  0.00    +0.000 N 
ATOM      4  H   UNL     1       0.727   9.217  16.856  0.00  0.00    +0.000 HD
ENDROOT
BRANCH   1   9
ATOM      5  C   UNL     1      -4.948  11.722  17.058  0.00  0.00    +0.000 C 
ATOM      6  C   UNL     1      -3.578  11.276  17.489  0.00  0.00    +0.000 A 
ATOM      7  C   UNL     1      -3.047  11.738  18.702  0.00  0.00    +0.000 A 
ATOM      8  C   UNL     1      -1.769  11.353  19.122  0.00  0.00    +0.000 A 
ATOM      9  C   UNL     1      -1.002  10.491  18.332  0.00  0.00    +0.000 A 
ATOM     10  C   UNL     1      -1.519  10.031  17.115  0.00  0.00    +0.000 A 
ATOM     11  C   UNL     1      -2.797  10.416  16.699  0.00  0.00    +0.000 A 
ATOM     12 CL   UNL     1      -3.376   9.803  15.191  0.00  0.00    +0.000 Cl
ENDBRANCH   1   9
BRANCH   3  13
ATOM     13  C   UNL     1       2.457   8.940  18.027  0.00  0.00    +0.000 C 
BRANCH  13  14
ATOM     14  C   UNL     1       2.551   7.497  18.459  0.00  0.00    +0.000 A 
ATOM     15  C   UNL     1       2.141   7.116  19.759  0.00  0.00    +0.000 A 
ATOM     16  C   UNL     1       2.259   5.792  20.198  0.00  0.00    +0.000 A 
ATOM     17  C   UNL     1       2.796   4.874  19.322  0.00  0.00    +0.000 A 
ATOM     18  C   UNL     1       3.202   5.232  18.059  0.00  0.00    +0.000 A 
ATOM     19  C   UNL     1       3.092   6.528  17.597  0.00  0.00    +0.000 A 
ATOM     20  O   UNL     1       3.716   4.183  17.363  0.00  0.00    +0.000 OA
ATOM     21  C   UNL     1       3.619   3.131  18.348  0.00  0.00    +0.000 C 
ATOM     22  O   UNL     1       3.000   3.554  19.580  0.00  0.00    +0.000 OA
ENDBRANCH  13  14
ENDBRANCH   3  13
TORSDOF 3
ENDMDL
MODEL 5
REMARK VINA RESULT:      -7.3      2.614      3.723
REMARK  Name = 
REMARK  4 active torsions:
REMARK  status: ('A' for Active; 'I' for Inactive)
REMARK    1  A    between atoms: C_1  and  C_2
REMARK    2  A    between atoms: C_5  and  C_6
REMARK    3  A    between atoms: N_8  and  C_9
REMARK    4  A    between atoms: C_9  and  C_10
REMARK                            x       y       z     vdW  Elec       q    Type
REMARK                         _______ _______ _______ _____ _____    ______ ____
ROOT
ATOM      1  C   UNL     1       1.760   8.963  18.535  0.00  0.00    +0.000 C 
ATOM      2  O   UNL     1       1.565   9.502  17.451  0.00  0.00    +0.000 OA
ATOM      3  N   UNL     1       2.653   7.930  18.721  0.00  0.00    +0.000 N 
ATOM      4  H   UNL     1       2.667   7.420  19.592  0.00  0.00    +0.000 HD
ENDROOT
BRANCH   1   9
ATOM      5  C   UNL     1      -1.242  10.845  23.144  0.00  0.00    +0.000 C 
ATOM      6  C   UNL     1      -0.483  10.354  21.942  0.00  0.00    +0.000 A 
ATOM      7  C   UNL     1       0.339   9.222  22.056  0.00  0.00    +0.000 A 
ATOM      8  C   UNL     1       1.069   8.751  20.960  0.00  0.00    +0.000 A 
ATOM      9  C   UNL     1       0.982   9.404  19.726  0.00  0.00    +0.000 A 
ATOM     10  C   UNL     1       0.171  10.540  19.605  0.00  0.00    +0.000 A 
ATOM     11  C   UNL     1      -0.558  11.007  20.701  0.00  0.00    +0.000 A 
ATOM     12 CL   UNL     1      -1.546  12.407  20.479  0.00  0.00    +0.000 Cl
ENDBRANCH   1   9
BRANCH   3  13
ATOM     13  C   UNL     1       3.408   7.370  17.619  0.00  0.00    +0.000 C 
BRANCH  13  14
ATOM     14  C   UNL     1       3.479   5.865  17.703  0.00  0.00    +0.000 A 
ATOM     15  C   UNL     1       4.438   5.155  16.941  0.00  0.00    +0.000 A 
ATOM     16  C   UNL     1       4.495   3.757  16.968  0.00  0.00    +0.000 A 
ATOM     17  C   UNL     1       3.578   3.095  17.755  0.00  0.00    +0.000 A 
ATOM     18  C   UNL     1       2.639   3.771  18.494  0.00  0.00    +0.000 A 
ATOM     19  C   UNL     1       2.563   5.150  18.493  0.00  0.00    +0.000 A 
ATOM     20  O   UNL     1       1.822   2.933  19.187  0.00  0.00    +0.000 OA
ATOM     21  C   UNL     1       2.334   1.649  18.769  0.00  0.00    +0.000 C 
ATOM     22  O   UNL     1       3.475   1.746  17.891  0.00  0.00    +0.000 OA
ENDBRANCH  13  14
ENDBRANCH   3  13
TORSDOF 3
ENDMDL
MODEL 6
REMARK VINA RESULT:      -7.3      4.139      8.608
REMARK  Name = 
REMARK  4 active torsions:
REMARK  status: ('A' for Active; 'I' for Inactive)
REMARK    1  A    between atoms: C_1  and  C_2
REMARK    2  A    between atoms: C_5  and  C_6
REMARK    3  A    between atoms: N_8  and  C_9
REMARK    4  A    between atoms: C_9  and  C_10
REMARK                            x       y       z     vdW  Elec       q    Type
REMARK                         _______ _______ _______ _____ _____    ______ ____
ROOT
ATOM      1  C   UNL     1       1.911   9.164  18.295  0.00  0.00    +0.000 C 
ATOM      2  O   UNL     1       2.303   9.923  17.417  0.00  0.00    +0.000 OA
ATOM      3  N   UNL     1       0.930   9.496  19.205  0.00  0.00    +0.000 N 
ATOM      4  H   UNL     1       0.749   8.899  19.998  0.00  0.00    +0.000 HD
ENDROOT
BRANCH   1   9
ATOM      5  C   UNL     1       4.328   3.923  18.994  0.00  0.00    +0.000 C 
ATOM      6  C   UNL     1       3.685   5.270  18.810  0.00  0.00    +0.000 A 
ATOM      7  C   UNL     1       4.070   6.081  17.732  0.00  0.00    +0.000 A 
ATOM      8  C   UNL     1       3.501   7.345  17.544  0.00  0.00    +0.000 A 
ATOM      9  C   UNL     1       2.528   7.815  18.432  0.00  0.00    +0.000 A 
ATOM     10  C   UNL     1       2.144   7.017  19.516  0.00  0.00    +0.000 A 
ATOM     11  C   UNL     1       2.713   5.754  19.701  0.00  0.00    +0.000 A 
ATOM     12 CL   UNL     1       2.184   4.818  21.054  0.00  0.00    +0.000 Cl
ENDBRANCH   1   9
BRANCH   3  13
ATOM     13  C   UNL     1       0.312  10.806  19.213  0.00  0.00    +0.000 C 
BRANCH  13  14
ATOM     14  C   UNL     1      -1.069  10.772  18.606  0.00  0.00    +0.000 A 
ATOM     15  C   UNL     1      -1.329   9.961  17.475  0.00  0.00    +0.000 A 
ATOM     16  C   UNL     1      -2.590   9.946  16.868  0.00  0.00    +0.000 A 
ATOM     17  C   UNL     1      -3.567  10.757  17.404  0.00  0.00    +0.000 A 
ATOM     18  C   UNL     1      -3.326  11.553  18.498  0.00  0.00    +0.000 A 
ATOM     19  C   UNL     1      -2.095  11.583  19.122  0.00  0.00    +0.000 A 
ATOM     20  O   UNL     1      -4.416  12.283  18.857  0.00  0.00    +0.000 OA
ATOM     21  C   UNL     1      -5.359  11.881  17.841  0.00  0.00    +0.000 C 
ATOM     22  O   UNL     1      -4.839  10.883  16.939  0.00  0.00    +0.000 OA
ENDBRANCH  13  14
ENDBRANCH   3  13
TORSDOF 3
ENDMDL
MODEL 7
REMARK VINA RESULT:      -7.2      3.132      7.855
REMARK  Name = 
REMARK  4 active torsions:
REMARK  status: ('A' for Active; 'I' for Inactive)
REMARK    1  A    between atoms: C_1  and  C_2
REMARK    2  A    between atoms: C_5  and  C_6
REMARK    3  A    between atoms: N_8  and  C_9
REMARK    4  A    between atoms: C_9  and  C_10
REMARK                            x       y       z     vdW  Elec       q    Type
REMARK                         _______ _______ _______ _____ _____    ______ ____
ROOT
ATOM      1  C   UNL     1       2.829   5.284  19.125  0.00  0.00    +0.000 C 
ATOM      2  O   UNL     1       1.986   4.405  19.263  0.00  0.00    +0.000 OA
ATOM      3  N   UNL     1       2.827   6.459  19.847  0.00  0.00    +0.000 N 
ATOM      4  H   UNL     1       3.447   7.213  19.592  0.00  0.00    +0.000 HD
ENDROOT
BRANCH   1   9
ATOM      5  C   UNL     1       7.049   4.802  15.155  0.00  0.00    +0.000 C 
ATOM      6  C   UNL     1       5.970   4.922  16.197  0.00  0.00    +0.000 A 
ATOM      7  C   UNL     1       4.877   4.044  16.167  0.00  0.00    +0.000 A 
ATOM      8  C   UNL     1       3.850   4.140  17.113  0.00  0.00    +0.000 A 
ATOM      9  C   UNL     1       3.907   5.118  18.111  0.00  0.00    +0.000 A 
ATOM     10  C   UNL     1       4.991   6.005  18.144  0.00  0.00    +0.000 A 
ATOM     11  C   UNL     1       6.015   5.905  17.199  0.00  0.00    +0.000 A 
ATOM     12 CL   UNL     1       7.326   7.025  17.305  0.00  0.00    +0.000 Cl
ENDBRANCH   1   9
BRANCH   3  13
ATOM     13  C   UNL     1       1.784   6.760  20.806  0.00  0.00    +0.000 C 
BRANCH  13  14
ATOM     14  C   UNL     1       1.308   8.187  20.679  0.00  0.00    +0.000 A 
ATOM     15  C   UNL     1       1.390   8.855  19.433  0.00  0.00    +0.000 A 
ATOM     16  C   UNL     1       0.996  10.191  19.300  0.00  0.00    +0.000 A 
ATOM     17  C   UNL     1       0.533  10.836  20.426  0.00  0.00    +0.000 A 
ATOM     18  C   UNL     1       0.454  10.201  21.642  0.00  0.00    +0.000 A 
ATOM     19  C   UNL     1       0.829   8.882  21.802  0.00  0.00    +0.000 A 
ATOM     20  O   UNL     1      -0.013  11.018  22.624  0.00  0.00    +0.000 OA
ATOM     21  C   UNL     1      -0.184  12.251  21.893  0.00  0.00    +0.000 C 
ATOM     22  O   UNL     1       0.124  12.132  20.488  0.00  0.00    +0.000 OA
ENDBRANCH  13  14
ENDBRANCH   3  13
TORSDOF 3
ENDMDL
MODEL 8
REMARK VINA RESULT:      -7.2      3.324      4.429
REMARK  Name = 
REMARK  4 active torsions:
REMARK  status: ('A' for Active; 'I' for Inactive)
REMARK    1  A    between atoms: C_1  and  C_2
REMARK    2  A    between atoms: C_5  and  C_6
REMARK    3  A    between atoms: N_8  and  C_9
REMARK    4  A    between atoms: C_9  and  C_10
REMARK                            x       y       z     vdW  Elec       q    Type
REMARK                         _______ _______ _______ _____ _____    ______ ____
ROOT
ATOM      1  C   UNL     1       1.795   9.700  18.021  0.00  0.00    +0.000 C 
ATOM      2  O   UNL     1       2.647  10.406  17.492  0.00  0.00    +0.000 OA
ATOM      3  N   UNL     1       1.962   8.352  18.255  0.00  0.00    +0.000 N 
ATOM      4  H   UNL     1       1.181   7.787  18.551  0.00  0.00    +0.000 HD
ENDROOT
BRANCH   1   9
ATOM      5  C   UNL     1      -3.356  12.018  19.398  0.00  0.00    +0.000 C 
ATOM      6  C   UNL     1      -2.030  11.400  19.049  0.00  0.00    +0.000 A 
ATOM      7  C   UNL     1      -0.862  11.872  19.667  0.00  0.00    +0.000 A 
ATOM      8  C   UNL     1       0.388  11.328  19.352  0.00  0.00    +0.000 A 
ATOM      9  C   UNL     1       0.487  10.295  18.415  0.00  0.00    +0.000 A 
ATOM     10  C   UNL     1      -0.672   9.824  17.786  0.00  0.00    +0.000 A 
ATOM     11  C   UNL     1      -1.919  10.368  18.104  0.00  0.00    +0.000 A 
ATOM     12 CL   UNL     1      -3.308   9.732  17.298  0.00  0.00    +0.000 Cl
ENDBRANCH   1   9
BRANCH   3  13
ATOM     13  C   UNL     1       3.163   7.653  17.846  0.00  0.00    +0.000 C 
BRANCH  13  14
ATOM     14  C   UNL     1       3.092   6.184  18.185  0.00  0.00    +0.000 A 
ATOM     15  C   UNL     1       1.882   5.470  18.004  0.00  0.00    +0.000 A 
ATOM     16  C   UNL     1       1.779   4.118  18.352  0.00  0.00    +0.000 A 
ATOM     17  C   UNL     1       2.894   3.508  18.885  0.00  0.00    +0.000 A 
ATOM     18  C   UNL     1       4.072   4.191  19.070  0.00  0.00    +0.000 A 
ATOM     19  C   UNL     1       4.205   5.522  18.730  0.00  0.00    +0.000 A 
ATOM     20  O   UNL     1       5.042   3.412  19.621  0.00  0.00    +0.000 OA
ATOM     21  C   UNL     1       4.326   2.170  19.793  0.00  0.00    +0.000 C 
ATOM     22  O   UNL     1       2.973   2.213  19.292  0.00  0.00    +0.000 OA
ENDBRANCH  13  14
ENDBRANCH   3  13
TORSDOF 3
ENDMDL
MODEL 9
REMARK VINA RESULT:      -7.2      5.023      6.598
REMARK  Name = 
REMARK  4 active torsions:
REMARK  status: ('A' for Active; 'I' for Inactive)
REMARK    1  A    between atoms: C_1  and  C_2
REMARK    2  A    between atoms: C_5  and  C_6
REMARK    3  A    between atoms: N_8  and  C_9
REMARK    4  A    between atoms: C_9  and  C_10
REMARK                            x       y       z     vdW  Elec       q    Type
REMARK                         _______ _______ _______ _____ _____    ______ ____
ROOT
ATOM      1  C   UNL     1       8.169   8.241  18.158  0.00  0.00    +0.000 C 
ATOM      2  O   UNL     1       8.602   7.442  18.980  0.00  0.00    +0.000 OA
ATOM      3  N   UNL     1       7.374   7.879  17.092  0.00  0.00    +0.000 N 
ATOM      4  H   UNL     1       7.169   8.545  16.362  0.00  0.00    +0.000 HD
ENDROOT
BRANCH   1   9
ATOM      5  C   UNL     1       9.562  13.852  18.773  0.00  0.00    +0.000 C 
ATOM      6  C   UNL     1       9.221  12.396  18.610  0.00  0.00    +0.000 A 
ATOM      7  C   UNL     1       8.337  12.001  17.594  0.00  0.00    +0.000 A 
ATOM      8  C   UNL     1       7.989  10.656  17.427  0.00  0.00    +0.000 A 
ATOM      9  C   UNL     1       8.527   9.682  18.273  0.00  0.00    +0.000 A 
ATOM     10  C   UNL     1       9.404  10.068  19.295  0.00  0.00    +0.000 A 
ATOM     11  C   UNL     1       9.751  11.411  19.459  0.00  0.00    +0.000 A 
ATOM     12 CL   UNL     1      10.845  11.815  20.734  0.00  0.00    +0.000 Cl
ENDBRANCH   1   9
BRANCH   3  13
ATOM     13  C   UNL     1       7.023   6.497  16.839  0.00  0.00    +0.000 C 
BRANCH  13  14
ATOM     14  C   UNL     1       5.712   6.129  17.489  0.00  0.00    +0.000 A 
ATOM     15  C   UNL     1       4.575   6.954  17.314  0.00  0.00    +0.000 A 
ATOM     16  C   UNL     1       3.360   6.657  17.941  0.00  0.00    +0.000 A 
ATOM     17  C   UNL     1       3.311   5.538  18.744  0.00  0.00    +0.000 A 
ATOM     18  C   UNL     1       4.409   4.731  18.926  0.00  0.00    +0.000 A 
ATOM     19  C   UNL     1       5.618   4.995  18.315  0.00  0.00    +0.000 A 
ATOM     20  O   UNL     1       4.154   3.691  19.765  0.00  0.00    +0.000 OA
ATOM     21  C   UNL     1       2.779   3.957  20.116  0.00  0.00    +0.000 C 
ATOM     22  O   UNL     1       2.226   5.106  19.441  0.00  0.00    +0.000 OA
ENDBRANCH  13  14
ENDBRANCH   3  13
TORSDOF 3
ENDMDL
