MODEL 1
REMARK VINA RESULT:      -9.3      0.000      0.000
REMARK  Name = 
REMARK  5 active torsions:
REMARK  status: ('A' for Active; 'I' for Inactive)
REMARK    1  A    between atoms: C_1  and  C_2
REMARK    2  A    between atoms: C_5  and  C_7
REMARK    3  A    between atoms: C_12  and  O_13
REMARK    4  A    between atoms: O_13  and  C_14
REMARK    5  A    between atoms: C_17  and  C_18
REMARK                            x       y       z     vdW  Elec       q    Type
REMARK                         _______ _______ _______ _____ _____    ______ ____
ROOT
ATOM      1  C   UNL     1       3.122   6.729  18.848  0.00  0.00    +0.000 A 
ATOM      2  C   UNL     1       3.223   7.497  17.696  0.00  0.00    +0.000 A 
ATOM      3  C   UNL     1       2.481   8.673  17.616  0.00  0.00    +0.000 A 
ATOM      4  C   UNL     1       1.649   9.045  18.680  0.00  0.00    +0.000 A 
ATOM      5  C   UNL     1       0.852  10.202  18.652  0.00  0.00    +0.000 A 
ATOM      6  C   UNL     1       0.015  10.509  19.727  0.00  0.00    +0.000 A 
ATOM      7  C   UNL     1      -0.072   9.626  20.802  0.00  0.00    +0.000 A 
ATOM      8  C   UNL     1       0.761   8.507  20.850  0.00  0.00    +0.000 A 
ATOM      9  C   UNL     1       1.627   8.204  19.814  0.00  0.00    +0.000 A 
ATOM     10  N   UNL     1       2.371   7.100  19.914  0.00  0.00    +0.000 NA
ENDROOT
BRANCH   1  15
ATOM     11  C   UNL     1       0.705   3.596  20.098  0.00  0.00    +0.000 C 
ATOM     12  C   UNL     1       1.138   3.016  18.747  0.00  0.00    +0.000 C 
ATOM     13  C   UNL     1       1.974   4.023  17.918  0.00  0.00    +0.000 C 
ATOM     14  N   UNL     1       3.294   4.230  18.524  0.00  0.00    +0.000 N 
ATOM     15  C   UNL     1       3.874   5.434  18.931  0.00  0.00    +0.000 C 
ATOM     16  O   UNL     1       5.031   5.484  19.358  0.00  0.00    +0.000 OA
ATOM     17  C   UNL     1       4.044   2.983  18.668  0.00  0.00    +0.000 C 
ATOM     18  C   UNL     1       3.223   1.921  19.427  0.00  0.00    +0.000 C 
ATOM     19  N   UNL     1       1.853   1.730  18.912  0.00  0.00    +0.000 NA
ATOM     20  H   UNL     1       1.336   1.131  19.554  0.00  0.00    +0.000 HD
ENDBRANCH   1  15
BRANCH   6  21
ATOM     21  O   UNL     1      -0.723  11.665  19.619  0.00  0.00    +0.000 OA
BRANCH  21  22
ATOM     22  C   UNL     1      -2.034  11.593  19.218  0.00  0.00    +0.000 A 
ATOM     23  C   UNL     1      -2.519  10.771  18.203  0.00  0.00    +0.000 A 
ATOM     24  C   UNL     1      -3.868  10.824  17.857  0.00  0.00    +0.000 A 
ATOM     25  C   UNL     1      -4.726  11.661  18.572  0.00  0.00    +0.000 A 
ATOM     26  N   UNL     1      -4.277  12.421  19.614  0.00  0.00    +0.000 NA
ATOM     27  C   UNL     1      -2.955  12.364  19.911  0.00  0.00    +0.000 A 
BRANCH  25  28
ATOM     28  C   UNL     1      -6.200  11.734  18.186  0.00  0.00    +0.000 C 
ATOM     29  F   UNL     1      -6.804  10.507  18.146  0.00  0.00    +0.000 F 
ATOM     30  F   UNL     1      -6.947  12.476  19.051  0.00  0.00    +0.000 F 
ATOM     31  F   UNL     1      -6.403  12.273  16.948  0.00  0.00    +0.000 F 
ENDBRANCH  25  28
ENDBRANCH  21  22
ENDBRANCH   6  21
TORSDOF 4
ENDMDL
MODEL 2
REMARK VINA RESULT:      -9.1      2.562      3.274
REMARK  Name = 
REMARK  5 active torsions:
REMARK  status: ('A' for Active; 'I' for Inactive)
REMARK    1  A    between atoms: C_1  and  C_2
REMARK    2  A    between atoms: C_5  and  C_7
REMARK    3  A    between atoms: C_12  and  O_13
REMARK    4  A    between atoms: O_13  and  C_14
REMARK    5  A    between atoms: C_17  and  C_18
REMARK                            x       y       z     vdW  Elec       q    Type
REMARK                         _______ _______ _______ _____ _____    ______ ____
ROOT
ATOM      1  C   UNL     1       3.048   6.793  18.866  0.00  0.00    +0.000 A 
ATOM      2  C   UNL     1       3.093   7.597  17.734  0.00  0.00    +0.000 A 
ATOM      3  C   UNL     1       2.326   8.759  17.716  0.00  0.00    +0.000 A 
ATOM      4  C   UNL     1       1.526   9.082  18.820  0.00  0.00    +0.000 A 
ATOM      5  C   UNL     1       0.706  10.224  18.854  0.00  0.00    +0.000 A 
ATOM      6  C   UNL     1      -0.098  10.482  19.966  0.00  0.00    +0.000 A 
ATOM      7  C   UNL     1      -0.129   9.566  21.017  0.00  0.00    +0.000 A 
ATOM      8  C   UNL     1       0.726   8.464  21.002  0.00  0.00    +0.000 A 
ATOM      9  C   UNL     1       1.560   8.208  19.928  0.00  0.00    +0.000 A 
ATOM     10  N   UNL     1       2.328   7.118  19.968  0.00  0.00    +0.000 NA
ENDROOT
BRANCH   1  15
ATOM     11  C   UNL     1       0.713   3.561  20.013  0.00  0.00    +0.000 C 
ATOM     12  C   UNL     1       1.139   3.047  18.633  0.00  0.00    +0.000 C 
ATOM     13  C   UNL     1       1.943   4.106  17.836  0.00  0.00    +0.000 C 
ATOM     14  N   UNL     1       3.266   4.314  18.433  0.00  0.00    +0.000 N 
ATOM     15  C   UNL     1       3.827   5.512  18.884  0.00  0.00    +0.000 C 
ATOM     16  O   UNL     1       4.989   5.568  19.297  0.00  0.00    +0.000 OA
ATOM     17  C   UNL     1       4.044   3.079  18.513  0.00  0.00    +0.000 C 
ATOM     18  C   UNL     1       3.255   1.968  19.238  0.00  0.00    +0.000 C 
ATOM     19  N   UNL     1       1.882   1.770  18.733  0.00  0.00    +0.000 NA
ATOM     20  H   UNL     1       1.387   1.135  19.357  0.00  0.00    +0.000 HD
ENDBRANCH   1  15
BRANCH   6  21
ATOM     21  O   UNL     1      -0.861  11.625  19.919  0.00  0.00    +0.000 OA
BRANCH  21  22
ATOM     22  C   UNL     1      -1.514  12.048  21.050  0.00  0.00    +0.000 A 
ATOM     23  C   UNL     1      -0.905  12.328  22.271  0.00  0.00    +0.000 A 
ATOM     24  C   UNL     1      -1.685  12.706  23.362  0.00  0.00    +0.000 A 
ATOM     25  C   UNL     1      -3.064  12.852  23.200  0.00  0.00    +0.000 A 
ATOM     26  N   UNL     1      -3.665  12.648  21.991  0.00  0.00    +0.000 NA
ATOM     27  C   UNL     1      -2.881  12.259  20.954  0.00  0.00    +0.000 A 
BRANCH  25  28
ATOM     28  C   UNL     1      -3.924  13.250  24.395  0.00  0.00    +0.000 C 
ATOM     29  F   UNL     1      -3.275  14.077  25.270  0.00  0.00    +0.000 F 
ATOM     30  F   UNL     1      -5.060  13.916  24.043  0.00  0.00    +0.000 F 
ATOM     31  F   UNL     1      -4.326  12.182  25.144  0.00  0.00    +0.000 F 
ENDBRANCH  25  28
ENDBRANCH  21  22
ENDBRANCH   6  21
TORSDOF 4
ENDMDL
MODEL 3
REMARK VINA RESULT:      -9.0      3.608      4.151
REMARK  Name = 
REMARK  5 active torsions:
REMARK  status: ('A' for Active; 'I' for Inactive)
REMARK    1  A    between atoms: C_1  and  C_2
REMARK    2  A    between atoms: C_5  and  C_7
REMARK    3  A    between atoms: C_12  and  O_13
REMARK    4  A    between atoms: O_13  and  C_14
REMARK    5  A    between atoms: C_17  and  C_18
REMARK                            x       y       z     vdW  Elec       q    Type
REMARK                         _______ _______ _______ _____ _____    ______ ____
ROOT
ATOM      1  C   UNL     1       3.028   6.647  18.630  0.00  0.00    +0.000 A 
ATOM      2  C   UNL     1       2.927   7.577  17.603  0.00  0.00    +0.000 A 
ATOM      3  C   UNL     1       2.184   8.733  17.827  0.00  0.00    +0.000 A 
ATOM      4  C   UNL     1       1.551   8.925  19.062  0.00  0.00    +0.000 A 
ATOM      5  C   UNL     1       0.763  10.055  19.342  0.00  0.00    +0.000 A 
ATOM      6  C   UNL     1       0.127  10.182  20.579  0.00  0.00    +0.000 A 
ATOM      7  C   UNL     1       0.227   9.149  21.511  0.00  0.00    +0.000 A 
ATOM      8  C   UNL     1       1.053   8.056  21.249  0.00  0.00    +0.000 A 
ATOM      9  C   UNL     1       1.725   7.928  20.046  0.00  0.00    +0.000 A 
ATOM     10  N   UNL     1       2.474   6.840  19.852  0.00  0.00    +0.000 NA
ENDROOT
BRANCH   1  15
ATOM     11  C   UNL     1       1.013   3.338  20.117  0.00  0.00    +0.000 C 
ATOM     12  C   UNL     1       1.094   2.906  18.648  0.00  0.00    +0.000 C 
ATOM     13  C   UNL     1       1.692   4.012  17.744  0.00  0.00    +0.000 C 
ATOM     14  N   UNL     1       3.121   4.197  18.019  0.00  0.00    +0.000 N 
ATOM     15  C   UNL     1       3.780   5.372  18.390  0.00  0.00    +0.000 C 
ATOM     16  O   UNL     1       5.007   5.413  18.517  0.00  0.00    +0.000 OA
ATOM     17  C   UNL     1       3.887   2.965  17.843  0.00  0.00    +0.000 C 
ATOM     18  C   UNL     1       3.287   1.810  18.671  0.00  0.00    +0.000 C 
ATOM     19  N   UNL     1       1.832   1.630  18.498  0.00  0.00    +0.000 NA
ATOM     20  H   UNL     1       1.496   0.957  19.185  0.00  0.00    +0.000 HD
ENDBRANCH   1  15
BRANCH   6  21
ATOM     21  O   UNL     1      -0.617  11.322  20.771  0.00  0.00    +0.000 OA
BRANCH  21  22
ATOM     22  C   UNL     1      -0.196  12.505  20.215  0.00  0.00    +0.000 A 
ATOM     23  C   UNL     1      -0.797  13.142  19.133  0.00  0.00    +0.000 A 
ATOM     24  C   UNL     1      -0.244  14.319  18.630  0.00  0.00    +0.000 A 
ATOM     25  C   UNL     1       0.876  14.871  19.254  0.00  0.00    +0.000 A 
ATOM     26  N   UNL     1       1.434  14.293  20.358  0.00  0.00    +0.000 NA
ATOM     27  C   UNL     1       0.886  13.137  20.810  0.00  0.00    +0.000 A 
BRANCH  25  28
ATOM     28  C   UNL     1       1.494  16.149  18.696  0.00  0.00    +0.000 C 
ATOM     29  F   UNL     1       2.538  15.911  17.844  0.00  0.00    +0.000 F 
ATOM     30  F   UNL     1       0.612  16.907  17.984  0.00  0.00    +0.000 F 
ATOM     31  F   UNL     1       2.002  16.965  19.665  0.00  0.00    +0.000 F 
ENDBRANCH  25  28
ENDBRANCH  21  22
ENDBRANCH   6  21
TORSDOF 4
ENDMDL
MODEL 4
REMARK VINA RESULT:      -8.9      3.492      4.088
REMARK  Name = 
REMARK  5 active torsions:
REMARK  status: ('A' for Active; 'I' for Inactive)
REMARK    1  A    between atoms: C_1  and  C_2
REMARK    2  A    between atoms: C_5  and  C_7
REMARK    3  A    between atoms: C_12  and  O_13
REMARK    4  A    between atoms: O_13  and  C_14
REMARK    5  A    between atoms: C_17  and  C_18
REMARK                            x       y       z     vdW  Elec       q    Type
REMARK                         _______ _______ _______ _____ _____    ______ ____
ROOT
ATOM      1  C   UNL     1       3.033   6.666  18.660  0.00  0.00    +0.000 A 
ATOM      2  C   UNL     1       2.944   7.570  17.610  0.00  0.00    +0.000 A 
ATOM      3  C   UNL     1       2.199   8.732  17.797  0.00  0.00    +0.000 A 
ATOM      4  C   UNL     1       1.553   8.955  19.020  0.00  0.00    +0.000 A 
ATOM      5  C   UNL     1       0.762  10.092  19.263  0.00  0.00    +0.000 A 
ATOM      6  C   UNL     1       0.113  10.250  20.490  0.00  0.00    +0.000 A 
ATOM      7  C   UNL     1       0.202   9.241  21.448  0.00  0.00    +0.000 A 
ATOM      8  C   UNL     1       1.031   8.142  21.223  0.00  0.00    +0.000 A 
ATOM      9  C   UNL     1       1.716   7.983  20.030  0.00  0.00    +0.000 A 
ATOM     10  N   UNL     1       2.466   6.890  19.872  0.00  0.00    +0.000 NA
ENDROOT
BRANCH   1  15
ATOM     11  C   UNL     1       0.958   3.385  20.125  0.00  0.00    +0.000 C 
ATOM     12  C   UNL     1       1.085   2.933  18.666  0.00  0.00    +0.000 C 
ATOM     13  C   UNL     1       1.715   4.026  17.767  0.00  0.00    +0.000 C 
ATOM     14  N   UNL     1       3.135   4.209  18.085  0.00  0.00    +0.000 N 
ATOM     15  C   UNL     1       3.787   5.386  18.461  0.00  0.00    +0.000 C 
ATOM     16  O   UNL     1       5.010   5.424  18.626  0.00  0.00    +0.000 OA
ATOM     17  C   UNL     1       3.902   2.971  17.948  0.00  0.00    +0.000 C 
ATOM     18  C   UNL     1       3.271   1.829  18.772  0.00  0.00    +0.000 C 
ATOM     19  N   UNL     1       1.821   1.653  18.555  0.00  0.00    +0.000 NA
ATOM     20  H   UNL     1       1.461   0.990  19.239  0.00  0.00    +0.000 HD
ENDBRANCH   1  15
BRANCH   6  21
ATOM     21  O   UNL     1      -0.633  11.395  20.645  0.00  0.00    +0.000 OA
BRANCH  21  22
ATOM     22  C   UNL     1      -0.123  12.596  20.217  0.00  0.00    +0.000 A 
ATOM     23  C   UNL     1       0.985  13.238  20.765  0.00  0.00    +0.000 A 
ATOM     24  C   UNL     1       1.378  14.481  20.270  0.00  0.00    +0.000 A 
ATOM     25  C   UNL     1       0.686  15.039  19.193  0.00  0.00    +0.000 A 
ATOM     26  N   UNL     1      -0.358  14.388  18.602  0.00  0.00    +0.000 NA
ATOM     27  C   UNL     1      -0.730  13.191  19.121  0.00  0.00    +0.000 A 
BRANCH  25  28
ATOM     28  C   UNL     1       1.102  16.406  18.660  0.00  0.00    +0.000 C 
ATOM     29  F   UNL     1       0.129  17.006  17.909  0.00  0.00    +0.000 F 
ATOM     30  F   UNL     1       1.401  17.299  19.645  0.00  0.00    +0.000 F 
ATOM     31  F   UNL     1       2.199  16.353  17.849  0.00  0.00    +0.000 F 
ENDBRANCH  25  28
ENDBRANCH  21  22
ENDBRANCH   6  21
TORSDOF 4
ENDMDL
MODEL 5
REMARK VINA RESULT:      -8.9      0.875      1.264
REMARK  Name = 
REMARK  5 active torsions:
REMARK  status: ('A' for Active; 'I' for Inactive)
REMARK    1  A    between atoms: C_1  and  C_2
REMARK    2  A    between atoms: C_5  and  C_7
REMARK    3  A    between atoms: C_12  and  O_13
REMARK    4  A    between atoms: O_13  and  C_14
REMARK    5  A    between atoms: C_17  and  C_18
REMARK                            x       y       z     vdW  Elec       q    Type
REMARK                         _______ _______ _______ _____ _____    ______ ____
ROOT
ATOM      1  C   UNL     1       3.011   6.760  18.588  0.00  0.00    +0.000 A 
ATOM      2  C   UNL     1       2.954   7.714  17.580  0.00  0.00    +0.000 A 
ATOM      3  C   UNL     1       2.238   8.884  17.816  0.00  0.00    +0.000 A 
ATOM      4  C   UNL     1       1.588   9.067  19.043  0.00  0.00    +0.000 A 
ATOM      5  C   UNL     1       0.825  10.212  19.334  0.00  0.00    +0.000 A 
ATOM      6  C   UNL     1       0.169  10.329  20.562  0.00  0.00    +0.000 A 
ATOM      7  C   UNL     1       0.224   9.274  21.472  0.00  0.00    +0.000 A 
ATOM      8  C   UNL     1       1.026   8.165  21.201  0.00  0.00    +0.000 A 
ATOM      9  C   UNL     1       1.717   8.045  20.008  0.00  0.00    +0.000 A 
ATOM     10  N   UNL     1       2.440   6.942  19.804  0.00  0.00    +0.000 NA
ENDROOT
BRANCH   1  15
ATOM     11  C   UNL     1       1.034   3.507  20.239  0.00  0.00    +0.000 C 
ATOM     12  C   UNL     1       1.034   3.046  18.777  0.00  0.00    +0.000 C 
ATOM     13  C   UNL     1       1.597   4.128  17.823  0.00  0.00    +0.000 C 
ATOM     14  N   UNL     1       3.041   4.298  18.020  0.00  0.00    +0.000 N 
ATOM     15  C   UNL     1       3.734   5.471  18.334  0.00  0.00    +0.000 C 
ATOM     16  O   UNL     1       4.966   5.497  18.396  0.00  0.00    +0.000 OA
ATOM     17  C   UNL     1       3.782   3.052  17.828  0.00  0.00    +0.000 C 
ATOM     18  C   UNL     1       3.210   1.921  18.708  0.00  0.00    +0.000 C 
ATOM     19  N   UNL     1       1.746   1.759  18.613  0.00  0.00    +0.000 NA
ATOM     20  H   UNL     1       1.437   1.103  19.329  0.00  0.00    +0.000 HD
ENDBRANCH   1  15
BRANCH   6  21
ATOM     21  O   UNL     1      -0.548  11.485  20.765  0.00  0.00    +0.000 OA
BRANCH  21  22
ATOM     22  C   UNL     1      -1.729  11.674  20.091  0.00  0.00    +0.000 A 
ATOM     23  C   UNL     1      -2.771  12.495  20.513  0.00  0.00    +0.000 A 
ATOM     24  C   UNL     1      -3.943  12.567  19.760  0.00  0.00    +0.000 A 
ATOM     25  C   UNL     1      -4.032  11.854  18.564  0.00  0.00    +0.000 A 
ATOM     26  N   UNL     1      -2.992  11.098  18.104  0.00  0.00    +0.000 NA
ATOM     27  C   UNL     1      -1.874  11.032  18.870  0.00  0.00    +0.000 A 
BRANCH  25  28
ATOM     28  C   UNL     1      -5.318  11.916  17.746  0.00  0.00    +0.000 C 
ATOM     29  F   UNL     1      -5.104  11.793  16.400  0.00  0.00    +0.000 F 
ATOM     30  F   UNL     1      -6.204  10.929  18.062  0.00  0.00    +0.000 F 
ATOM     31  F   UNL     1      -5.991  13.094  17.895  0.00  0.00    +0.000 F 
ENDBRANCH  25  28
ENDBRANCH  21  22
ENDBRANCH   6  21
TORSDOF 4
ENDMDL
MODEL 6
REMARK VINA RESULT:      -8.9      0.767      1.599
REMARK  Name = 
REMARK  5 active torsions:
REMARK  status: ('A' for Active; 'I' for Inactive)
REMARK    1  A    between atoms: C_1  and  C_2
REMARK    2  A    between atoms: C_5  and  C_7
REMARK    3  A    between atoms: C_12  and  O_13
REMARK    4  A    between atoms: O_13  and  C_14
REMARK    5  A    between atoms: C_17  and  C_18
REMARK                            x       y       z     vdW  Elec       q    Type
REMARK                         _______ _______ _______ _____ _____    ______ ____
ROOT
ATOM      1  C   UNL     1       2.714   6.480  19.324  0.00  0.00    +0.000 A 
ATOM      2  C   UNL     1       2.018   6.460  20.525  0.00  0.00    +0.000 A 
ATOM      3  C   UNL     1       1.201   7.544  20.836  0.00  0.00    +0.000 A 
ATOM      4  C   UNL     1       1.109   8.623  19.949  0.00  0.00    +0.000 A 
ATOM      5  C   UNL     1       0.327   9.761  20.216  0.00  0.00    +0.000 A 
ATOM      6  C   UNL     1       0.296  10.824  19.311  0.00  0.00    +0.000 A 
ATOM      7  C   UNL     1       1.099  10.778  18.172  0.00  0.00    +0.000 A 
ATOM      8  C   UNL     1       1.831   9.626  17.885  0.00  0.00    +0.000 A 
ATOM      9  C   UNL     1       1.845   8.543  18.747  0.00  0.00    +0.000 A 
ATOM     10  N   UNL     1       2.594   7.487  18.423  0.00  0.00    +0.000 NA
ENDROOT
BRANCH   1  15
ATOM     11  C   UNL     1       1.081   2.797  20.313  0.00  0.00    +0.000 C 
ATOM     12  C   UNL     1       1.289   2.550  18.815  0.00  0.00    +0.000 C 
ATOM     13  C   UNL     1       1.780   3.820  18.075  0.00  0.00    +0.000 C 
ATOM     14  N   UNL     1       3.157   4.149  18.459  0.00  0.00    +0.000 N 
ATOM     15  C   UNL     1       3.638   5.346  18.995  0.00  0.00    +0.000 C 
ATOM     16  O   UNL     1       4.842   5.525  19.203  0.00  0.00    +0.000 OA
ATOM     17  C   UNL     1       4.086   3.051  18.198  0.00  0.00    +0.000 C 
ATOM     18  C   UNL     1       3.603   1.742  18.857  0.00  0.00    +0.000 C 
ATOM     19  N   UNL     1       2.194   1.403  18.573  0.00  0.00    +0.000 NA
ATOM     20  H   UNL     1       1.916   0.619  19.161  0.00  0.00    +0.000 HD
ENDBRANCH   1  15
BRANCH   6  21
ATOM     21  O   UNL     1      -0.502  11.892  19.648  0.00  0.00    +0.000 OA
BRANCH  21  22
ATOM     22  C   UNL     1      -1.825  11.888  19.280  0.00  0.00    +0.000 A 
ATOM     23  C   UNL     1      -2.332  11.319  18.115  0.00  0.00    +0.000 A 
ATOM     24  C   UNL     1      -3.693  11.422  17.831  0.00  0.00    +0.000 A 
ATOM     25  C   UNL     1      -4.538  12.049  18.748  0.00  0.00    +0.000 A 
ATOM     26  N   UNL     1      -4.065  12.551  19.926  0.00  0.00    +0.000 NA
ATOM     27  C   UNL     1      -2.733  12.455  20.163  0.00  0.00    +0.000 A 
BRANCH  25  28
ATOM     28  C   UNL     1      -6.025  12.179  18.433  0.00  0.00    +0.000 C 
ATOM     29  F   UNL     1      -6.305  13.219  17.590  0.00  0.00    +0.000 F 
ATOM     30  F   UNL     1      -6.545  11.073  17.828  0.00  0.00    +0.000 F 
ATOM     31  F   UNL     1      -6.789  12.401  19.542  0.00  0.00    +0.000 F 
ENDBRANCH  25  28
ENDBRANCH  21  22
ENDBRANCH   6  21
TORSDOF 4
ENDMDL
MODEL 7
REMARK VINA RESULT:      -8.9      0.932      1.774
REMARK  Name = 
REMARK  5 active torsions:
REMARK  status: ('A' for Active; 'I' for Inactive)
REMARK    1  A    between atoms: C_1  and  C_2
REMARK    2  A    between atoms: C_5  and  C_7
REMARK    3  A    between atoms: C_12  and  O_13
REMARK    4  A    between atoms: O_13  and  C_14
REMARK    5  A    between atoms: C_17  and  C_18
REMARK                            x       y       z     vdW  Elec       q    Type
REMARK                         _______ _______ _______ _____ _____    ______ ____
ROOT
ATOM      1  C   UNL     1       2.716   6.572  19.304  0.00  0.00    +0.000 A 
ATOM      2  C   UNL     1       2.049   6.528  20.522  0.00  0.00    +0.000 A 
ATOM      3  C   UNL     1       1.279   7.627  20.895  0.00  0.00    +0.000 A 
ATOM      4  C   UNL     1       1.205   8.743  20.052  0.00  0.00    +0.000 A 
ATOM      5  C   UNL     1       0.470   9.896  20.382  0.00  0.00    +0.000 A 
ATOM      6  C   UNL     1       0.455  10.994  19.520  0.00  0.00    +0.000 A 
ATOM      7  C   UNL     1       1.228  10.965  18.359  0.00  0.00    +0.000 A 
ATOM      8  C   UNL     1       1.911   9.801  18.010  0.00  0.00    +0.000 A 
ATOM      9  C   UNL     1       1.908   8.685  18.829  0.00  0.00    +0.000 A 
ATOM     10  N   UNL     1       2.610   7.616  18.446  0.00  0.00    +0.000 NA
ENDROOT
BRANCH   1  15
ATOM     11  C   UNL     1       0.947   2.911  20.129  0.00  0.00    +0.000 C 
ATOM     12  C   UNL     1       1.131   2.732  18.618  0.00  0.00    +0.000 C 
ATOM     13  C   UNL     1       1.665   4.017  17.937  0.00  0.00    +0.000 C 
ATOM     14  N   UNL     1       3.058   4.271  18.320  0.00  0.00    +0.000 N 
ATOM     15  C   UNL     1       3.591   5.420  18.909  0.00  0.00    +0.000 C 
ATOM     16  O   UNL     1       4.803   5.541  19.111  0.00  0.00    +0.000 OA
ATOM     17  C   UNL     1       3.940   3.151  17.994  0.00  0.00    +0.000 C 
ATOM     18  C   UNL     1       3.411   1.831  18.593  0.00  0.00    +0.000 C 
ATOM     19  N   UNL     1       1.987   1.563  18.309  0.00  0.00    +0.000 NA
ATOM     20  H   UNL     1       1.684   0.762  18.860  0.00  0.00    +0.000 HD
ENDBRANCH   1  15
BRANCH   6  21
ATOM     21  O   UNL     1      -0.296  12.075  19.918  0.00  0.00    +0.000 OA
BRANCH  21  22
ATOM     22  C   UNL     1      -1.638  12.107  19.629  0.00  0.00    +0.000 A 
ATOM     23  C   UNL     1      -2.624  12.643  20.452  0.00  0.00    +0.000 A 
ATOM     24  C   UNL     1      -3.962  12.572  20.066  0.00  0.00    +0.000 A 
ATOM     25  C   UNL     1      -4.288  12.012  18.830  0.00  0.00    +0.000 A 
ATOM     26  N   UNL     1      -3.325  11.545  17.982  0.00  0.00    +0.000 NA
ATOM     27  C   UNL     1      -2.035  11.608  18.397  0.00  0.00    +0.000 A 
BRANCH  25  28
ATOM     28  C   UNL     1      -5.751  11.918  18.410  0.00  0.00    +0.000 C 
ATOM     29  F   UNL     1      -6.620  12.143  19.443  0.00  0.00    +0.000 F 
ATOM     30  F   UNL     1      -6.094  12.820  17.447  0.00  0.00    +0.000 F 
ATOM     31  F   UNL     1      -6.089  10.690  17.919  0.00  0.00    +0.000 F 
ENDBRANCH  25  28
ENDBRANCH  21  22
ENDBRANCH   6  21
TORSDOF 4
ENDMDL
MODEL 8
REMARK VINA RESULT:      -8.7      1.078      1.673
REMARK  Name = 
REMARK  5 active torsions:
REMARK  status: ('A' for Active; 'I' for Inactive)
REMARK    1  A    between atoms: C_1  and  C_2
REMARK    2  A    between atoms: C_5  and  C_7
REMARK    3  A    between atoms: C_12  and  O_13
REMARK    4  A    between atoms: O_13  and  C_14
REMARK    5  A    between atoms: C_17  and  C_18
REMARK                            x       y       z     vdW  Elec       q    Type
REMARK                         _______ _______ _______ _____ _____    ______ ____
ROOT
ATOM      1  C   UNL     1       2.632   6.631  19.174  0.00  0.00    +0.000 A 
ATOM      2  C   UNL     1       2.033   6.558  20.425  0.00  0.00    +0.000 A 
ATOM      3  C   UNL     1       1.296   7.651  20.872  0.00  0.00    +0.000 A 
ATOM      4  C   UNL     1       1.185   8.792  20.066  0.00  0.00    +0.000 A 
ATOM      5  C   UNL     1       0.481   9.940  20.470  0.00  0.00    +0.000 A 
ATOM      6  C   UNL     1       0.430  11.064  19.641  0.00  0.00    +0.000 A 
ATOM      7  C   UNL     1       1.136  11.062  18.439  0.00  0.00    +0.000 A 
ATOM      8  C   UNL     1       1.788   9.902  18.019  0.00  0.00    +0.000 A 
ATOM      9  C   UNL     1       1.819   8.763  18.805  0.00  0.00    +0.000 A 
ATOM     10  N   UNL     1       2.489   7.701  18.354  0.00  0.00    +0.000 NA
ENDROOT
BRANCH   1  15
ATOM     11  C   UNL     1       1.035   2.962  20.273  0.00  0.00    +0.000 C 
ATOM     12  C   UNL     1       1.040   2.755  18.755  0.00  0.00    +0.000 C 
ATOM     13  C   UNL     1       1.467   4.033  17.991  0.00  0.00    +0.000 C 
ATOM     14  N   UNL     1       2.891   4.316  18.199  0.00  0.00    +0.000 N 
ATOM     15  C   UNL     1       3.472   5.484  18.698  0.00  0.00    +0.000 C 
ATOM     16  O   UNL     1       4.697   5.626  18.751  0.00  0.00    +0.000 OA
ATOM     17  C   UNL     1       3.746   3.202  17.791  0.00  0.00    +0.000 C 
ATOM     18  C   UNL     1       3.316   1.887  18.473  0.00  0.00    +0.000 C 
ATOM     19  N   UNL     1       1.872   1.593  18.367  0.00  0.00    +0.000 NA
ATOM     20  H   UNL     1       1.651   0.799  18.965  0.00  0.00    +0.000 HD
ENDBRANCH   1  15
BRANCH   6  21
ATOM     21  O   UNL     1      -0.288  12.139  20.111  0.00  0.00    +0.000 OA
BRANCH  21  22
ATOM     22  C   UNL     1      -1.650  12.166  19.942  0.00  0.00    +0.000 A 
ATOM     23  C   UNL     1      -2.327  11.735  18.804  0.00  0.00    +0.000 A 
ATOM     24  C   UNL     1      -3.714  11.858  18.736  0.00  0.00    +0.000 A 
ATOM     25  C   UNL     1      -4.411  12.362  19.836  0.00  0.00    +0.000 A 
ATOM     26  N   UNL     1      -3.766  12.725  20.984  0.00  0.00    +0.000 NA
ATOM     27  C   UNL     1      -2.414  12.613  21.010  0.00  0.00    +0.000 A 
BRANCH  25  28
ATOM     28  C   UNL     1      -5.927  12.514  19.760  0.00  0.00    +0.000 C 
ATOM     29  F   UNL     1      -6.597  11.568  20.485  0.00  0.00    +0.000 F 
ATOM     30  F   UNL     1      -6.371  13.713  20.233  0.00  0.00    +0.000 F 
ATOM     31  F   UNL     1      -6.413  12.403  18.489  0.00  0.00    +0.000 F 
ENDBRANCH  25  28
ENDBRANCH  21  22
ENDBRANCH   6  21
TORSDOF 4
ENDMDL
MODEL 9
REMARK VINA RESULT:      -8.6      2.519      3.060
REMARK  Name = 
REMARK  5 active torsions:
REMARK  status: ('A' for Active; 'I' for Inactive)
REMARK    1  A    between atoms: C_1  and  C_2
REMARK    2  A    between atoms: C_5  and  C_7
REMARK    3  A    between atoms: C_12  and  O_13
REMARK    4  A    between atoms: O_13  and  C_14
REMARK    5  A    between atoms: C_17  and  C_18
REMARK                            x       y       z     vdW  Elec       q    Type
REMARK                         _______ _______ _______ _____ _____    ______ ____
ROOT
ATOM      1  C   UNL     1       3.104   6.710  18.768  0.00  0.00    +0.000 A 
ATOM      2  C   UNL     1       3.195   7.520  17.643  0.00  0.00    +0.000 A 
ATOM      3  C   UNL     1       2.495   8.724  17.635  0.00  0.00    +0.000 A 
ATOM      4  C   UNL     1       1.714   9.083  18.741  0.00  0.00    +0.000 A 
ATOM      5  C   UNL     1       0.960  10.269  18.785  0.00  0.00    +0.000 A 
ATOM      6  C   UNL     1       0.173  10.563  19.900  0.00  0.00    +0.000 A 
ATOM      7  C   UNL     1       0.088   9.640  20.942  0.00  0.00    +0.000 A 
ATOM      8  C   UNL     1       0.879   8.492  20.919  0.00  0.00    +0.000 A 
ATOM      9  C   UNL     1       1.698   8.199  19.842  0.00  0.00    +0.000 A 
ATOM     10  N   UNL     1       2.403   7.066  19.873  0.00  0.00    +0.000 NA
ENDROOT
BRANCH   1  15
ATOM     11  C   UNL     1       0.665   3.648  20.145  0.00  0.00    +0.000 C 
ATOM     12  C   UNL     1       0.975   3.077  18.756  0.00  0.00    +0.000 C 
ATOM     13  C   UNL     1       1.786   4.067  17.883  0.00  0.00    +0.000 C 
ATOM     14  N   UNL     1       3.154   4.213  18.393  0.00  0.00    +0.000 N 
ATOM     15  C   UNL     1       3.809   5.387  18.775  0.00  0.00    +0.000 C 
ATOM     16  O   UNL     1       4.995   5.385  19.115  0.00  0.00    +0.000 OA
ATOM     17  C   UNL     1       3.863   2.937  18.461  0.00  0.00    +0.000 C 
ATOM     18  C   UNL     1       3.060   1.892  19.263  0.00  0.00    +0.000 C 
ATOM     19  N   UNL     1       1.648   1.762  18.848  0.00  0.00    +0.000 NA
ATOM     20  H   UNL     1       1.158   1.172  19.517  0.00  0.00    +0.000 HD
ENDBRANCH   1  15
BRANCH   6  21
ATOM     21  O   UNL     1      -0.525  11.748  19.862  0.00  0.00    +0.000 OA
BRANCH  21  22
ATOM     22  C   UNL     1      -1.437  12.025  20.850  0.00  0.00    +0.000 A 
ATOM     23  C   UNL     1      -2.804  12.199  20.654  0.00  0.00    +0.000 A 
ATOM     24  C   UNL     1      -3.622  12.525  21.736  0.00  0.00    +0.000 A 
ATOM     25  C   UNL     1      -3.064  12.619  23.012  0.00  0.00    +0.000 A 
ATOM     26  N   UNL     1      -1.736  12.385  23.229  0.00  0.00    +0.000 NA
ATOM     27  C   UNL     1      -0.963  12.091  22.153  0.00  0.00    +0.000 A 
BRANCH  25  28
ATOM     28  C   UNL     1      -3.951  12.992  24.195  0.00  0.00    +0.000 C 
ATOM     29  F   UNL     1      -4.268  11.921  24.985  0.00  0.00    +0.000 F 
ATOM     30  F   UNL     1      -3.376  13.901  25.033  0.00  0.00    +0.000 F 
ATOM     31  F   UNL     1      -5.149  13.526  23.818  0.00  0.00    +0.000 F 
ENDBRANCH  25  28
ENDBRANCH  21  22
ENDBRANCH   6  21
TORSDOF 4
ENDMDL
