MODEL 1
REMARK VINA RESULT:      -6.7      0.000      0.000
REMARK  Name = 
REMARK  8 active torsions:
REMARK  status: ('A' for Active; 'I' for Inactive)
REMARK    1  A    between atoms: C_2  and  C_3
REMARK    2  A    between atoms: C_2  and  C_4
REMARK    3  A    between atoms: C_7  and  C_8
REMARK    4  A    between atoms: C_8  and  O_9
REMARK    5  A    between atoms: O_9  and  C_10
REMARK    6  A    between atoms: C_10  and  C_11
REMARK    7  A    between atoms: C_15  and  O_16
REMARK    8  A    between atoms: C_22  and  C_23
REMARK                            x       y       z     vdW  Elec       q    Type
REMARK                         _______ _______ _______ _____ _____    ______ ____
ROOT
ATOM      1  C   UNL     1      -5.198  13.036  19.281  0.00  0.00    +0.000 C 
ATOM      2  C   UNL     1      -5.418  11.847  18.157  0.00  0.00    +0.000 C 
ATOM      3  C   UNL     1      -4.557  11.098  17.000  0.00  0.00    +0.000 C 
ATOM      4  C   UNL     1      -3.301  10.858  16.496  0.00  0.00    +0.000 C 
ATOM      5  C   UNL     1      -1.963  11.317  17.026  0.00  0.00    +0.000 C 
ATOM      6  C   UNL     1      -2.117  12.234  18.198  0.00  0.00    +0.000 C 
ATOM      7  C   UNL     1      -0.800  12.773  18.751  0.00  0.00    +0.000 C 
ATOM      8  C   UNL     1      -0.041  11.769  19.619  0.00  0.00    +0.000 C 
ATOM      9  C   UNL     1       0.946  11.059  19.044  0.00  0.00    +0.000 C 
ATOM     10  C   UNL     1      -0.357  11.519  21.107  0.00  0.00    +0.000 C 
ATOM     11  C   UNL     1      -1.752  11.966  21.505  0.00  0.00    +0.000 C 
ATOM     12  C   UNL     1      -2.344  11.973  22.873  0.00  0.00    +0.000 C 
ATOM     13  C   UNL     1      -3.592  12.453  23.121  0.00  0.00    +0.000 C 
ATOM     14  C   UNL     1      -3.962  12.643  24.581  0.00  0.00    +0.000 C 
ATOM     15  C   UNL     1      -4.683  12.918  22.075  0.00  0.00    +0.000 C 
ATOM     16  C   UNL     1      -4.429  12.576  20.563  0.00  0.00    +0.000 C 
ENDROOT
BRANCH   1  18
ATOM     17  C   UNL     1      -7.613  13.508  19.870  0.00  0.00    +0.000 C 
ATOM     18  C   UNL     1      -6.361  13.970  19.675  0.00  0.00    +0.000 C 
ATOM     19  C   UNL     1      -6.138  15.467  19.769  0.00  0.00    +0.000 C 
ENDBRANCH   1  18
BRANCH   7  20
ATOM     20  O   UNL     1      -1.034  13.985  19.444  0.00  0.00    +0.000 OA
ATOM     21  H   UNL     1      -1.495  13.804  20.282  0.00  0.00    +0.000 HD
ENDBRANCH   7  20
BRANCH   4  22
ATOM     22  C   UNL     1      -3.027   9.912  15.280  0.00  0.00    +0.000 C 
BRANCH  22  23
ATOM     23  O   UNL     1      -3.838  10.235  14.110  0.00  0.00    +0.000 OA
BRANCH  23  24
ATOM     24  C   UNL     1      -3.408   9.757  12.908  0.00  0.00    +0.000 C 
ATOM     25  C   UNL     1      -4.496   9.709  11.864  0.00  0.00    +0.000 C 
ATOM     26  O   UNL     1      -2.259   9.399  12.672  0.00  0.00    +0.000 OA
ENDBRANCH  23  24
ENDBRANCH  22  23
ENDBRANCH   4  22
TORSDOF 5
ENDMDL
MODEL 2
REMARK VINA RESULT:      -6.3      3.884      5.729
REMARK  Name = 
REMARK  8 active torsions:
REMARK  status: ('A' for Active; 'I' for Inactive)
REMARK    1  A    between atoms: C_2  and  C_3
REMARK    2  A    between atoms: C_2  and  C_4
REMARK    3  A    between atoms: C_7  and  C_8
REMARK    4  A    between atoms: C_8  and  O_9
REMARK    5  A    between atoms: O_9  and  C_10
REMARK    6  A    between atoms: C_10  and  C_11
REMARK    7  A    between atoms: C_15  and  O_16
REMARK    8  A    between atoms: C_22  and  C_23
REMARK                            x       y       z     vdW  Elec       q    Type
REMARK                         _______ _______ _______ _____ _____    ______ ____
ROOT
ATOM      1  C   UNL     1      -2.313  12.272  22.516  0.00  0.00    +0.000 C 
ATOM      2  C   UNL     1      -1.437  10.969  23.025  0.00  0.00    +0.000 C 
ATOM      3  C   UNL     1      -0.417   9.872  22.393  0.00  0.00    +0.000 C 
ATOM      4  C   UNL     1       0.382   9.550  21.322  0.00  0.00    +0.000 C 
ATOM      5  C   UNL     1       0.658  10.351  20.071  0.00  0.00    +0.000 C 
ATOM      6  C   UNL     1      -0.161  11.601  20.022  0.00  0.00    +0.000 C 
ATOM      7  C   UNL     1       0.037  12.433  18.756  0.00  0.00    +0.000 C 
ATOM      8  C   UNL     1       1.323  13.260  18.760  0.00  0.00    +0.000 C 
ATOM      9  C   UNL     1       2.396  12.758  18.125  0.00  0.00    +0.000 C 
ATOM     10  C   UNL     1       1.456  14.626  19.463  0.00  0.00    +0.000 C 
ATOM     11  C   UNL     1       0.403  14.851  20.533  0.00  0.00    +0.000 C 
ATOM     12  C   UNL     1       0.171  16.091  21.327  0.00  0.00    +0.000 C 
ATOM     13  C   UNL     1      -0.844  16.199  22.225  0.00  0.00    +0.000 C 
ATOM     14  C   UNL     1      -1.124  17.591  22.762  0.00  0.00    +0.000 C 
ATOM     15  C   UNL     1      -1.831  15.066  22.721  0.00  0.00    +0.000 C 
ATOM     16  C   UNL     1      -1.478  13.583  22.343  0.00  0.00    +0.000 C 
ENDROOT
BRANCH   1  18
ATOM     17  C   UNL     1      -3.880  12.509  24.489  0.00  0.00    +0.000 C 
ATOM     18  C   UNL     1      -3.678  12.600  23.159  0.00  0.00    +0.000 C 
ATOM     19  C   UNL     1      -4.865  12.957  22.286  0.00  0.00    +0.000 C 
ENDBRANCH   1  18
BRANCH   7  20
ATOM     20  O   UNL     1      -1.101  13.244  18.535  0.00  0.00    +0.000 OA
ATOM     21  H   UNL     1      -1.330  13.723  19.350  0.00  0.00    +0.000 HD
ENDBRANCH   7  20
BRANCH   4  22
ATOM     22  C   UNL     1       1.283   8.273  21.274  0.00  0.00    +0.000 C 
BRANCH  22  23
ATOM     23  O   UNL     1       1.842   8.017  19.950  0.00  0.00    +0.000 OA
BRANCH  23  24
ATOM     24  C   UNL     1       2.361   6.776  19.726  0.00  0.00    +0.000 C 
ATOM     25  C   UNL     1       1.748   5.710  20.601  0.00  0.00    +0.000 C 
ATOM     26  O   UNL     1       3.233   6.525  18.902  0.00  0.00    +0.000 OA
ENDBRANCH  23  24
ENDBRANCH  22  23
ENDBRANCH   4  22
TORSDOF 5
ENDMDL
MODEL 3
REMARK VINA RESULT:      -6.2      3.125      6.371
REMARK  Name = 
REMARK  8 active torsions:
REMARK  status: ('A' for Active; 'I' for Inactive)
REMARK    1  A    between atoms: C_2  and  C_3
REMARK    2  A    between atoms: C_2  and  C_4
REMARK    3  A    between atoms: C_7  and  C_8
REMARK    4  A    between atoms: C_8  and  O_9
REMARK    5  A    between atoms: O_9  and  C_10
REMARK    6  A    between atoms: C_10  and  C_11
REMARK    7  A    between atoms: C_15  and  O_16
REMARK    8  A    between atoms: C_22  and  C_23
REMARK                            x       y       z     vdW  Elec       q    Type
REMARK                         _______ _______ _______ _____ _____    ______ ____
ROOT
ATOM      1  C   UNL     1      -0.303  10.666  18.882  0.00  0.00    +0.000 C 
ATOM      2  C   UNL     1      -1.665  10.422  17.981  0.00  0.00    +0.000 C 
ATOM      3  C   UNL     1      -3.249  10.778  18.057  0.00  0.00    +0.000 C 
ATOM      4  C   UNL     1      -4.211  11.550  18.663  0.00  0.00    +0.000 C 
ATOM      5  C   UNL     1      -4.042  12.623  19.712  0.00  0.00    +0.000 C 
ATOM      6  C   UNL     1      -2.623  12.730  20.173  0.00  0.00    +0.000 C 
ATOM      7  C   UNL     1      -2.395  13.766  21.270  0.00  0.00    +0.000 C 
ATOM      8  C   UNL     1      -2.349  15.205  20.757  0.00  0.00    +0.000 C 
ATOM      9  C   UNL     1      -3.473  15.940  20.843  0.00  0.00    +0.000 C 
ATOM     10  C   UNL     1      -1.095  15.850  20.135  0.00  0.00    +0.000 C 
ATOM     11  C   UNL     1      -0.087  14.831  19.634  0.00  0.00    +0.000 C 
ATOM     12  C   UNL     1       1.271  15.099  19.080  0.00  0.00    +0.000 C 
ATOM     13  C   UNL     1       2.116  14.099  18.713  0.00  0.00    +0.000 C 
ATOM     14  C   UNL     1       3.549  14.502  18.419  0.00  0.00    +0.000 C 
ATOM     15  C   UNL     1       1.812  12.549  18.632  0.00  0.00    +0.000 C 
ATOM     16  C   UNL     1       0.312  12.097  18.745  0.00  0.00    +0.000 C 
ENDROOT
BRANCH   1  18
ATOM     17  C   UNL     1       1.424   9.184  17.776  0.00  0.00    +0.000 C 
ATOM     18  C   UNL     1       0.823   9.611  18.905  0.00  0.00    +0.000 C 
ATOM     19  C   UNL     1       1.227   8.957  20.212  0.00  0.00    +0.000 C 
ENDBRANCH   1  18
BRANCH   7  20
ATOM     20  O   UNL     1      -1.227  13.439  22.000  0.00  0.00    +0.000 OA
ATOM     21  H   UNL     1      -1.179  13.979  22.808  0.00  0.00    +0.000 HD
ENDBRANCH   7  20
BRANCH   4  22
ATOM     22  C   UNL     1      -5.720  11.522  18.254  0.00  0.00    +0.000 C 
BRANCH  22  23
ATOM     23  O   UNL     1      -6.422  10.335  18.735  0.00  0.00    +0.000 OA
BRANCH  23  24
ATOM     24  C   UNL     1      -7.094  10.449  19.916  0.00  0.00    +0.000 C 
ATOM     25  C   UNL     1      -7.592  11.848  20.183  0.00  0.00    +0.000 C 
ATOM     26  O   UNL     1      -7.290   9.524  20.697  0.00  0.00    +0.000 OA
ENDBRANCH  23  24
ENDBRANCH  22  23
ENDBRANCH   4  22
TORSDOF 5
ENDMDL
MODEL 4
REMARK VINA RESULT:      -6.1      3.131      6.289
REMARK  Name = 
REMARK  8 active torsions:
REMARK  status: ('A' for Active; 'I' for Inactive)
REMARK    1  A    between atoms: C_2  and  C_3
REMARK    2  A    between atoms: C_2  and  C_4
REMARK    3  A    between atoms: C_7  and  C_8
REMARK    4  A    between atoms: C_8  and  O_9
REMARK    5  A    between atoms: O_9  and  C_10
REMARK    6  A    between atoms: C_10  and  C_11
REMARK    7  A    between atoms: C_15  and  O_16
REMARK    8  A    between atoms: C_22  and  C_23
REMARK                            x       y       z     vdW  Elec       q    Type
REMARK                         _______ _______ _______ _____ _____    ______ ____
ROOT
ATOM      1  C   UNL     1      -0.437  10.689  18.962  0.00  0.00    +0.000 C 
ATOM      2  C   UNL     1      -1.775  10.435  18.028  0.00  0.00    +0.000 C 
ATOM      3  C   UNL     1      -3.362  10.783  18.063  0.00  0.00    +0.000 C 
ATOM      4  C   UNL     1      -4.343  11.552  18.642  0.00  0.00    +0.000 C 
ATOM      5  C   UNL     1      -4.206  12.629  19.693  0.00  0.00    +0.000 C 
ATOM      6  C   UNL     1      -2.800  12.743  20.188  0.00  0.00    +0.000 C 
ATOM      7  C   UNL     1      -2.604  13.784  21.288  0.00  0.00    +0.000 C 
ATOM      8  C   UNL     1      -2.553  15.222  20.773  0.00  0.00    +0.000 C 
ATOM      9  C   UNL     1      -3.682  15.951  20.828  0.00  0.00    +0.000 C 
ATOM     10  C   UNL     1      -1.286  15.871  20.181  0.00  0.00    +0.000 C 
ATOM     11  C   UNL     1      -0.261  14.856  19.708  0.00  0.00    +0.000 C 
ATOM     12  C   UNL     1       1.109  15.130  19.188  0.00  0.00    +0.000 C 
ATOM     13  C   UNL     1       1.967  14.134  18.844  0.00  0.00    +0.000 C 
ATOM     14  C   UNL     1       3.406  14.543  18.585  0.00  0.00    +0.000 C 
ATOM     15  C   UNL     1       1.674  12.582  18.760  0.00  0.00    +0.000 C 
ATOM     16  C   UNL     1       0.174  12.123  18.837  0.00  0.00    +0.000 C 
ENDROOT
BRANCH   1  18
ATOM     17  C   UNL     1       1.120   9.110  20.180  0.00  0.00    +0.000 C 
ATOM     18  C   UNL     1       0.693   9.639  19.016  0.00  0.00    +0.000 C 
ATOM     19  C   UNL     1       1.420   9.236  17.747  0.00  0.00    +0.000 C 
ENDBRANCH   1  18
BRANCH   7  20
ATOM     20  O   UNL     1      -1.454  13.465  22.048  0.00  0.00    +0.000 OA
ATOM     21  H   UNL     1      -1.616  13.650  22.989  0.00  0.00    +0.000 HD
ENDBRANCH   7  20
BRANCH   4  22
ATOM     22  C   UNL     1      -5.841  11.515  18.196  0.00  0.00    +0.000 C 
BRANCH  22  23
ATOM     23  O   UNL     1      -6.510  10.263  18.537  0.00  0.00    +0.000 OA
BRANCH  23  24
ATOM     24  C   UNL     1      -7.103  10.192  19.764  0.00  0.00    +0.000 C 
ATOM     25  C   UNL     1      -7.378   8.777  20.209  0.00  0.00    +0.000 C 
ATOM     26  O   UNL     1      -7.391  11.163  20.454  0.00  0.00    +0.000 OA
ENDBRANCH  23  24
ENDBRANCH  22  23
ENDBRANCH   4  22
TORSDOF 5
ENDMDL
MODEL 5
REMARK VINA RESULT:      -5.9     10.302     13.661
REMARK  Name = 
REMARK  8 active torsions:
REMARK  status: ('A' for Active; 'I' for Inactive)
REMARK    1  A    between atoms: C_2  and  C_3
REMARK    2  A    between atoms: C_2  and  C_4
REMARK    3  A    between atoms: C_7  and  C_8
REMARK    4  A    between atoms: C_8  and  O_9
REMARK    5  A    between atoms: O_9  and  C_10
REMARK    6  A    between atoms: C_10  and  C_11
REMARK    7  A    between atoms: C_15  and  O_16
REMARK    8  A    between atoms: C_22  and  C_23
REMARK                            x       y       z     vdW  Elec       q    Type
REMARK                         _______ _______ _______ _____ _____    ______ ____
ROOT
ATOM      1  C   UNL     1       6.928  15.414  20.013  0.00  0.00    +0.000 C 
ATOM      2  C   UNL     1       6.908  15.010  21.613  0.00  0.00    +0.000 C 
ATOM      3  C   UNL     1       7.417  13.793  22.563  0.00  0.00    +0.000 C 
ATOM      4  C   UNL     1       8.225  12.686  22.654  0.00  0.00    +0.000 C 
ATOM      5  C   UNL     1       9.175  12.120  21.625  0.00  0.00    +0.000 C 
ATOM      6  C   UNL     1       9.093  12.860  20.328  0.00  0.00    +0.000 C 
ATOM      7  C   UNL     1       9.996  12.305  19.229  0.00  0.00    +0.000 C 
ATOM      8  C   UNL     1      11.464  12.706  19.379  0.00  0.00    +0.000 C 
ATOM      9  C   UNL     1      12.299  11.828  19.964  0.00  0.00    +0.000 C 
ATOM     10  C   UNL     1      12.030  14.061  18.912  0.00  0.00    +0.000 C 
ATOM     11  C   UNL     1      10.963  15.129  18.749  0.00  0.00    +0.000 C 
ATOM     12  C   UNL     1      11.140  16.509  18.214  0.00  0.00    +0.000 C 
ATOM     13  C   UNL     1      10.096  17.366  18.058  0.00  0.00    +0.000 C 
ATOM     14  C   UNL     1      10.374  18.630  17.265  0.00  0.00    +0.000 C 
ATOM     15  C   UNL     1       8.599  17.174  18.531  0.00  0.00    +0.000 C 
ATOM     16  C   UNL     1       8.295  15.982  19.508  0.00  0.00    +0.000 C 
ENDROOT
BRANCH   1  18
ATOM     17  C   UNL     1       5.297  17.347  19.954  0.00  0.00    +0.000 C 
ATOM     18  C   UNL     1       5.765  16.215  19.390  0.00  0.00    +0.000 C 
ATOM     19  C   UNL     1       5.055  15.693  18.156  0.00  0.00    +0.000 C 
ENDBRANCH   1  18
BRANCH   7  20
ATOM     20  O   UNL     1       9.486  12.672  17.961  0.00  0.00    +0.000 OA
ATOM     21  H   UNL     1       8.538  12.880  18.033  0.00  0.00    +0.000 HD
ENDBRANCH   7  20
BRANCH   4  22
ATOM     22  C   UNL     1       8.390  11.845  23.962  0.00  0.00    +0.000 C 
BRANCH  22  23
ATOM     23  O   UNL     1       7.204  11.060  24.291  0.00  0.00    +0.000 OA
BRANCH  23  24
ATOM     24  C   UNL     1       6.439  11.500  25.331  0.00  0.00    +0.000 C 
ATOM     25  C   UNL     1       7.248  12.128  26.439  0.00  0.00    +0.000 C 
ATOM     26  O   UNL     1       5.217  11.409  25.383  0.00  0.00    +0.000 OA
ENDBRANCH  23  24
ENDBRANCH  22  23
ENDBRANCH   4  22
TORSDOF 5
ENDMDL
MODEL 6
REMARK VINA RESULT:      -5.9      1.916      4.601
REMARK  Name = 
REMARK  8 active torsions:
REMARK  status: ('A' for Active; 'I' for Inactive)
REMARK    1  A    between atoms: C_2  and  C_3
REMARK    2  A    between atoms: C_2  and  C_4
REMARK    3  A    between atoms: C_7  and  C_8
REMARK    4  A    between atoms: C_8  and  O_9
REMARK    5  A    between atoms: O_9  and  C_10
REMARK    6  A    between atoms: C_10  and  C_11
REMARK    7  A    between atoms: C_15  and  O_16
REMARK    8  A    between atoms: C_22  and  C_23
REMARK                            x       y       z     vdW  Elec       q    Type
REMARK                         _______ _______ _______ _____ _____    ______ ____
ROOT
ATOM      1  C   UNL     1      -1.533  11.523  20.022  0.00  0.00    +0.000 C 
ATOM      2  C   UNL     1      -1.348  11.286  18.399  0.00  0.00    +0.000 C 
ATOM      3  C   UNL     1      -2.278  10.952  17.108  0.00  0.00    +0.000 C 
ATOM      4  C   UNL     1      -3.559  10.907  16.614  0.00  0.00    +0.000 C 
ATOM      5  C   UNL     1      -4.852  11.288  17.297  0.00  0.00    +0.000 C 
ATOM      6  C   UNL     1      -4.634  11.657  18.729  0.00  0.00    +0.000 C 
ATOM      7  C   UNL     1      -5.911  12.007  19.489  0.00  0.00    +0.000 C 
ATOM      8  C   UNL     1      -6.437  13.412  19.194  0.00  0.00    +0.000 C 
ATOM      9  C   UNL     1      -7.416  13.538  18.280  0.00  0.00    +0.000 C 
ATOM     10  C   UNL     1      -5.897  14.685  19.875  0.00  0.00    +0.000 C 
ATOM     11  C   UNL     1      -4.514  14.501  20.473  0.00  0.00    +0.000 C 
ATOM     12  C   UNL     1      -3.744  15.482  21.290  0.00  0.00    +0.000 C 
ATOM     13  C   UNL     1      -2.530  15.186  21.826  0.00  0.00    +0.000 C 
ATOM     14  C   UNL     1      -1.985  16.170  22.845  0.00  0.00    +0.000 C 
ATOM     15  C   UNL     1      -1.646  13.897  21.582  0.00  0.00    +0.000 C 
ATOM     16  C   UNL     1      -2.068  12.940  20.410  0.00  0.00    +0.000 C 
ENDROOT
BRANCH   1  18
ATOM     17  C   UNL     1      -0.708  10.407  22.139  0.00  0.00    +0.000 C 
ATOM     18  C   UNL     1      -0.429  11.090  21.010  0.00  0.00    +0.000 C 
ATOM     19  C   UNL     1       1.011  11.506  20.773  0.00  0.00    +0.000 C 
ENDBRANCH   1  18
BRANCH   7  20
ATOM     20  O   UNL     1      -5.711  11.810  20.876  0.00  0.00    +0.000 OA
ATOM     21  H   UNL     1      -6.051  12.575  21.372  0.00  0.00    +0.000 HD
ENDBRANCH   7  20
BRANCH   4  22
ATOM     22  C   UNL     1      -3.898  10.541  15.132  0.00  0.00    +0.000 C 
BRANCH  22  23
ATOM     23  O   UNL     1      -2.727  10.137  14.360  0.00  0.00    +0.000 OA
BRANCH  23  24
ATOM     24  C   UNL     1      -2.941   9.736  13.074  0.00  0.00    +0.000 C 
ATOM     25  C   UNL     1      -4.378   9.882  12.638  0.00  0.00    +0.000 C 
ATOM     26  O   UNL     1      -2.071   9.300  12.328  0.00  0.00    +0.000 OA
ENDBRANCH  23  24
ENDBRANCH  22  23
ENDBRANCH   4  22
TORSDOF 5
ENDMDL
MODEL 7
REMARK VINA RESULT:      -5.9      1.958      4.642
REMARK  Name = 
REMARK  8 active torsions:
REMARK  status: ('A' for Active; 'I' for Inactive)
REMARK    1  A    between atoms: C_2  and  C_3
REMARK    2  A    between atoms: C_2  and  C_4
REMARK    3  A    between atoms: C_7  and  C_8
REMARK    4  A    between atoms: C_8  and  O_9
REMARK    5  A    between atoms: O_9  and  C_10
REMARK    6  A    between atoms: C_10  and  C_11
REMARK    7  A    between atoms: C_15  and  O_16
REMARK    8  A    between atoms: C_22  and  C_23
REMARK                            x       y       z     vdW  Elec       q    Type
REMARK                         _______ _______ _______ _____ _____    ______ ____
ROOT
ATOM      1  C   UNL     1      -1.161  11.023  20.447  0.00  0.00    +0.000 C 
ATOM      2  C   UNL     1      -1.021  10.854  18.811  0.00  0.00    +0.000 C 
ATOM      3  C   UNL     1      -1.996  10.784  17.511  0.00  0.00    +0.000 C 
ATOM      4  C   UNL     1      -3.261  11.016  17.028  0.00  0.00    +0.000 C 
ATOM      5  C   UNL     1      -4.458  11.597  17.745  0.00  0.00    +0.000 C 
ATOM      6  C   UNL     1      -4.175  11.830  19.195  0.00  0.00    +0.000 C 
ATOM      7  C   UNL     1      -5.363  12.372  19.987  0.00  0.00    +0.000 C 
ATOM      8  C   UNL     1      -5.608  13.867  19.781  0.00  0.00    +0.000 C 
ATOM      9  C   UNL     1      -6.542  14.234  18.886  0.00  0.00    +0.000 C 
ATOM     10  C   UNL     1      -4.834  14.969  20.531  0.00  0.00    +0.000 C 
ATOM     11  C   UNL     1      -3.513  14.486  21.104  0.00  0.00    +0.000 C 
ATOM     12  C   UNL     1      -2.571  15.249  21.970  0.00  0.00    +0.000 C 
ATOM     13  C   UNL     1      -1.437  14.693  22.476  0.00  0.00    +0.000 C 
ATOM     14  C   UNL     1      -0.715  15.491  23.546  0.00  0.00    +0.000 C 
ATOM     15  C   UNL     1      -0.818  13.276  22.147  0.00  0.00    +0.000 C 
ATOM     16  C   UNL     1      -1.414  12.491  20.924  0.00  0.00    +0.000 C 
ENDROOT
BRANCH   1  18
ATOM     17  C   UNL     1       1.109  10.065  21.027  0.00  0.00    +0.000 C 
ATOM     18  C   UNL     1      -0.162  10.328  21.396  0.00  0.00    +0.000 C 
ATOM     19  C   UNL     1      -0.619   9.839  22.757  0.00  0.00    +0.000 C 
ENDBRANCH   1  18
BRANCH   7  20
ATOM     20  O   UNL     1      -5.207  12.056  21.357  0.00  0.00    +0.000 OA
ATOM     21  H   UNL     1      -4.261  12.002  21.579  0.00  0.00    +0.000 HD
ENDBRANCH   7  20
BRANCH   4  22
ATOM     22  C   UNL     1      -3.661  10.813  15.530  0.00  0.00    +0.000 C 
BRANCH  22  23
ATOM     23  O   UNL     1      -2.676  10.045  14.774  0.00  0.00    +0.000 OA
BRANCH  23  24
ATOM     24  C   UNL     1      -2.980   9.756  13.476  0.00  0.00    +0.000 C 
ATOM     25  C   UNL     1      -4.458   9.841  13.179  0.00  0.00    +0.000 C 
ATOM     26  O   UNL     1      -2.156   9.458  12.618  0.00  0.00    +0.000 OA
ENDBRANCH  23  24
ENDBRANCH  22  23
ENDBRANCH   4  22
TORSDOF 5
ENDMDL
MODEL 8
REMARK VINA RESULT:      -5.9      2.904      6.013
REMARK  Name = 
REMARK  8 active torsions:
REMARK  status: ('A' for Active; 'I' for Inactive)
REMARK    1  A    between atoms: C_2  and  C_3
REMARK    2  A    between atoms: C_2  and  C_4
REMARK    3  A    between atoms: C_7  and  C_8
REMARK    4  A    between atoms: C_8  and  O_9
REMARK    5  A    between atoms: O_9  and  C_10
REMARK    6  A    between atoms: C_10  and  C_11
REMARK    7  A    between atoms: C_15  and  O_16
REMARK    8  A    between atoms: C_22  and  C_23
REMARK                            x       y       z     vdW  Elec       q    Type
REMARK                         _______ _______ _______ _____ _____    ______ ____
ROOT
ATOM      1  C   UNL     1      -0.371  10.608  18.985  0.00  0.00    +0.000 C 
ATOM      2  C   UNL     1      -1.614  10.387  17.922  0.00  0.00    +0.000 C 
ATOM      3  C   UNL     1      -3.207  10.701  17.837  0.00  0.00    +0.000 C 
ATOM      4  C   UNL     1      -4.253  11.413  18.372  0.00  0.00    +0.000 C 
ATOM      5  C   UNL     1      -4.236  12.425  19.493  0.00  0.00    +0.000 C 
ATOM      6  C   UNL     1      -2.882  12.537  20.117  0.00  0.00    +0.000 C 
ATOM      7  C   UNL     1      -2.809  13.511  21.291  0.00  0.00    +0.000 C 
ATOM      8  C   UNL     1      -2.749  14.979  20.869  0.00  0.00    +0.000 C 
ATOM      9  C   UNL     1      -3.896  15.681  20.867  0.00  0.00    +0.000 C 
ATOM     10  C   UNL     1      -1.452  15.688  20.432  0.00  0.00    +0.000 C 
ATOM     11  C   UNL     1      -0.364  14.725  19.992  0.00  0.00    +0.000 C 
ATOM     12  C   UNL     1       1.038  15.057  19.612  0.00  0.00    +0.000 C 
ATOM     13  C   UNL     1       1.948  14.100  19.288  0.00  0.00    +0.000 C 
ATOM     14  C   UNL     1       3.394  14.553  19.183  0.00  0.00    +0.000 C 
ATOM     15  C   UNL     1       1.702  12.551  19.085  0.00  0.00    +0.000 C 
ATOM     16  C   UNL     1       0.213  12.059  19.001  0.00  0.00    +0.000 C 
ENDROOT
BRANCH   1  18
ATOM     17  C   UNL     1       1.162   9.043  20.252  0.00  0.00    +0.000 C 
ATOM     18  C   UNL     1       0.777   9.580  19.076  0.00  0.00    +0.000 C 
ATOM     19  C   UNL     1       1.567   9.208  17.836  0.00  0.00    +0.000 C 
ENDBRANCH   1  18
BRANCH   7  20
ATOM     20  O   UNL     1      -1.722  13.168  22.129  0.00  0.00    +0.000 OA
ATOM     21  H   UNL     1      -1.975  13.279  23.062  0.00  0.00    +0.000 HD
ENDBRANCH   7  20
BRANCH   4  22
ATOM     22  C   UNL     1      -5.706  11.374  17.793  0.00  0.00    +0.000 C 
BRANCH  22  23
ATOM     23  O   UNL     1      -6.009  12.513  16.932  0.00  0.00    +0.000 OA
BRANCH  23  24
ATOM     24  C   UNL     1      -7.056  13.307  17.299  0.00  0.00    +0.000 C 
ATOM     25  C   UNL     1      -7.170  14.561  16.468  0.00  0.00    +0.000 C 
ATOM     26  O   UNL     1      -7.839  13.049  18.206  0.00  0.00    +0.000 OA
ENDBRANCH  23  24
ENDBRANCH  22  23
ENDBRANCH   4  22
TORSDOF 5
ENDMDL
MODEL 9
REMARK VINA RESULT:      -5.9      3.279      6.151
REMARK  Name = 
REMARK  8 active torsions:
REMARK  status: ('A' for Active; 'I' for Inactive)
REMARK    1  A    between atoms: C_2  and  C_3
REMARK    2  A    between atoms: C_2  and  C_4
REMARK    3  A    between atoms: C_7  and  C_8
REMARK    4  A    between atoms: C_8  and  O_9
REMARK    5  A    between atoms: O_9  and  C_10
REMARK    6  A    between atoms: C_10  and  C_11
REMARK    7  A    between atoms: C_15  and  O_16
REMARK    8  A    between atoms: C_22  and  C_23
REMARK                            x       y       z     vdW  Elec       q    Type
REMARK                         _______ _______ _______ _____ _____    ______ ____
ROOT
ATOM      1  C   UNL     1      -2.223  13.573  21.314  0.00  0.00    +0.000 C 
ATOM      2  C   UNL     1      -1.060  14.692  20.967  0.00  0.00    +0.000 C 
ATOM      3  C   UNL     1       0.534  14.725  20.646  0.00  0.00    +0.000 C 
ATOM      4  C   UNL     1       1.636  13.984  20.294  0.00  0.00    +0.000 C 
ATOM      5  C   UNL     1       1.725  12.509  19.980  0.00  0.00    +0.000 C 
ATOM      6  C   UNL     1       0.419  11.815  20.202  0.00  0.00    +0.000 C 
ATOM      7  C   UNL     1       0.456  10.310  19.949  0.00  0.00    +0.000 C 
ATOM      8  C   UNL     1       0.417   9.936  18.467  0.00  0.00    +0.000 C 
ATOM      9  C   UNL     1       1.585   9.670  17.854  0.00  0.00    +0.000 C 
ATOM     10  C   UNL     1      -0.881   9.863  17.640  0.00  0.00    +0.000 C 
ATOM     11  C   UNL     1      -2.027  10.645  18.257  0.00  0.00    +0.000 C 
ATOM     12  C   UNL     1      -3.440  10.702  17.786  0.00  0.00    +0.000 C 
ATOM     13  C   UNL     1      -4.400  11.394  18.454  0.00  0.00    +0.000 C 
ATOM     14  C   UNL     1      -5.834  11.153  18.017  0.00  0.00    +0.000 C 
ATOM     15  C   UNL     1      -4.220  12.363  19.692  0.00  0.00    +0.000 C 
ATOM     16  C   UNL     1      -2.756  12.791  20.069  0.00  0.00    +0.000 C 
ENDROOT
BRANCH   1  18
ATOM     17  C   UNL     1      -3.803  13.088  23.230  0.00  0.00    +0.000 C 
ATOM     18  C   UNL     1      -3.395  13.925  22.254  0.00  0.00    +0.000 C 
ATOM     19  C   UNL     1      -4.183  15.203  22.044  0.00  0.00    +0.000 C 
ENDBRANCH   1  18
BRANCH   7  20
ATOM     20  O   UNL     1      -0.584   9.679  20.670  0.00  0.00    +0.000 OA
ATOM     21  H   UNL     1      -1.220  10.345  20.986  0.00  0.00    +0.000 HD
ENDBRANCH   7  20
BRANCH   4  22
ATOM     22  C   UNL     1       3.045  14.609  20.030  0.00  0.00    +0.000 C 
BRANCH  22  23
ATOM     23  O   UNL     1       3.700  14.065  18.844  0.00  0.00    +0.000 OA
BRANCH  23  24
ATOM     24  C   UNL     1       4.292  14.958  17.999  0.00  0.00    +0.000 C 
ATOM     25  C   UNL     1       3.344  16.018  17.495  0.00  0.00    +0.000 C 
ATOM     26  O   UNL     1       5.473  14.925  17.670  0.00  0.00    +0.000 OA
ENDBRANCH  23  24
ENDBRANCH  22  23
ENDBRANCH   4  22
TORSDOF 5
ENDMDL
