MODEL 1
REMARK VINA RESULT:      -8.0      0.000      0.000
REMARK  Name = 
REMARK  6 active torsions:
REMARK  status: ('A' for Active; 'I' for Inactive)
REMARK    1  A    between atoms: C_5  and  C_6
REMARK    2  A    between atoms: C_6  and  C_7
REMARK    3  A    between atoms: C_6  and  N_20
REMARK    4  A    between atoms: N_11  and  C_12
REMARK    5  A    between atoms: C_12  and  C_13
REMARK    6  A    between atoms: C_13  and  C_14
REMARK                            x       y       z     vdW  Elec       q    Type
REMARK                         _______ _______ _______ _____ _____    ______ ____
ROOT
ATOM      1  C   UNL     1       3.700   5.748  17.563  0.00  0.00    +0.000 C 
ENDROOT
BRANCH   1   6
ATOM      2 CL   UNL     1       0.472  10.306  19.943  0.00  0.00    +0.000 Cl
ATOM      3  C   UNL     1       1.472   9.067  19.295  0.00  0.00    +0.000 A 
ATOM      4  C   UNL     1       1.764   7.941  20.061  0.00  0.00    +0.000 A 
ATOM      5  C   UNL     1       2.531   6.905  19.513  0.00  0.00    +0.000 A 
ATOM      6  C   UNL     1       3.011   6.972  18.190  0.00  0.00    +0.000 A 
ATOM      7  C   UNL     1       2.744   8.147  17.459  0.00  0.00    +0.000 A 
ATOM      8  C   UNL     1       1.971   9.181  18.000  0.00  0.00    +0.000 A 
ENDBRANCH   1   6
BRANCH   1   9
ATOM      9  N   UNL     1       3.451   4.414  18.190  0.00  0.00    +0.000 NA
ATOM     10  C   UNL     1       4.647   3.896  18.889  0.00  0.00    +0.000 C 
ATOM     11  C   UNL     1       4.438   2.607  19.705  0.00  0.00    +0.000 C 
ATOM     12  S   UNL     1       3.842   1.232  18.687  0.00  0.00    +0.000 S 
ATOM     13  C   UNL     1       2.428   2.110  17.969  0.00  0.00    +0.000 C 
ATOM     14  C   UNL     1       2.859   3.413  17.279  0.00  0.00    +0.000 C 
ENDBRANCH   1   9
BRANCH   1  15
ATOM     15  C   UNL     1       5.165   6.010  17.285  0.00  0.00    +0.000 A 
ATOM     16  N   UNL     1       5.969   6.804  17.977  0.00  0.00    +0.000 NA
ATOM     17  N   UNL     1       7.191   6.763  17.377  0.00  0.00    +0.000 NA
ATOM     18  N   UNL     1       7.171   5.960  16.328  0.00  0.00    +0.000 NA
ATOM     19  N   UNL     1       5.901   5.511  16.244  0.00  0.00    +0.000 N 
BRANCH  19  20
ATOM     20  C   UNL     1       5.605   4.545  15.209  0.00  0.00    +0.000 C 
BRANCH  20  21
ATOM     21  C   UNL     1       6.026   4.872  13.772  0.00  0.00    +0.000 C 
BRANCH  21  22
ATOM     22  C   UNL     1       6.060   3.784  12.727  0.00  0.00    +0.000 A 
ATOM     23  C   UNL     1       4.924   3.143  12.219  0.00  0.00    +0.000 A 
ATOM     24  C   UNL     1       5.053   2.073  11.328  0.00  0.00    +0.000 A 
ATOM     25  C   UNL     1       6.312   1.657  10.904  0.00  0.00    +0.000 A 
ATOM     26  C   UNL     1       7.445   2.335  11.341  0.00  0.00    +0.000 A 
ATOM     27  C   UNL     1       7.319   3.394  12.238  0.00  0.00    +0.000 A 
ENDBRANCH  21  22
ENDBRANCH  20  21
ENDBRANCH  19  20
ENDBRANCH   1  15
TORSDOF 6
ENDMDL
MODEL 2
REMARK VINA RESULT:      -7.9      1.324      1.680
REMARK  Name = 
REMARK  6 active torsions:
REMARK  status: ('A' for Active; 'I' for Inactive)
REMARK    1  A    between atoms: C_5  and  C_6
REMARK    2  A    between atoms: C_6  and  C_7
REMARK    3  A    between atoms: C_6  and  N_20
REMARK    4  A    between atoms: N_11  and  C_12
REMARK    5  A    between atoms: C_12  and  C_13
REMARK    6  A    between atoms: C_13  and  C_14
REMARK                            x       y       z     vdW  Elec       q    Type
REMARK                         _______ _______ _______ _____ _____    ______ ____
ROOT
ATOM      1  C   UNL     1       3.729   5.468  18.353  0.00  0.00    +0.000 C 
ENDROOT
BRANCH   1   6
ATOM      2 CL   UNL     1       0.489  10.508  19.337  0.00  0.00    +0.000 Cl
ATOM      3  C   UNL     1       1.492   9.134  19.084  0.00  0.00    +0.000 A 
ATOM      4  C   UNL     1       1.634   8.185  20.093  0.00  0.00    +0.000 A 
ATOM      5  C   UNL     1       2.404   7.038  19.867  0.00  0.00    +0.000 A 
ATOM      6  C   UNL     1       3.037   6.814  18.627  0.00  0.00    +0.000 A 
ATOM      7  C   UNL     1       2.917   7.818  17.645  0.00  0.00    +0.000 A 
ATOM      8  C   UNL     1       2.141   8.962  17.864  0.00  0.00    +0.000 A 
ENDBRANCH   1   6
BRANCH   1   9
ATOM      9  N   UNL     1       3.066   4.230  18.864  0.00  0.00    +0.000 NA
ATOM     10  C   UNL     1       3.630   3.006  18.255  0.00  0.00    +0.000 C 
ATOM     11  C   UNL     1       3.125   1.675  18.842  0.00  0.00    +0.000 C 
ATOM     12  S   UNL     1       1.327   1.496  18.708  0.00  0.00    +0.000 S 
ATOM     13  C   UNL     1       0.907   3.072  19.499  0.00  0.00    +0.000 C 
ATOM     14  C   UNL     1       1.591   4.258  18.801  0.00  0.00    +0.000 C 
ENDBRANCH   1   9
BRANCH   1  15
ATOM     15  C   UNL     1       5.208   5.524  18.667  0.00  0.00    +0.000 A 
ATOM     16  N   UNL     1       5.765   5.418  19.865  0.00  0.00    +0.000 NA
ATOM     17  N   UNL     1       7.111   5.541  19.698  0.00  0.00    +0.000 NA
ATOM     18  N   UNL     1       7.409   5.719  18.424  0.00  0.00    +0.000 NA
ATOM     19  N   UNL     1       6.226   5.743  17.777  0.00  0.00    +0.000 N 
BRANCH  19  20
ATOM     20  C   UNL     1       6.258   5.859  16.335  0.00  0.00    +0.000 C 
BRANCH  20  21
ATOM     21  C   UNL     1       5.461   4.842  15.510  0.00  0.00    +0.000 C 
BRANCH  21  22
ATOM     22  C   UNL     1       5.929   4.458  14.127  0.00  0.00    +0.000 A 
ATOM     23  C   UNL     1       5.271   3.544  13.297  0.00  0.00    +0.000 A 
ATOM     24  C   UNL     1       5.831   3.168  12.072  0.00  0.00    +0.000 A 
ATOM     25  C   UNL     1       7.030   3.729  11.644  0.00  0.00    +0.000 A 
ATOM     26  C   UNL     1       7.656   4.696  12.422  0.00  0.00    +0.000 A 
ATOM     27  C   UNL     1       7.105   5.064  13.649  0.00  0.00    +0.000 A 
ENDBRANCH  21  22
ENDBRANCH  20  21
ENDBRANCH  19  20
ENDBRANCH   1  15
TORSDOF 6
ENDMDL
MODEL 3
REMARK VINA RESULT:      -7.8      1.358      2.024
REMARK  Name = 
REMARK  6 active torsions:
REMARK  status: ('A' for Active; 'I' for Inactive)
REMARK    1  A    between atoms: C_5  and  C_6
REMARK    2  A    between atoms: C_6  and  C_7
REMARK    3  A    between atoms: C_6  and  N_20
REMARK    4  A    between atoms: N_11  and  C_12
REMARK    5  A    between atoms: C_12  and  C_13
REMARK    6  A    between atoms: C_13  and  C_14
REMARK                            x       y       z     vdW  Elec       q    Type
REMARK                         _______ _______ _______ _____ _____    ______ ____
ROOT
ATOM      1  C   UNL     1       3.329   5.915  17.944  0.00  0.00    +0.000 C 
ENDROOT
BRANCH   1   6
ATOM      2 CL   UNL     1       0.232  10.731  19.964  0.00  0.00    +0.000 Cl
ATOM      3  C   UNL     1       1.197   9.421  19.406  0.00  0.00    +0.000 A 
ATOM      4  C   UNL     1       1.543   8.394  20.280  0.00  0.00    +0.000 A 
ATOM      5  C   UNL     1       2.279   7.299  19.812  0.00  0.00    +0.000 A 
ATOM      6  C   UNL     1       2.675   7.206  18.463  0.00  0.00    +0.000 A 
ATOM      7  C   UNL     1       2.355   8.287  17.615  0.00  0.00    +0.000 A 
ATOM      8  C   UNL     1       1.612   9.379  18.077  0.00  0.00    +0.000 A 
ENDBRANCH   1   6
BRANCH   1   9
ATOM      9  N   UNL     1       2.533   4.653  18.022  0.00  0.00    +0.000 NA
ATOM     10  C   UNL     1       1.812   4.529  19.308  0.00  0.00    +0.000 C 
ATOM     11  C   UNL     1       0.835   3.344  19.415  0.00  0.00    +0.000 C 
ATOM     12  S   UNL     1       1.654   1.747  19.166  0.00  0.00    +0.000 S 
ATOM     13  C   UNL     1       2.431   2.162  17.582  0.00  0.00    +0.000 C 
ATOM     14  C   UNL     1       3.292   3.431  17.688  0.00  0.00    +0.000 C 
ENDBRANCH   1   9
BRANCH   1  15
ATOM     15  C   UNL     1       4.744   5.758  18.457  0.00  0.00    +0.000 A 
ATOM     16  N   UNL     1       5.104   5.416  19.686  0.00  0.00    +0.000 NA
ATOM     17  N   UNL     1       6.466   5.411  19.722  0.00  0.00    +0.000 NA
ATOM     18  N   UNL     1       6.965   5.737  18.544  0.00  0.00    +0.000 NA
ATOM     19  N   UNL     1       5.898   5.988  17.757  0.00  0.00    +0.000 N 
BRANCH  19  20
ATOM     20  C   UNL     1       6.155   6.308  16.370  0.00  0.00    +0.000 C 
BRANCH  20  21
ATOM     21  C   UNL     1       7.218   5.494  15.624  0.00  0.00    +0.000 C 
BRANCH  21  22
ATOM     22  C   UNL     1       6.873   4.810  14.325  0.00  0.00    +0.000 A 
ATOM     23  C   UNL     1       7.651   4.882  13.164  0.00  0.00    +0.000 A 
ATOM     24  C   UNL     1       7.204   4.301  11.972  0.00  0.00    +0.000 A 
ATOM     25  C   UNL     1       5.996   3.611  11.936  0.00  0.00    +0.000 A 
ATOM     26  C   UNL     1       5.250   3.465  13.100  0.00  0.00    +0.000 A 
ATOM     27  C   UNL     1       5.689   4.052  14.286  0.00  0.00    +0.000 A 
ENDBRANCH  21  22
ENDBRANCH  20  21
ENDBRANCH  19  20
ENDBRANCH   1  15
TORSDOF 6
ENDMDL
MODEL 4
REMARK VINA RESULT:      -7.7      1.290      1.821
REMARK  Name = 
REMARK  6 active torsions:
REMARK  status: ('A' for Active; 'I' for Inactive)
REMARK    1  A    between atoms: C_5  and  C_6
REMARK    2  A    between atoms: C_6  and  C_7
REMARK    3  A    between atoms: C_6  and  N_20
REMARK    4  A    between atoms: N_11  and  C_12
REMARK    5  A    between atoms: C_12  and  C_13
REMARK    6  A    between atoms: C_13  and  C_14
REMARK                            x       y       z     vdW  Elec       q    Type
REMARK                         _______ _______ _______ _____ _____    ______ ____
ROOT
ATOM      1  C   UNL     1       3.796   5.767  17.848  0.00  0.00    +0.000 C 
ENDROOT
BRANCH   1   6
ATOM      2 CL   UNL     1       0.284  10.250  19.954  0.00  0.00    +0.000 Cl
ATOM      3  C   UNL     1       1.361   9.039  19.380  0.00  0.00    +0.000 A 
ATOM      4  C   UNL     1       1.724   7.984  20.213  0.00  0.00    +0.000 A 
ATOM      5  C   UNL     1       2.555   6.966  19.728  0.00  0.00    +0.000 A 
ATOM      6  C   UNL     1       3.030   6.981  18.401  0.00  0.00    +0.000 A 
ATOM      7  C   UNL     1       2.689   8.090  17.600  0.00  0.00    +0.000 A 
ATOM      8  C   UNL     1       1.852   9.104  18.079  0.00  0.00    +0.000 A 
ENDBRANCH   1   6
BRANCH   1   9
ATOM      9  N   UNL     1       3.082   4.454  17.812  0.00  0.00    +0.000 NA
ATOM     10  C   UNL     1       1.846   4.471  18.625  0.00  0.00    +0.000 C 
ATOM     11  C   UNL     1       0.958   3.218  18.515  0.00  0.00    +0.000 C 
ATOM     12  S   UNL     1       1.832   1.706  18.999  0.00  0.00    +0.000 S 
ATOM     13  C   UNL     1       3.251   1.930  17.894  0.00  0.00    +0.000 C 
ATOM     14  C   UNL     1       3.935   3.288  18.117  0.00  0.00    +0.000 C 
ENDBRANCH   1   9
BRANCH   1  15
ATOM     15  C   UNL     1       5.189   5.670  18.430  0.00  0.00    +0.000 A 
ATOM     16  N   UNL     1       5.504   5.331  19.672  0.00  0.00    +0.000 NA
ATOM     17  N   UNL     1       6.861   5.389  19.775  0.00  0.00    +0.000 NA
ATOM     18  N   UNL     1       7.402   5.753  18.627  0.00  0.00    +0.000 NA
ATOM     19  N   UNL     1       6.364   5.963  17.791  0.00  0.00    +0.000 N 
BRANCH  19  20
ATOM     20  C   UNL     1       6.674   6.312  16.421  0.00  0.00    +0.000 C 
BRANCH  20  21
ATOM     21  C   UNL     1       7.440   5.293  15.571  0.00  0.00    +0.000 C 
BRANCH  21  22
ATOM     22  C   UNL     1       6.793   4.690  14.349  0.00  0.00    +0.000 A 
ATOM     23  C   UNL     1       5.501   4.154  14.324  0.00  0.00    +0.000 A 
ATOM     24  C   UNL     1       5.018   3.520  13.174  0.00  0.00    +0.000 A 
ATOM     25  C   UNL     1       5.802   3.450  12.026  0.00  0.00    +0.000 A 
ATOM     26  C   UNL     1       7.058   4.047  12.012  0.00  0.00    +0.000 A 
ATOM     27  C   UNL     1       7.545   4.668  13.161  0.00  0.00    +0.000 A 
ENDBRANCH  21  22
ENDBRANCH  20  21
ENDBRANCH  19  20
ENDBRANCH   1  15
TORSDOF 6
ENDMDL
MODEL 5
REMARK VINA RESULT:      -7.7      0.529      1.052
REMARK  Name = 
REMARK  6 active torsions:
REMARK  status: ('A' for Active; 'I' for Inactive)
REMARK    1  A    between atoms: C_5  and  C_6
REMARK    2  A    between atoms: C_6  and  C_7
REMARK    3  A    between atoms: C_6  and  N_20
REMARK    4  A    between atoms: N_11  and  C_12
REMARK    5  A    between atoms: C_12  and  C_13
REMARK    6  A    between atoms: C_13  and  C_14
REMARK                            x       y       z     vdW  Elec       q    Type
REMARK                         _______ _______ _______ _____ _____    ______ ____
ROOT
ATOM      1  C   UNL     1       3.424   6.083  17.577  0.00  0.00    +0.000 C 
ENDROOT
BRANCH   1   6
ATOM      2 CL   UNL     1       0.241  10.504  20.257  0.00  0.00    +0.000 Cl
ATOM      3  C   UNL     1       1.229   9.307  19.518  0.00  0.00    +0.000 A 
ATOM      4  C   UNL     1       1.620   8.185  20.245  0.00  0.00    +0.000 A 
ATOM      5  C   UNL     1       2.376   7.182  19.627  0.00  0.00    +0.000 A 
ATOM      6  C   UNL     1       2.746   7.277  18.270  0.00  0.00    +0.000 A 
ATOM      7  C   UNL     1       2.381   8.448  17.576  0.00  0.00    +0.000 A 
ATOM      8  C   UNL     1       1.618   9.449  18.189  0.00  0.00    +0.000 A 
ENDBRANCH   1   6
BRANCH   1   9
ATOM      9  N   UNL     1       3.257   4.733  18.197  0.00  0.00    +0.000 NA
ATOM     10  C   UNL     1       4.532   4.204  18.729  0.00  0.00    +0.000 C 
ATOM     11  C   UNL     1       4.427   2.895  19.533  0.00  0.00    +0.000 C 
ATOM     12  S   UNL     1       3.712   1.542  18.563  0.00  0.00    +0.000 S 
ATOM     13  C   UNL     1       2.218   2.430  18.048  0.00  0.00    +0.000 C 
ATOM     14  C   UNL     1       2.558   3.752  17.342  0.00  0.00    +0.000 C 
ENDBRANCH   1   9
BRANCH   1  15
ATOM     15  C   UNL     1       4.858   6.392  17.203  0.00  0.00    +0.000 A 
ATOM     16  N   UNL     1       5.678   7.218  17.838  0.00  0.00    +0.000 NA
ATOM     17  N   UNL     1       6.859   7.214  17.159  0.00  0.00    +0.000 NA
ATOM     18  N   UNL     1       6.798   6.404  16.118  0.00  0.00    +0.000 NA
ATOM     19  N   UNL     1       5.542   5.911  16.119  0.00  0.00    +0.000 N 
BRANCH  19  20
ATOM     20  C   UNL     1       5.212   4.929  15.109  0.00  0.00    +0.000 C 
BRANCH  20  21
ATOM     21  C   UNL     1       6.317   4.484  14.144  0.00  0.00    +0.000 C 
BRANCH  21  22
ATOM     22  C   UNL     1       5.982   3.605  12.966  0.00  0.00    +0.000 A 
ATOM     23  C   UNL     1       6.900   2.770  12.318  0.00  0.00    +0.000 A 
ATOM     24  C   UNL     1       6.529   2.065  11.168  0.00  0.00    +0.000 A 
ATOM     25  C   UNL     1       5.231   2.155  10.675  0.00  0.00    +0.000 A 
ATOM     26  C   UNL     1       4.287   2.919  11.352  0.00  0.00    +0.000 A 
ATOM     27  C   UNL     1       4.658   3.631  12.492  0.00  0.00    +0.000 A 
ENDBRANCH  21  22
ENDBRANCH  20  21
ENDBRANCH  19  20
ENDBRANCH   1  15
TORSDOF 6
ENDMDL
MODEL 6
REMARK VINA RESULT:      -7.7      1.440      2.240
REMARK  Name = 
REMARK  6 active torsions:
REMARK  status: ('A' for Active; 'I' for Inactive)
REMARK    1  A    between atoms: C_5  and  C_6
REMARK    2  A    between atoms: C_6  and  C_7
REMARK    3  A    between atoms: C_6  and  N_20
REMARK    4  A    between atoms: N_11  and  C_12
REMARK    5  A    between atoms: C_12  and  C_13
REMARK    6  A    between atoms: C_13  and  C_14
REMARK                            x       y       z     vdW  Elec       q    Type
REMARK                         _______ _______ _______ _____ _____    ______ ____
ROOT
ATOM      1  C   UNL     1       3.896   5.387  18.362  0.00  0.00    +0.000 C 
ENDROOT
BRANCH   1   6
ATOM      2 CL   UNL     1       0.537  10.374  19.205  0.00  0.00    +0.000 Cl
ATOM      3  C   UNL     1       1.572   9.017  18.993  0.00  0.00    +0.000 A 
ATOM      4  C   UNL     1       1.707   8.083  20.017  0.00  0.00    +0.000 A 
ATOM      5  C   UNL     1       2.504   6.948  19.824  0.00  0.00    +0.000 A 
ATOM      6  C   UNL     1       3.172   6.722  18.604  0.00  0.00    +0.000 A 
ATOM      7  C   UNL     1       3.058   7.712  17.606  0.00  0.00    +0.000 A 
ATOM      8  C   UNL     1       2.256   8.844  17.793  0.00  0.00    +0.000 A 
ENDBRANCH   1   6
BRANCH   1   9
ATOM      9  N   UNL     1       3.250   4.143  18.883  0.00  0.00    +0.000 NA
ATOM     10  C   UNL     1       1.998   3.823  18.163  0.00  0.00    +0.000 C 
ATOM     11  C   UNL     1       1.351   2.472  18.518  0.00  0.00    +0.000 C 
ATOM     12  S   UNL     1       0.942   2.341  20.278  0.00  0.00    +0.000 S 
ATOM     13  C   UNL     1       2.590   2.766  20.901  0.00  0.00    +0.000 C 
ATOM     14  C   UNL     1       3.075   4.116  20.349  0.00  0.00    +0.000 C 
ENDBRANCH   1   9
BRANCH   1  15
ATOM     15  C   UNL     1       5.368   5.479  18.700  0.00  0.00    +0.000 A 
ATOM     16  N   UNL     1       5.932   5.173  19.860  0.00  0.00    +0.000 NA
ATOM     17  N   UNL     1       7.266   5.418  19.738  0.00  0.00    +0.000 NA
ATOM     18  N   UNL     1       7.550   5.866  18.528  0.00  0.00    +0.000 NA
ATOM     19  N   UNL     1       6.367   5.938  17.884  0.00  0.00    +0.000 N 
BRANCH  19  20
ATOM     20  C   UNL     1       6.390   6.341  16.495  0.00  0.00    +0.000 C 
BRANCH  20  21
ATOM     21  C   UNL     1       5.505   5.576  15.505  0.00  0.00    +0.000 C 
BRANCH  21  22
ATOM     22  C   UNL     1       6.115   4.945  14.278  0.00  0.00    +0.000 A 
ATOM     23  C   UNL     1       7.346   5.318  13.728  0.00  0.00    +0.000 A 
ATOM     24  C   UNL     1       7.788   4.751  12.528  0.00  0.00    +0.000 A 
ATOM     25  C   UNL     1       7.027   3.778  11.887  0.00  0.00    +0.000 A 
ATOM     26  C   UNL     1       5.840   3.341  12.462  0.00  0.00    +0.000 A 
ATOM     27  C   UNL     1       5.392   3.913  13.652  0.00  0.00    +0.000 A 
ENDBRANCH  21  22
ENDBRANCH  20  21
ENDBRANCH  19  20
ENDBRANCH   1  15
TORSDOF 6
ENDMDL
MODEL 7
REMARK VINA RESULT:      -7.6      0.603      1.158
REMARK  Name = 
REMARK  6 active torsions:
REMARK  status: ('A' for Active; 'I' for Inactive)
REMARK    1  A    between atoms: C_5  and  C_6
REMARK    2  A    between atoms: C_6  and  C_7
REMARK    3  A    between atoms: C_6  and  N_20
REMARK    4  A    between atoms: N_11  and  C_12
REMARK    5  A    between atoms: C_12  and  C_13
REMARK    6  A    between atoms: C_13  and  C_14
REMARK                            x       y       z     vdW  Elec       q    Type
REMARK                         _______ _______ _______ _____ _____    ______ ____
ROOT
ATOM      1  C   UNL     1       3.798   5.586  17.430  0.00  0.00    +0.000 C 
ENDROOT
BRANCH   1   6
ATOM      2 CL   UNL     1       0.629  10.031  20.088  0.00  0.00    +0.000 Cl
ATOM      3  C   UNL     1       1.614   8.823  19.362  0.00  0.00    +0.000 A 
ATOM      4  C   UNL     1       1.923   7.664  20.068  0.00  0.00    +0.000 A 
ATOM      5  C   UNL     1       2.676   6.654  19.457  0.00  0.00    +0.000 A 
ATOM      6  C   UNL     1       3.125   6.780  18.128  0.00  0.00    +0.000 A 
ATOM      7  C   UNL     1       2.842   7.987  17.456  0.00  0.00    +0.000 A 
ATOM      8  C   UNL     1       2.082   8.995  18.062  0.00  0.00    +0.000 A 
ENDBRANCH   1   6
BRANCH   1   9
ATOM      9  N   UNL     1       3.542   4.222  17.986  0.00  0.00    +0.000 NA
ATOM     10  C   UNL     1       2.121   3.830  17.864  0.00  0.00    +0.000 C 
ATOM     11  C   UNL     1       1.793   2.378  18.258  0.00  0.00    +0.000 C 
ATOM     12  S   UNL     1       2.250   2.006  19.972  0.00  0.00    +0.000 S 
ATOM     13  C   UNL     1       3.971   2.562  19.848  0.00  0.00    +0.000 C 
ATOM     14  C   UNL     1       4.064   4.014  19.352  0.00  0.00    +0.000 C 
ENDBRANCH   1   9
BRANCH   1  15
ATOM     15  C   UNL     1       5.263   5.850  17.155  0.00  0.00    +0.000 A 
ATOM     16  N   UNL     1       6.142   6.375  17.997  0.00  0.00    +0.000 NA
ATOM     17  N   UNL     1       7.333   6.453  17.341  0.00  0.00    +0.000 NA
ATOM     18  N   UNL     1       7.220   5.987  16.110  0.00  0.00    +0.000 NA
ATOM     19  N   UNL     1       5.924   5.639  15.974  0.00  0.00    +0.000 N 
BRANCH  19  20
ATOM     20  C   UNL     1       5.527   5.025  14.726  0.00  0.00    +0.000 C 
BRANCH  20  21
ATOM     21  C   UNL     1       6.618   4.709  13.697  0.00  0.00    +0.000 C 
BRANCH  21  22
ATOM     22  C   UNL     1       6.385   3.646  12.651  0.00  0.00    +0.000 A 
ATOM     23  C   UNL     1       5.122   3.188  12.259  0.00  0.00    +0.000 A 
ATOM     24  C   UNL     1       5.001   2.126  11.356  0.00  0.00    +0.000 A 
ATOM     25  C   UNL     1       6.136   1.539  10.805  0.00  0.00    +0.000 A 
ATOM     26  C   UNL     1       7.394   2.035  11.125  0.00  0.00    +0.000 A 
ATOM     27  C   UNL     1       7.517   3.085  12.033  0.00  0.00    +0.000 A 
ENDBRANCH  21  22
ENDBRANCH  20  21
ENDBRANCH  19  20
ENDBRANCH   1  15
TORSDOF 6
ENDMDL
MODEL 8
REMARK VINA RESULT:      -7.5      0.985      1.679
REMARK  Name = 
REMARK  6 active torsions:
REMARK  status: ('A' for Active; 'I' for Inactive)
REMARK    1  A    between atoms: C_5  and  C_6
REMARK    2  A    between atoms: C_6  and  C_7
REMARK    3  A    between atoms: C_6  and  N_20
REMARK    4  A    between atoms: N_11  and  C_12
REMARK    5  A    between atoms: C_12  and  C_13
REMARK    6  A    between atoms: C_13  and  C_14
REMARK                            x       y       z     vdW  Elec       q    Type
REMARK                         _______ _______ _______ _____ _____    ______ ____
ROOT
ATOM      1  C   UNL     1       3.861   6.115  17.510  0.00  0.00    +0.000 C 
ENDROOT
BRANCH   1   6
ATOM      2 CL   UNL     1       0.060   9.996  20.221  0.00  0.00    +0.000 Cl
ATOM      3  C   UNL     1       1.214   8.963  19.475  0.00  0.00    +0.000 A 
ATOM      4  C   UNL     1       1.749   7.893  20.188  0.00  0.00    +0.000 A 
ATOM      5  C   UNL     1       2.645   7.017  19.563  0.00  0.00    +0.000 A 
ATOM      6  C   UNL     1       3.014   7.188  18.214  0.00  0.00    +0.000 A 
ATOM      7  C   UNL     1       2.497   8.310  17.535  0.00  0.00    +0.000 A 
ATOM      8  C   UNL     1       1.595   9.184  18.154  0.00  0.00    +0.000 A 
ENDBRANCH   1   6
BRANCH   1   9
ATOM      9  N   UNL     1       3.714   4.701  17.973  0.00  0.00    +0.000 NA
ATOM     10  C   UNL     1       2.407   4.123  17.592  0.00  0.00    +0.000 C 
ATOM     11  C   UNL     1       2.231   2.622  17.880  0.00  0.00    +0.000 C 
ATOM     12  S   UNL     1       2.439   2.224  19.636  0.00  0.00    +0.000 S 
ATOM     13  C   UNL     1       4.057   3.018  19.832  0.00  0.00    +0.000 C 
ATOM     14  C   UNL     1       4.022   4.493  19.402  0.00  0.00    +0.000 C 
ENDBRANCH   1   9
BRANCH   1  15
ATOM     15  C   UNL     1       5.304   6.545  17.363  0.00  0.00    +0.000 A 
ATOM     16  N   UNL     1       5.786   7.766  17.546  0.00  0.00    +0.000 NA
ATOM     17  N   UNL     1       7.123   7.715  17.294  0.00  0.00    +0.000 NA
ATOM     18  N   UNL     1       7.490   6.491  16.961  0.00  0.00    +0.000 NA
ATOM     19  N   UNL     1       6.355   5.761  16.969  0.00  0.00    +0.000 N 
BRANCH  19  20
ATOM     20  C   UNL     1       6.474   4.344  16.703  0.00  0.00    +0.000 C 
BRANCH  20  21
ATOM     21  C   UNL     1       5.696   3.763  15.517  0.00  0.00    +0.000 C 
BRANCH  21  22
ATOM     22  C   UNL     1       6.187   3.986  14.108  0.00  0.00    +0.000 A 
ATOM     23  C   UNL     1       5.691   3.315  12.985  0.00  0.00    +0.000 A 
ATOM     24  C   UNL     1       6.275   3.507  11.728  0.00  0.00    +0.000 A 
ATOM     25  C   UNL     1       7.332   4.399  11.572  0.00  0.00    +0.000 A 
ATOM     26  C   UNL     1       7.784   5.130  12.665  0.00  0.00    +0.000 A 
ATOM     27  C   UNL     1       7.210   4.931  13.920  0.00  0.00    +0.000 A 
ENDBRANCH  21  22
ENDBRANCH  20  21
ENDBRANCH  19  20
ENDBRANCH   1  15
TORSDOF 6
ENDMDL
MODEL 9
REMARK VINA RESULT:      -7.4      1.484      1.894
REMARK  Name = 
REMARK  6 active torsions:
REMARK  status: ('A' for Active; 'I' for Inactive)
REMARK    1  A    between atoms: C_5  and  C_6
REMARK    2  A    between atoms: C_6  and  C_7
REMARK    3  A    between atoms: C_6  and  N_20
REMARK    4  A    between atoms: N_11  and  C_12
REMARK    5  A    between atoms: C_12  and  C_13
REMARK    6  A    between atoms: C_13  and  C_14
REMARK                            x       y       z     vdW  Elec       q    Type
REMARK                         _______ _______ _______ _____ _____    ______ ____
ROOT
ATOM      1  C   UNL     1       2.837   6.006  18.309  0.00  0.00    +0.000 C 
ENDROOT
BRANCH   1   6
ATOM      2 CL   UNL     1       0.420  11.369  19.809  0.00  0.00    +0.000 Cl
ATOM      3  C   UNL     1       1.198   9.892  19.401  0.00  0.00    +0.000 A 
ATOM      4  C   UNL     1       1.333   8.892  20.360  0.00  0.00    +0.000 A 
ATOM      5  C   UNL     1       1.915   7.666  20.013  0.00  0.00    +0.000 A 
ATOM      6  C   UNL     1       2.363   7.416  18.700  0.00  0.00    +0.000 A 
ATOM      7  C   UNL     1       2.261   8.466  17.766  0.00  0.00    +0.000 A 
ATOM      8  C   UNL     1       1.672   9.689  18.107  0.00  0.00    +0.000 A 
ENDBRANCH   1   6
BRANCH   1   9
ATOM      9  N   UNL     1       2.022   4.844  18.781  0.00  0.00    +0.000 NA
ATOM     10  C   UNL     1       2.069   4.693  20.252  0.00  0.00    +0.000 C 
ATOM     11  C   UNL     1       1.130   3.627  20.844  0.00  0.00    +0.000 C 
ATOM     12  S   UNL     1       1.454   1.973  20.179  0.00  0.00    +0.000 S 
ATOM     13  C   UNL     1       1.341   2.432  18.429  0.00  0.00    +0.000 C 
ATOM     14  C   UNL     1       2.306   3.576  18.080  0.00  0.00    +0.000 C 
ENDBRANCH   1   9
BRANCH   1  15
ATOM     15  C   UNL     1       4.320   5.826  18.546  0.00  0.00    +0.000 A 
ATOM     16  N   UNL     1       4.928   5.749  19.721  0.00  0.00    +0.000 NA
ATOM     17  N   UNL     1       6.261   5.609  19.478  0.00  0.00    +0.000 NA
ATOM     18  N   UNL     1       6.501   5.594  18.179  0.00  0.00    +0.000 NA
ATOM     19  N   UNL     1       5.299   5.762  17.589  0.00  0.00    +0.000 N 
BRANCH  19  20
ATOM     20  C   UNL     1       5.255   5.718  16.144  0.00  0.00    +0.000 C 
BRANCH  20  21
ATOM     21  C   UNL     1       5.378   4.352  15.459  0.00  0.00    +0.000 C 
BRANCH  21  22
ATOM     22  C   UNL     1       5.980   4.251  14.079  0.00  0.00    +0.000 A 
ATOM     23  C   UNL     1       5.491   3.421  13.064  0.00  0.00    +0.000 A 
ATOM     24  C   UNL     1       6.173   3.312  11.847  0.00  0.00    +0.000 A 
ATOM     25  C   UNL     1       7.325   4.057  11.616  0.00  0.00    +0.000 A 
ATOM     26  C   UNL     1       7.779   4.944  12.586  0.00  0.00    +0.000 A 
ATOM     27  C   UNL     1       7.107   5.045  13.803  0.00  0.00    +0.000 A 
ENDBRANCH  21  22
ENDBRANCH  20  21
ENDBRANCH  19  20
ENDBRANCH   1  15
TORSDOF 6
ENDMDL
