MODEL 1
REMARK VINA RESULT:      -6.5      0.000      0.000
REMARK  Name = 
REMARK  1 active torsions:
REMARK  status: ('A' for Active; 'I' for Inactive)
REMARK    1  A    between atoms: C_6  and  C_7
REMARK                            x       y       z     vdW  Elec       q    Type
REMARK                         _______ _______ _______ _____ _____    ______ ____
ROOT
ATOM      1  F   UNL     1       0.114   2.109  18.704  0.00  0.00    +0.000 F 
ATOM      2  C   UNL     1       0.976   3.085  19.017  0.00  0.00    +0.000 A 
ATOM      3  C   UNL     1       0.869   3.723  20.248  0.00  0.00    +0.000 A 
ATOM      4  C   UNL     1       1.777   4.728  20.580  0.00  0.00    +0.000 A 
ATOM      5  C   UNL     1       2.781   5.085  19.678  0.00  0.00    +0.000 A 
ATOM      6  C   UNL     1       2.872   4.445  18.434  0.00  0.00    +0.000 A 
ATOM      7  C   UNL     1       1.963   3.436  18.105  0.00  0.00    +0.000 A 
ENDROOT
BRANCH   6   8
ATOM      8  C   UNL     1       3.962   4.837  17.486  0.00  0.00    +0.000 C 
ATOM      9  N   UNL     1       4.585   3.907  16.844  0.00  0.00    +0.000 NA
ATOM     10  C   UNL     1       5.648   4.230  15.894  0.00  0.00    +0.000 C 
ATOM     11  C   UNL     1       5.572   5.651  15.364  0.00  0.00    +0.000 C 
ATOM     12  C   UNL     1       5.503   6.607  16.537  0.00  0.00    +0.000 C 
ATOM     13  C   UNL     1       4.239   6.322  17.325  0.00  0.00    +0.000 C 
ENDBRANCH   6   8
TORSDOF 1
ENDMDL
MODEL 2
REMARK VINA RESULT:      -6.5      2.247      5.113
REMARK  Name = 
REMARK  1 active torsions:
REMARK  status: ('A' for Active; 'I' for Inactive)
REMARK    1  A    between atoms: C_6  and  C_7
REMARK                            x       y       z     vdW  Elec       q    Type
REMARK                         _______ _______ _______ _____ _____    ______ ____
ROOT
ATOM      1  F   UNL     1       6.047   3.400  14.898  0.00  0.00    +0.000 F 
ATOM      2  C   UNL     1       5.442   4.290  15.696  0.00  0.00    +0.000 A 
ATOM      3  C   UNL     1       5.690   5.647  15.519  0.00  0.00    +0.000 A 
ATOM      4  C   UNL     1       5.048   6.574  16.339  0.00  0.00    +0.000 A 
ATOM      5  C   UNL     1       4.166   6.134  17.329  0.00  0.00    +0.000 A 
ATOM      6  C   UNL     1       3.933   4.764  17.509  0.00  0.00    +0.000 A 
ATOM      7  C   UNL     1       4.575   3.838  16.683  0.00  0.00    +0.000 A 
ENDROOT
BRANCH   6   8
ATOM      8  C   UNL     1       2.977   4.315  18.569  0.00  0.00    +0.000 C 
ATOM      9  N   UNL     1       3.243   4.598  19.799  0.00  0.00    +0.000 NA
ATOM     10  C   UNL     1       2.337   4.198  20.876  0.00  0.00    +0.000 C 
ATOM     11  C   UNL     1       0.916   3.943  20.406  0.00  0.00    +0.000 C 
ATOM     12  C   UNL     1       0.952   2.958  19.255  0.00  0.00    +0.000 C 
ATOM     13  C   UNL     1       1.731   3.575  18.109  0.00  0.00    +0.000 C 
ENDBRANCH   6   8
TORSDOF 1
ENDMDL
MODEL 3
REMARK VINA RESULT:      -6.5      2.221      4.993
REMARK  Name = 
REMARK  1 active torsions:
REMARK  status: ('A' for Active; 'I' for Inactive)
REMARK    1  A    between atoms: C_6  and  C_7
REMARK                            x       y       z     vdW  Elec       q    Type
REMARK                         _______ _______ _______ _____ _____    ______ ____
ROOT
ATOM      1  F   UNL     1       6.076   3.542  15.054  0.00  0.00    +0.000 F 
ATOM      2  C   UNL     1       5.382   4.375  15.842  0.00  0.00    +0.000 A 
ATOM      3  C   UNL     1       5.627   5.742  15.777  0.00  0.00    +0.000 A 
ATOM      4  C   UNL     1       4.894   6.609  16.586  0.00  0.00    +0.000 A 
ATOM      5  C   UNL     1       3.924   6.101  17.451  0.00  0.00    +0.000 A 
ATOM      6  C   UNL     1       3.693   4.719  17.520  0.00  0.00    +0.000 A 
ATOM      7  C   UNL     1       4.427   3.853  16.706  0.00  0.00    +0.000 A 
ENDROOT
BRANCH   6   8
ATOM      8  C   UNL     1       2.642   4.196  18.448  0.00  0.00    +0.000 C 
ATOM      9  N   UNL     1       1.959   3.163  18.087  0.00  0.00    +0.000 NA
ATOM     10  C   UNL     1       0.929   2.599  18.958  0.00  0.00    +0.000 C 
ATOM     11  C   UNL     1       1.112   2.962  20.421  0.00  0.00    +0.000 C 
ATOM     12  C   UNL     1       1.241   4.467  20.539  0.00  0.00    +0.000 C 
ATOM     13  C   UNL     1       2.474   4.912  19.778  0.00  0.00    +0.000 C 
ENDBRANCH   6   8
TORSDOF 1
ENDMDL
MODEL 4
REMARK VINA RESULT:      -6.4      0.864      1.425
REMARK  Name = 
REMARK  1 active torsions:
REMARK  status: ('A' for Active; 'I' for Inactive)
REMARK    1  A    between atoms: C_6  and  C_7
REMARK                            x       y       z     vdW  Elec       q    Type
REMARK                         _______ _______ _______ _____ _____    ______ ____
ROOT
ATOM      1  F   UNL     1       0.185   2.315  19.012  0.00  0.00    +0.000 F 
ATOM      2  C   UNL     1       1.042   3.324  19.216  0.00  0.00    +0.000 A 
ATOM      3  C   UNL     1       0.987   4.037  20.408  0.00  0.00    +0.000 A 
ATOM      4  C   UNL     1       1.890   5.077  20.627  0.00  0.00    +0.000 A 
ATOM      5  C   UNL     1       2.836   5.395  19.651  0.00  0.00    +0.000 A 
ATOM      6  C   UNL     1       2.874   4.679  18.446  0.00  0.00    +0.000 A 
ATOM      7  C   UNL     1       1.971   3.635  18.231  0.00  0.00    +0.000 A 
ENDROOT
BRANCH   6   8
ATOM      8  C   UNL     1       3.903   5.029  17.417  0.00  0.00    +0.000 C 
ATOM      9  N   UNL     1       4.236   6.268  17.275  0.00  0.00    +0.000 NA
ATOM     10  C   UNL     1       5.247   6.668  16.296  0.00  0.00    +0.000 C 
ATOM     11  C   UNL     1       6.183   5.540  15.900  0.00  0.00    +0.000 C 
ATOM     12  C   UNL     1       5.354   4.350  15.457  0.00  0.00    +0.000 C 
ATOM     13  C   UNL     1       4.509   3.882  16.625  0.00  0.00    +0.000 C 
ENDBRANCH   6   8
TORSDOF 1
ENDMDL
MODEL 5
REMARK VINA RESULT:      -6.3      2.814      5.458
REMARK  Name = 
REMARK  1 active torsions:
REMARK  status: ('A' for Active; 'I' for Inactive)
REMARK    1  A    between atoms: C_6  and  C_7
REMARK                            x       y       z     vdW  Elec       q    Type
REMARK                         _______ _______ _______ _____ _____    ______ ____
ROOT
ATOM      1  F   UNL     1       8.026   5.064  18.407  0.00  0.00    +0.000 F 
ATOM      2  C   UNL     1       6.875   4.701  17.826  0.00  0.00    +0.000 A 
ATOM      3  C   UNL     1       6.830   4.525  16.448  0.00  0.00    +0.000 A 
ATOM      4  C   UNL     1       5.636   4.132  15.845  0.00  0.00    +0.000 A 
ATOM      5  C   UNL     1       4.499   3.920  16.627  0.00  0.00    +0.000 A 
ATOM      6  C   UNL     1       4.550   4.112  18.015  0.00  0.00    +0.000 A 
ATOM      7  C   UNL     1       5.750   4.503  18.616  0.00  0.00    +0.000 A 
ENDROOT
BRANCH   6   8
ATOM      8  C   UNL     1       3.323   3.870  18.835  0.00  0.00    +0.000 C 
ATOM      9  N   UNL     1       3.330   4.223  20.076  0.00  0.00    +0.000 NA
ATOM     10  C   UNL     1       2.155   4.025  20.923  0.00  0.00    +0.000 C 
ATOM     11  C   UNL     1       0.861   3.897  20.138  0.00  0.00    +0.000 C 
ATOM     12  C   UNL     1       1.033   2.820  19.086  0.00  0.00    +0.000 C 
ATOM     13  C   UNL     1       2.132   3.242  18.130  0.00  0.00    +0.000 C 
ENDBRANCH   6   8
TORSDOF 1
ENDMDL
MODEL 6
REMARK VINA RESULT:      -6.3      1.202      1.341
REMARK  Name = 
REMARK  1 active torsions:
REMARK  status: ('A' for Active; 'I' for Inactive)
REMARK    1  A    between atoms: C_6  and  C_7
REMARK                            x       y       z     vdW  Elec       q    Type
REMARK                         _______ _______ _______ _____ _____    ______ ____
ROOT
ATOM      1  F   UNL     1       0.455   2.260  18.534  0.00  0.00    +0.000 F 
ATOM      2  C   UNL     1       1.324   3.170  18.993  0.00  0.00    +0.000 A 
ATOM      3  C   UNL     1       1.033   3.865  20.162  0.00  0.00    +0.000 A 
ATOM      4  C   UNL     1       1.945   4.800  20.648  0.00  0.00    +0.000 A 
ATOM      5  C   UNL     1       3.138   5.032  19.961  0.00  0.00    +0.000 A 
ATOM      6  C   UNL     1       3.417   4.336  18.775  0.00  0.00    +0.000 A 
ATOM      7  C   UNL     1       2.502   3.397  18.293  0.00  0.00    +0.000 A 
ENDROOT
BRANCH   6   8
ATOM      8  C   UNL     1       4.705   4.593  18.060  0.00  0.00    +0.000 C 
ATOM      9  N   UNL     1       5.811   4.430  18.704  0.00  0.00    +0.000 NA
ATOM     10  C   UNL     1       7.102   4.651  18.052  0.00  0.00    +0.000 C 
ATOM     11  C   UNL     1       7.038   4.549  16.538  0.00  0.00    +0.000 C 
ATOM     12  C   UNL     1       5.943   5.468  16.032  0.00  0.00    +0.000 C 
ATOM     13  C   UNL     1       4.616   5.003  16.599  0.00  0.00    +0.000 C 
ENDBRANCH   6   8
TORSDOF 1
ENDMDL
MODEL 7
REMARK VINA RESULT:      -6.3      1.111      1.256
REMARK  Name = 
REMARK  1 active torsions:
REMARK  status: ('A' for Active; 'I' for Inactive)
REMARK    1  A    between atoms: C_6  and  C_7
REMARK                            x       y       z     vdW  Elec       q    Type
REMARK                         _______ _______ _______ _____ _____    ______ ____
ROOT
ATOM      1  F   UNL     1       0.290   2.349  18.687  0.00  0.00    +0.000 F 
ATOM      2  C   UNL     1       1.259   3.204  19.042  0.00  0.00    +0.000 A 
ATOM      3  C   UNL     1       1.090   3.998  20.171  0.00  0.00    +0.000 A 
ATOM      4  C   UNL     1       2.105   4.876  20.549  0.00  0.00    +0.000 A 
ATOM      5  C   UNL     1       3.277   4.951  19.795  0.00  0.00    +0.000 A 
ATOM      6  C   UNL     1       3.433   4.155  18.651  0.00  0.00    +0.000 A 
ATOM      7  C   UNL     1       2.416   3.275  18.276  0.00  0.00    +0.000 A 
ENDROOT
BRANCH   6   8
ATOM      8  C   UNL     1       4.702   4.244  17.863  0.00  0.00    +0.000 C 
ATOM      9  N   UNL     1       4.698   3.835  16.639  0.00  0.00    +0.000 NA
ATOM     10  C   UNL     1       5.904   3.911  15.816  0.00  0.00    +0.000 C 
ATOM     11  C   UNL     1       6.908   4.938  16.310  0.00  0.00    +0.000 C 
ATOM     12  C   UNL     1       7.195   4.675  17.774  0.00  0.00    +0.000 C 
ATOM     13  C   UNL     1       5.910   4.845  18.562  0.00  0.00    +0.000 C 
ENDBRANCH   6   8
TORSDOF 1
ENDMDL
MODEL 8
REMARK VINA RESULT:      -6.3      3.067      5.364
REMARK  Name = 
REMARK  1 active torsions:
REMARK  status: ('A' for Active; 'I' for Inactive)
REMARK    1  A    between atoms: C_6  and  C_7
REMARK                            x       y       z     vdW  Elec       q    Type
REMARK                         _______ _______ _______ _____ _____    ______ ____
ROOT
ATOM      1  F   UNL     1       8.418   5.658  19.536  0.00  0.00    +0.000 F 
ATOM      2  C   UNL     1       7.302   5.857  18.824  0.00  0.00    +0.000 A 
ATOM      3  C   UNL     1       7.317   6.758  17.765  0.00  0.00    +0.000 A 
ATOM      4  C   UNL     1       6.159   6.953  17.013  0.00  0.00    +0.000 A 
ATOM      5  C   UNL     1       4.998   6.245  17.329  0.00  0.00    +0.000 A 
ATOM      6  C   UNL     1       4.988   5.349  18.407  0.00  0.00    +0.000 A 
ATOM      7  C   UNL     1       6.151   5.153  19.156  0.00  0.00    +0.000 A 
ENDROOT
BRANCH   6   8
ATOM      8  C   UNL     1       3.735   4.594  18.722  0.00  0.00    +0.000 C 
ATOM      9  N   UNL     1       3.750   3.755  19.702  0.00  0.00    +0.000 NA
ATOM     10  C   UNL     1       2.551   3.000  20.065  0.00  0.00    +0.000 C 
ATOM     11  C   UNL     1       1.263   3.648  19.590  0.00  0.00    +0.000 C 
ATOM     12  C   UNL     1       1.373   3.922  18.104  0.00  0.00    +0.000 C 
ATOM     13  C   UNL     1       2.512   4.895  17.871  0.00  0.00    +0.000 C 
ENDBRANCH   6   8
TORSDOF 1
ENDMDL
MODEL 9
REMARK VINA RESULT:      -6.3      1.291      1.835
REMARK  Name = 
REMARK  1 active torsions:
REMARK  status: ('A' for Active; 'I' for Inactive)
REMARK    1  A    between atoms: C_6  and  C_7
REMARK                            x       y       z     vdW  Elec       q    Type
REMARK                         _______ _______ _______ _____ _____    ______ ____
ROOT
ATOM      1  F   UNL     1       2.258   4.224  21.933  0.00  0.00    +0.000 F 
ATOM      2  C   UNL     1       2.150   3.937  20.629  0.00  0.00    +0.000 A 
ATOM      3  C   UNL     1       1.072   3.182  20.181  0.00  0.00    +0.000 A 
ATOM      4  C   UNL     1       0.952   2.897  18.821  0.00  0.00    +0.000 A 
ATOM      5  C   UNL     1       1.913   3.369  17.924  0.00  0.00    +0.000 A 
ATOM      6  C   UNL     1       3.004   4.117  18.387  0.00  0.00    +0.000 A 
ATOM      7  C   UNL     1       3.119   4.404  19.750  0.00  0.00    +0.000 A 
ENDROOT
BRANCH   6   8
ATOM      8  C   UNL     1       4.016   4.621  17.408  0.00  0.00    +0.000 C 
ATOM      9  N   UNL     1       4.676   3.763  16.705  0.00  0.00    +0.000 NA
ATOM     10  C   UNL     1       5.667   4.198  15.722  0.00  0.00    +0.000 C 
ATOM     11  C   UNL     1       5.461   5.625  15.248  0.00  0.00    +0.000 C 
ATOM     12  C   UNL     1       5.376   6.534  16.458  0.00  0.00    +0.000 C 
ATOM     13  C   UNL     1       4.175   6.128  17.290  0.00  0.00    +0.000 C 
ENDBRANCH   6   8
TORSDOF 1
ENDMDL
