MODEL 1
REMARK VINA RESULT:      -7.3      0.000      0.000
REMARK  Name = 
REMARK  13 active torsions:
REMARK  status: ('A' for Active; 'I' for Inactive)
REMARK    1  A    between atoms: C_2  and  O_3
REMARK    2  A    between atoms: C_2  and  C_4
REMARK    3  A    between atoms: C_4  and  C_5
REMARK    4  A    between atoms: C_4  and  C_12
REMARK    5  A    between atoms: C_5  and  C_6
REMARK    6  A    between atoms: C_12  and  C_13
REMARK    7  A    between atoms: C_13  and  C_14
REMARK    8  A    between atoms: C_13  and  C_21
REMARK    9  A    between atoms: C_14  and  C_15
REMARK   10  A    between atoms: N_23  and  C_24
REMARK   11  A    between atoms: C_24  and  C_25
REMARK   12  A    between atoms: C_25  and  C_26
REMARK   13  A    between atoms: C_26  and  O_27
REMARK                            x       y       z     vdW  Elec       q    Type
REMARK                         _______ _______ _______ _____ _____    ______ ____
ROOT
ATOM      1  C   UNL     1       4.421   5.629  19.299  0.00  0.00    +0.000 C 
ENDROOT
BRANCH   1   2
ATOM      2  C   UNL     1       3.951   4.206  19.659  0.00  0.00    +0.000 C 
ATOM      3  O   UNL     1       4.521   3.197  19.237  0.00  0.00    +0.000 OA
ATOM      4  N   UNL     1       2.856   4.100  20.483  0.00  0.00    +0.000 N 
ATOM      5  H   UNL     1       2.424   4.930  20.867  0.00  0.00    +0.000 HD
BRANCH   4   6
ATOM      6  C   UNL     1       2.275   2.803  20.776  0.00  0.00    +0.000 C 
BRANCH   6   7
ATOM      7  C   UNL     1       0.884   2.612  20.164  0.00  0.00    +0.000 C 
BRANCH   7   8
ATOM      8  C   UNL     1       0.867   2.357  18.660  0.00  0.00    +0.000 C 
BRANCH   8   9
ATOM      9  O   UNL     1       2.074   1.747  18.229  0.00  0.00    +0.000 OA
ATOM     10  H   UNL     1       2.004   0.805  18.506  0.00  0.00    +0.000 HD
ENDBRANCH   8   9
ENDBRANCH   7   8
ENDBRANCH   6   7
ENDBRANCH   4   6
ENDBRANCH   1   2
BRANCH   1  11
ATOM     11  C   UNL     1       5.954   5.525  19.050  0.00  0.00    +0.000 C 
BRANCH  11  12
ATOM     12  C   UNL     1       6.587   5.927  17.705  0.00  0.00    +0.000 C 
BRANCH  12  14
ATOM     13  O   UNL     1       7.775   7.919  16.984  0.00  0.00    +0.000 OA
ATOM     14  C   UNL     1       7.591   7.063  17.828  0.00  0.00    +0.000 C 
BRANCH  14  15
ATOM     15  O   UNL     1       8.359   6.981  18.944  0.00  0.00    +0.000 OA
ATOM     16  H   UNL     1       7.988   7.389  19.748  0.00  0.00    +0.000 HD
ENDBRANCH  14  15
ENDBRANCH  12  14
BRANCH  12  17
ATOM     17  C   UNL     1       7.204   4.680  17.016  0.00  0.00    +0.000 C 
BRANCH  17  18
ATOM     18  C   UNL     1       6.959   4.443  15.540  0.00  0.00    +0.000 A 
ATOM     19  C   UNL     1       5.872   3.669  15.102  0.00  0.00    +0.000 A 
ATOM     20  C   UNL     1       5.552   3.582  13.744  0.00  0.00    +0.000 A 
ATOM     21  C   UNL     1       6.314   4.268  12.801  0.00  0.00    +0.000 A 
ATOM     22  C   UNL     1       7.417   5.010  13.215  0.00  0.00    +0.000 A 
ATOM     23  C   UNL     1       7.746   5.089  14.573  0.00  0.00    +0.000 A 
ENDBRANCH  17  18
ENDBRANCH  12  17
ENDBRANCH  11  12
ENDBRANCH   1  11
BRANCH   1  24
ATOM     24  C   UNL     1       3.564   6.275  18.182  0.00  0.00    +0.000 C 
BRANCH  24  25
ATOM     25  C   UNL     1       2.637   7.407  18.576  0.00  0.00    +0.000 A 
ATOM     26  C   UNL     1       2.312   8.423  17.661  0.00  0.00    +0.000 A 
ATOM     27  C   UNL     1       1.517   9.506  18.046  0.00  0.00    +0.000 A 
ATOM     28  C   UNL     1       1.026   9.585  19.348  0.00  0.00    +0.000 A 
ATOM     29  C   UNL     1       1.298   8.559  20.248  0.00  0.00    +0.000 A 
ATOM     30  C   UNL     1       2.086   7.472  19.862  0.00  0.00    +0.000 A 
ENDBRANCH  24  25
ENDBRANCH   1  24
TORSDOF 13
ENDMDL
MODEL 2
REMARK VINA RESULT:      -7.3      1.969      7.491
REMARK  Name = 
REMARK  13 active torsions:
REMARK  status: ('A' for Active; 'I' for Inactive)
REMARK    1  A    between atoms: C_2  and  O_3
REMARK    2  A    between atoms: C_2  and  C_4
REMARK    3  A    between atoms: C_4  and  C_5
REMARK    4  A    between atoms: C_4  and  C_12
REMARK    5  A    between atoms: C_5  and  C_6
REMARK    6  A    between atoms: C_12  and  C_13
REMARK    7  A    between atoms: C_13  and  C_14
REMARK    8  A    between atoms: C_13  and  C_21
REMARK    9  A    between atoms: C_14  and  C_15
REMARK   10  A    between atoms: N_23  and  C_24
REMARK   11  A    between atoms: C_24  and  C_25
REMARK   12  A    between atoms: C_25  and  C_26
REMARK   13  A    between atoms: C_26  and  O_27
REMARK                            x       y       z     vdW  Elec       q    Type
REMARK                         _______ _______ _______ _____ _____    ______ ____
ROOT
ATOM      1  C   UNL     1       5.786   4.258  16.776  0.00  0.00    +0.000 C 
ENDROOT
BRANCH   1   2
ATOM      2  C   UNL     1       7.018   4.992  17.341  0.00  0.00    +0.000 C 
ATOM      3  O   UNL     1       8.128   4.461  17.406  0.00  0.00    +0.000 OA
ATOM      4  N   UNL     1       6.831   6.283  17.774  0.00  0.00    +0.000 N 
ATOM      5  H   UNL     1       5.930   6.731  17.671  0.00  0.00    +0.000 HD
BRANCH   4   6
ATOM      6  C   UNL     1       7.907   7.005  18.428  0.00  0.00    +0.000 C 
BRANCH   6   7
ATOM      7  C   UNL     1       8.102   8.423  17.881  0.00  0.00    +0.000 C 
BRANCH   7   8
ATOM      8  C   UNL     1       8.852   9.377  18.806  0.00  0.00    +0.000 C 
BRANCH   8   9
ATOM      9  O   UNL     1       9.289  10.532  18.108  0.00  0.00    +0.000 OA
ATOM     10  H   UNL     1       9.125  11.285  18.720  0.00  0.00    +0.000 HD
ENDBRANCH   8   9
ENDBRANCH   7   8
ENDBRANCH   6   7
ENDBRANCH   4   6
ENDBRANCH   1   2
BRANCH   1  11
ATOM     11  C   UNL     1       4.815   4.061  17.978  0.00  0.00    +0.000 C 
BRANCH  11  12
ATOM     12  C   UNL     1       3.573   3.156  17.878  0.00  0.00    +0.000 C 
BRANCH  12  14
ATOM     13  O   UNL     1       2.562   1.378  19.188  0.00  0.00    +0.000 OA
ATOM     14  C   UNL     1       3.530   2.073  18.944  0.00  0.00    +0.000 C 
BRANCH  14  15
ATOM     15  O   UNL     1       4.661   2.013  19.693  0.00  0.00    +0.000 OA
ATOM     16  H   UNL     1       4.825   1.168  20.151  0.00  0.00    +0.000 HD
ENDBRANCH  14  15
ENDBRANCH  12  14
BRANCH  12  17
ATOM     17  C   UNL     1       2.285   4.023  17.878  0.00  0.00    +0.000 C 
BRANCH  17  18
ATOM     18  C   UNL     1       2.263   5.329  18.646  0.00  0.00    +0.000 A 
ATOM     19  C   UNL     1       2.504   6.552  17.999  0.00  0.00    +0.000 A 
ATOM     20  C   UNL     1       2.327   7.767  18.669  0.00  0.00    +0.000 A 
ATOM     21  C   UNL     1       1.905   7.778  19.996  0.00  0.00    +0.000 A 
ATOM     22  C   UNL     1       1.696   6.574  20.663  0.00  0.00    +0.000 A 
ATOM     23  C   UNL     1       1.885   5.356  19.997  0.00  0.00    +0.000 A 
ENDBRANCH  17  18
ENDBRANCH  12  17
ENDBRANCH  11  12
ENDBRANCH   1  11
BRANCH   1  24
ATOM     24  C   UNL     1       5.215   4.940  15.508  0.00  0.00    +0.000 C 
BRANCH  24  25
ATOM     25  C   UNL     1       5.807   4.543  14.171  0.00  0.00    +0.000 A 
ATOM     26  C   UNL     1       5.172   3.590  13.357  0.00  0.00    +0.000 A 
ATOM     27  C   UNL     1       5.755   3.170  12.159  0.00  0.00    +0.000 A 
ATOM     28  C   UNL     1       6.977   3.702  11.751  0.00  0.00    +0.000 A 
ATOM     29  C   UNL     1       7.590   4.684  12.524  0.00  0.00    +0.000 A 
ATOM     30  C   UNL     1       7.003   5.111  13.717  0.00  0.00    +0.000 A 
ENDBRANCH  24  25
ENDBRANCH   1  24
TORSDOF 13
ENDMDL
MODEL 3
REMARK VINA RESULT:      -7.2      2.979      6.817
REMARK  Name = 
REMARK  13 active torsions:
REMARK  status: ('A' for Active; 'I' for Inactive)
REMARK    1  A    between atoms: C_2  and  O_3
REMARK    2  A    between atoms: C_2  and  C_4
REMARK    3  A    between atoms: C_4  and  C_5
REMARK    4  A    between atoms: C_4  and  C_12
REMARK    5  A    between atoms: C_5  and  C_6
REMARK    6  A    between atoms: C_12  and  C_13
REMARK    7  A    between atoms: C_13  and  C_14
REMARK    8  A    between atoms: C_13  and  C_21
REMARK    9  A    between atoms: C_14  and  C_15
REMARK   10  A    between atoms: N_23  and  C_24
REMARK   11  A    between atoms: C_24  and  C_25
REMARK   12  A    between atoms: C_25  and  C_26
REMARK   13  A    between atoms: C_26  and  O_27
REMARK                            x       y       z     vdW  Elec       q    Type
REMARK                         _______ _______ _______ _____ _____    ______ ____
ROOT
ATOM      1  C   UNL     1       5.157   6.554  17.373  0.00  0.00    +0.000 C 
ENDROOT
BRANCH   1   2
ATOM      2  C   UNL     1       5.628   6.303  15.928  0.00  0.00    +0.000 C 
ATOM      3  O   UNL     1       5.099   6.849  14.958  0.00  0.00    +0.000 OA
ATOM      4  N   UNL     1       6.680   5.435  15.756  0.00  0.00    +0.000 N 
ATOM      5  H   UNL     1       7.144   5.029  16.558  0.00  0.00    +0.000 HD
BRANCH   4   6
ATOM      6  C   UNL     1       7.110   5.050  14.424  0.00  0.00    +0.000 C 
BRANCH   6   7
ATOM      7  C   UNL     1       6.318   3.870  13.852  0.00  0.00    +0.000 C 
BRANCH   7   8
ATOM      8  C   UNL     1       6.509   3.624  12.358  0.00  0.00    +0.000 C 
BRANCH   8   9
ATOM      9  O   UNL     1       6.069   2.326  11.990  0.00  0.00    +0.000 OA
ATOM     10  H   UNL     1       5.619   1.967  12.789  0.00  0.00    +0.000 HD
ENDBRANCH   8   9
ENDBRANCH   7   8
ENDBRANCH   6   7
ENDBRANCH   4   6
ENDBRANCH   1   2
BRANCH   1  11
ATOM     11  C   UNL     1       3.622   6.798  17.289  0.00  0.00    +0.000 C 
BRANCH  11  12
ATOM     12  C   UNL     1       2.749   6.922  18.551  0.00  0.00    +0.000 C 
BRANCH  12  14
ATOM     13  O   UNL     1       2.311   9.241  17.974  0.00  0.00    +0.000 OA
ATOM     14  C   UNL     1       2.185   8.319  18.758  0.00  0.00    +0.000 C 
BRANCH  14  15
ATOM     15  O   UNL     1       1.599   8.487  19.971  0.00  0.00    +0.000 OA
ATOM     16  H   UNL     1       0.810   7.941  20.143  0.00  0.00    +0.000 HD
ENDBRANCH  14  15
ENDBRANCH  12  14
BRANCH  12  17
ATOM     17  C   UNL     1       1.633   5.843  18.533  0.00  0.00    +0.000 C 
BRANCH  17  18
ATOM     18  C   UNL     1       1.658   4.724  19.554  0.00  0.00    +0.000 A 
ATOM     19  C   UNL     1       2.315   4.882  20.785  0.00  0.00    +0.000 A 
ATOM     20  C   UNL     1       2.204   3.915  21.788  0.00  0.00    +0.000 A 
ATOM     21  C   UNL     1       1.433   2.774  21.577  0.00  0.00    +0.000 A 
ATOM     22  C   UNL     1       0.805   2.584  20.350  0.00  0.00    +0.000 A 
ATOM     23  C   UNL     1       0.925   3.546  19.339  0.00  0.00    +0.000 A 
ENDBRANCH  17  18
ENDBRANCH  12  17
ENDBRANCH  11  12
ENDBRANCH   1  11
BRANCH   1  24
ATOM     24  C   UNL     1       5.649   5.465  18.358  0.00  0.00    +0.000 C 
BRANCH  24  25
ATOM     25  C   UNL     1       4.925   4.134  18.351  0.00  0.00    +0.000 A 
ATOM     26  C   UNL     1       4.972   3.283  19.468  0.00  0.00    +0.000 A 
ATOM     27  C   UNL     1       4.366   2.024  19.435  0.00  0.00    +0.000 A 
ATOM     28  C   UNL     1       3.695   1.601  18.290  0.00  0.00    +0.000 A 
ATOM     29  C   UNL     1       3.597   2.456  17.196  0.00  0.00    +0.000 A 
ATOM     30  C   UNL     1       4.195   3.717  17.231  0.00  0.00    +0.000 A 
ENDBRANCH  24  25
ENDBRANCH   1  24
TORSDOF 13
ENDMDL
MODEL 4
REMARK VINA RESULT:      -7.2      2.937      7.316
REMARK  Name = 
REMARK  13 active torsions:
REMARK  status: ('A' for Active; 'I' for Inactive)
REMARK    1  A    between atoms: C_2  and  O_3
REMARK    2  A    between atoms: C_2  and  C_4
REMARK    3  A    between atoms: C_4  and  C_5
REMARK    4  A    between atoms: C_4  and  C_12
REMARK    5  A    between atoms: C_5  and  C_6
REMARK    6  A    between atoms: C_12  and  C_13
REMARK    7  A    between atoms: C_13  and  C_14
REMARK    8  A    between atoms: C_13  and  C_21
REMARK    9  A    between atoms: C_14  and  C_15
REMARK   10  A    between atoms: N_23  and  C_24
REMARK   11  A    between atoms: C_24  and  C_25
REMARK   12  A    between atoms: C_25  and  C_26
REMARK   13  A    between atoms: C_26  and  O_27
REMARK                            x       y       z     vdW  Elec       q    Type
REMARK                         _______ _______ _______ _____ _____    ______ ____
ROOT
ATOM      1  C   UNL     1       5.451   6.206  17.638  0.00  0.00    +0.000 C 
ENDROOT
BRANCH   1   2
ATOM      2  C   UNL     1       6.711   6.998  17.238  0.00  0.00    +0.000 C 
ATOM      3  O   UNL     1       7.515   6.579  16.403  0.00  0.00    +0.000 OA
ATOM      4  N   UNL     1       6.907   8.211  17.854  0.00  0.00    +0.000 N 
ATOM      5  H   UNL     1       6.218   8.574  18.500  0.00  0.00    +0.000 HD
BRANCH   4   6
ATOM      6  C   UNL     1       8.126   8.966  17.626  0.00  0.00    +0.000 C 
BRANCH   6   7
ATOM      7  C   UNL     1       8.876   9.307  18.917  0.00  0.00    +0.000 C 
BRANCH   7   8
ATOM      8  C   UNL     1       9.272  10.772  19.070  0.00  0.00    +0.000 C 
BRANCH   8   9
ATOM      9  O   UNL     1       9.328  11.423  17.810  0.00  0.00    +0.000 OA
ATOM     10  H   UNL     1       9.566  12.357  18.009  0.00  0.00    +0.000 HD
ENDBRANCH   8   9
ENDBRANCH   7   8
ENDBRANCH   6   7
ENDBRANCH   4   6
ENDBRANCH   1   2
BRANCH   1  11
ATOM     11  C   UNL     1       4.250   7.173  17.424  0.00  0.00    +0.000 C 
BRANCH  11  12
ATOM     12  C   UNL     1       3.031   7.175  18.366  0.00  0.00    +0.000 C 
BRANCH  12  14
ATOM     13  O   UNL     1       1.535   8.872  19.251  0.00  0.00    +0.000 OA
ATOM     14  C   UNL     1       2.265   8.489  18.357  0.00  0.00    +0.000 C 
BRANCH  14  15
ATOM     15  O   UNL     1       2.387   9.172  17.190  0.00  0.00    +0.000 OA
ATOM     16  H   UNL     1       2.004  10.068  17.178  0.00  0.00    +0.000 HD
ENDBRANCH  14  15
ENDBRANCH  12  14
BRANCH  12  17
ATOM     17  C   UNL     1       2.112   5.965  18.046  0.00  0.00    +0.000 C 
BRANCH  17  18
ATOM     18  C   UNL     1       1.879   4.904  19.101  0.00  0.00    +0.000 A 
ATOM     19  C   UNL     1       2.364   5.064  20.409  0.00  0.00    +0.000 A 
ATOM     20  C   UNL     1       2.014   4.165  21.421  0.00  0.00    +0.000 A 
ATOM     21  C   UNL     1       1.173   3.091  21.142  0.00  0.00    +0.000 A 
ATOM     22  C   UNL     1       0.712   2.897  19.842  0.00  0.00    +0.000 A 
ATOM     23  C   UNL     1       1.071   3.789  18.825  0.00  0.00    +0.000 A 
ENDBRANCH  17  18
ENDBRANCH  12  17
ENDBRANCH  11  12
ENDBRANCH   1  11
BRANCH   1  24
ATOM     24  C   UNL     1       5.375   4.819  16.952  0.00  0.00    +0.000 C 
BRANCH  24  25
ATOM     25  C   UNL     1       4.834   3.662  17.768  0.00  0.00    +0.000 A 
ATOM     26  C   UNL     1       5.140   3.539  19.134  0.00  0.00    +0.000 A 
ATOM     27  C   UNL     1       4.702   2.434  19.868  0.00  0.00    +0.000 A 
ATOM     28  C   UNL     1       3.944   1.440  19.252  0.00  0.00    +0.000 A 
ATOM     29  C   UNL     1       3.590   1.578  17.913  0.00  0.00    +0.000 A 
ATOM     30  C   UNL     1       4.020   2.686  17.180  0.00  0.00    +0.000 A 
ENDBRANCH  24  25
ENDBRANCH   1  24
TORSDOF 13
ENDMDL
MODEL 5
REMARK VINA RESULT:      -7.2      2.739      6.125
REMARK  Name = 
REMARK  13 active torsions:
REMARK  status: ('A' for Active; 'I' for Inactive)
REMARK    1  A    between atoms: C_2  and  O_3
REMARK    2  A    between atoms: C_2  and  C_4
REMARK    3  A    between atoms: C_4  and  C_5
REMARK    4  A    between atoms: C_4  and  C_12
REMARK    5  A    between atoms: C_5  and  C_6
REMARK    6  A    between atoms: C_12  and  C_13
REMARK    7  A    between atoms: C_13  and  C_14
REMARK    8  A    between atoms: C_13  and  C_21
REMARK    9  A    between atoms: C_14  and  C_15
REMARK   10  A    between atoms: N_23  and  C_24
REMARK   11  A    between atoms: C_24  and  C_25
REMARK   12  A    between atoms: C_25  and  C_26
REMARK   13  A    between atoms: C_26  and  O_27
REMARK                            x       y       z     vdW  Elec       q    Type
REMARK                         _______ _______ _______ _____ _____    ______ ____
ROOT
ATOM      1  C   UNL     1       5.718   3.938  16.082  0.00  0.00    +0.000 C 
ENDROOT
BRANCH   1   2
ATOM      2  C   UNL     1       6.525   4.178  14.792  0.00  0.00    +0.000 C 
ATOM      3  O   UNL     1       7.523   4.902  14.764  0.00  0.00    +0.000 OA
ATOM      4  N   UNL     1       6.086   3.544  13.654  0.00  0.00    +0.000 N 
ATOM      5  H   UNL     1       5.298   2.911  13.693  0.00  0.00    +0.000 HD
BRANCH   4   6
ATOM      6  C   UNL     1       6.715   3.808  12.372  0.00  0.00    +0.000 C 
BRANCH   6   7
ATOM      7  C   UNL     1       6.971   2.539  11.553  0.00  0.00    +0.000 C 
BRANCH   7   8
ATOM      8  C   UNL     1       5.769   1.613  11.400  0.00  0.00    +0.000 C 
BRANCH   8   9
ATOM      9  O   UNL     1       6.171   0.253  11.346  0.00  0.00    +0.000 OA
ATOM     10  H   UNL     1       6.448   0.099  10.414  0.00  0.00    +0.000 HD
ENDBRANCH   8   9
ENDBRANCH   7   8
ENDBRANCH   6   7
ENDBRANCH   4   6
ENDBRANCH   1   2
BRANCH   1  11
ATOM     11  C   UNL     1       6.042   5.136  17.022  0.00  0.00    +0.000 C 
BRANCH  11  12
ATOM     12  C   UNL     1       6.473   4.927  18.485  0.00  0.00    +0.000 C 
BRANCH  12  14
ATOM     13  O   UNL     1       7.945   6.853  18.328  0.00  0.00    +0.000 OA
ATOM     14  C   UNL     1       7.608   5.842  18.915  0.00  0.00    +0.000 C 
BRANCH  14  15
ATOM     15  O   UNL     1       8.302   5.370  19.983  0.00  0.00    +0.000 OA
ATOM     16  H   UNL     1       9.007   4.728  19.784  0.00  0.00    +0.000 HD
ENDBRANCH  14  15
ENDBRANCH  12  14
BRANCH  12  17
ATOM     17  C   UNL     1       5.241   5.050  19.423  0.00  0.00    +0.000 C 
BRANCH  17  18
ATOM     18  C   UNL     1       4.184   6.097  19.135  0.00  0.00    +0.000 A 
ATOM     19  C   UNL     1       4.244   6.886  17.976  0.00  0.00    +0.000 A 
ATOM     20  C   UNL     1       3.190   7.736  17.629  0.00  0.00    +0.000 A 
ATOM     21  C   UNL     1       2.057   7.810  18.436  0.00  0.00    +0.000 A 
ATOM     22  C   UNL     1       1.997   7.061  19.608  0.00  0.00    +0.000 A 
ATOM     23  C   UNL     1       3.057   6.218  19.963  0.00  0.00    +0.000 A 
ENDBRANCH  17  18
ENDBRANCH  12  17
ENDBRANCH  11  12
ENDBRANCH   1  11
BRANCH   1  24
ATOM     24  C   UNL     1       4.224   3.639  15.804  0.00  0.00    +0.000 C 
BRANCH  24  25
ATOM     25  C   UNL     1       3.353   3.257  16.984  0.00  0.00    +0.000 A 
ATOM     26  C   UNL     1       3.712   2.193  17.828  0.00  0.00    +0.000 A 
ATOM     27  C   UNL     1       2.873   1.793  18.872  0.00  0.00    +0.000 A 
ATOM     28  C   UNL     1       1.668   2.456  19.094  0.00  0.00    +0.000 A 
ATOM     29  C   UNL     1       1.326   3.545  18.296  0.00  0.00    +0.000 A 
ATOM     30  C   UNL     1       2.168   3.951  17.259  0.00  0.00    +0.000 A 
ENDBRANCH  24  25
ENDBRANCH   1  24
TORSDOF 13
ENDMDL
MODEL 6
REMARK VINA RESULT:      -7.1      2.484      4.456
REMARK  Name = 
REMARK  13 active torsions:
REMARK  status: ('A' for Active; 'I' for Inactive)
REMARK    1  A    between atoms: C_2  and  O_3
REMARK    2  A    between atoms: C_2  and  C_4
REMARK    3  A    between atoms: C_4  and  C_5
REMARK    4  A    between atoms: C_4  and  C_12
REMARK    5  A    between atoms: C_5  and  C_6
REMARK    6  A    between atoms: C_12  and  C_13
REMARK    7  A    between atoms: C_13  and  C_14
REMARK    8  A    between atoms: C_13  and  C_21
REMARK    9  A    between atoms: C_14  and  C_15
REMARK   10  A    between atoms: N_23  and  C_24
REMARK   11  A    between atoms: C_24  and  C_25
REMARK   12  A    between atoms: C_25  and  C_26
REMARK   13  A    between atoms: C_26  and  O_27
REMARK                            x       y       z     vdW  Elec       q    Type
REMARK                         _______ _______ _______ _____ _____    ______ ____
ROOT
ATOM      1  C   UNL     1       3.637   6.499  17.813  0.00  0.00    +0.000 C 
ENDROOT
BRANCH   1   2
ATOM      2  C   UNL     1       2.732   7.720  18.072  0.00  0.00    +0.000 C 
ATOM      3  O   UNL     1       2.535   8.587  17.218  0.00  0.00    +0.000 OA
ATOM      4  N   UNL     1       2.141   7.807  19.310  0.00  0.00    +0.000 N 
ATOM      5  H   UNL     1       2.265   7.067  19.988  0.00  0.00    +0.000 HD
BRANCH   4   6
ATOM      6  C   UNL     1       1.371   8.981  19.679  0.00  0.00    +0.000 C 
BRANCH   6   7
ATOM      7  C   UNL     1       0.522   8.775  20.938  0.00  0.00    +0.000 C 
BRANCH   7   8
ATOM      8  C   UNL     1       1.016   9.510  22.180  0.00  0.00    +0.000 C 
BRANCH   8   9
ATOM      9  O   UNL     1       0.339  10.747  22.348  0.00  0.00    +0.000 OA
ATOM     10  H   UNL     1       0.181  10.829  23.316  0.00  0.00    +0.000 HD
ENDBRANCH   8   9
ENDBRANCH   7   8
ENDBRANCH   6   7
ENDBRANCH   4   6
ENDBRANCH   1   2
BRANCH   1  11
ATOM     11  C   UNL     1       4.956   7.062  17.207  0.00  0.00    +0.000 C 
BRANCH  11  12
ATOM     12  C   UNL     1       6.067   6.135  16.681  0.00  0.00    +0.000 C 
BRANCH  12  14
ATOM     13  O   UNL     1       7.064   4.464  18.134  0.00  0.00    +0.000 OA
ATOM     14  C   UNL     1       6.992   5.624  17.774  0.00  0.00    +0.000 C 
BRANCH  14  15
ATOM     15  O   UNL     1       7.676   6.613  18.403  0.00  0.00    +0.000 OA
ATOM     16  H   UNL     1       8.181   7.216  17.828  0.00  0.00    +0.000 HD
ENDBRANCH  14  15
ENDBRANCH  12  14
BRANCH  12  17
ATOM     17  C   UNL     1       5.444   4.975  15.858  0.00  0.00    +0.000 C 
BRANCH  17  18
ATOM     18  C   UNL     1       6.068   4.578  14.535  0.00  0.00    +0.000 A 
ATOM     19  C   UNL     1       5.417   3.686  13.667  0.00  0.00    +0.000 A 
ATOM     20  C   UNL     1       5.912   3.443  12.382  0.00  0.00    +0.000 A 
ATOM     21  C   UNL     1       7.065   4.089  11.944  0.00  0.00    +0.000 A 
ATOM     22  C   UNL     1       7.743   4.948  12.805  0.00  0.00    +0.000 A 
ATOM     23  C   UNL     1       7.256   5.183  14.096  0.00  0.00    +0.000 A 
ENDBRANCH  17  18
ENDBRANCH  12  17
ENDBRANCH  11  12
ENDBRANCH   1  11
BRANCH   1  24
ATOM     24  C   UNL     1       3.762   5.577  19.051  0.00  0.00    +0.000 C 
BRANCH  24  25
ATOM     25  C   UNL     1       2.663   4.560  19.283  0.00  0.00    +0.000 A 
ATOM     26  C   UNL     1       2.125   4.362  20.566  0.00  0.00    +0.000 A 
ATOM     27  C   UNL     1       1.164   3.373  20.793  0.00  0.00    +0.000 A 
ATOM     28  C   UNL     1       0.718   2.575  19.742  0.00  0.00    +0.000 A 
ATOM     29  C   UNL     1       1.206   2.798  18.457  0.00  0.00    +0.000 A 
ATOM     30  C   UNL     1       2.160   3.791  18.227  0.00  0.00    +0.000 A 
ENDBRANCH  24  25
ENDBRANCH   1  24
TORSDOF 13
ENDMDL
MODEL 7
REMARK VINA RESULT:      -7.1      2.774      6.122
REMARK  Name = 
REMARK  13 active torsions:
REMARK  status: ('A' for Active; 'I' for Inactive)
REMARK    1  A    between atoms: C_2  and  O_3
REMARK    2  A    between atoms: C_2  and  C_4
REMARK    3  A    between atoms: C_4  and  C_5
REMARK    4  A    between atoms: C_4  and  C_12
REMARK    5  A    between atoms: C_5  and  C_6
REMARK    6  A    between atoms: C_12  and  C_13
REMARK    7  A    between atoms: C_13  and  C_14
REMARK    8  A    between atoms: C_13  and  C_21
REMARK    9  A    between atoms: C_14  and  C_15
REMARK   10  A    between atoms: N_23  and  C_24
REMARK   11  A    between atoms: C_24  and  C_25
REMARK   12  A    between atoms: C_25  and  C_26
REMARK   13  A    between atoms: C_26  and  O_27
REMARK                            x       y       z     vdW  Elec       q    Type
REMARK                         _______ _______ _______ _____ _____    ______ ____
ROOT
ATOM      1  C   UNL     1       5.714   3.962  16.011  0.00  0.00    +0.000 C 
ENDROOT
BRANCH   1   2
ATOM      2  C   UNL     1       6.498   4.168  14.700  0.00  0.00    +0.000 C 
ATOM      3  O   UNL     1       7.495   4.890  14.635  0.00  0.00    +0.000 OA
ATOM      4  N   UNL     1       6.038   3.505  13.588  0.00  0.00    +0.000 N 
ATOM      5  H   UNL     1       5.250   2.875  13.658  0.00  0.00    +0.000 HD
BRANCH   4   6
ATOM      6  C   UNL     1       6.643   3.735  12.288  0.00  0.00    +0.000 C 
BRANCH   6   7
ATOM      7  C   UNL     1       6.992   2.440  11.548  0.00  0.00    +0.000 C 
BRANCH   7   8
ATOM      8  C   UNL     1       5.825   1.482  11.333  0.00  0.00    +0.000 C 
BRANCH   8   9
ATOM      9  O   UNL     1       6.261   0.131  11.340  0.00  0.00    +0.000 OA
ATOM     10  H   UNL     1       5.677  -0.329  11.985  0.00  0.00    +0.000 HD
ENDBRANCH   8   9
ENDBRANCH   7   8
ENDBRANCH   6   7
ENDBRANCH   4   6
ENDBRANCH   1   2
BRANCH   1  11
ATOM     11  C   UNL     1       6.218   5.063  16.991  0.00  0.00    +0.000 C 
BRANCH  11  12
ATOM     12  C   UNL     1       6.605   4.739  18.446  0.00  0.00    +0.000 C 
BRANCH  12  14
ATOM     13  O   UNL     1       8.435   5.317  19.934  0.00  0.00    +0.000 OA
ATOM     14  C   UNL     1       7.749   5.593  18.969  0.00  0.00    +0.000 C 
BRANCH  14  15
ATOM     15  O   UNL     1       7.879   6.774  18.312  0.00  0.00    +0.000 OA
ATOM     16  H   UNL     1       7.227   6.946  17.608  0.00  0.00    +0.000 HD
ENDBRANCH  14  15
ENDBRANCH  12  14
BRANCH  12  17
ATOM     17  C   UNL     1       5.351   4.825  19.359  0.00  0.00    +0.000 C 
BRANCH  17  18
ATOM     18  C   UNL     1       4.311   5.896  19.101  0.00  0.00    +0.000 A 
ATOM     19  C   UNL     1       4.395   6.731  17.975  0.00  0.00    +0.000 A 
ATOM     20  C   UNL     1       3.355   7.608  17.651  0.00  0.00    +0.000 A 
ATOM     21  C   UNL     1       2.215   7.665  18.448  0.00  0.00    +0.000 A 
ATOM     22  C   UNL     1       2.132   6.871  19.589  0.00  0.00    +0.000 A 
ATOM     23  C   UNL     1       3.176   6.000  19.921  0.00  0.00    +0.000 A 
ENDBRANCH  17  18
ENDBRANCH  12  17
ENDBRANCH  11  12
ENDBRANCH   1  11
BRANCH   1  24
ATOM     24  C   UNL     1       4.186   3.862  15.783  0.00  0.00    +0.000 C 
BRANCH  24  25
ATOM     25  C   UNL     1       3.342   3.314  16.915  0.00  0.00    +0.000 A 
ATOM     26  C   UNL     1       2.078   3.858  17.200  0.00  0.00    +0.000 A 
ATOM     27  C   UNL     1       1.331   3.402  18.290  0.00  0.00    +0.000 A 
ATOM     28  C   UNL     1       1.831   2.389  19.105  0.00  0.00    +0.000 A 
ATOM     29  C   UNL     1       3.058   1.806  18.801  0.00  0.00    +0.000 A 
ATOM     30  C   UNL     1       3.801   2.255  17.708  0.00  0.00    +0.000 A 
ENDBRANCH  24  25
ENDBRANCH   1  24
TORSDOF 13
ENDMDL
MODEL 8
REMARK VINA RESULT:      -7.1      1.990      7.600
REMARK  Name = 
REMARK  13 active torsions:
REMARK  status: ('A' for Active; 'I' for Inactive)
REMARK    1  A    between atoms: C_2  and  O_3
REMARK    2  A    between atoms: C_2  and  C_4
REMARK    3  A    between atoms: C_4  and  C_5
REMARK    4  A    between atoms: C_4  and  C_12
REMARK    5  A    between atoms: C_5  and  C_6
REMARK    6  A    between atoms: C_12  and  C_13
REMARK    7  A    between atoms: C_13  and  C_14
REMARK    8  A    between atoms: C_13  and  C_21
REMARK    9  A    between atoms: C_14  and  C_15
REMARK   10  A    between atoms: N_23  and  C_24
REMARK   11  A    between atoms: C_24  and  C_25
REMARK   12  A    between atoms: C_25  and  C_26
REMARK   13  A    between atoms: C_26  and  O_27
REMARK                            x       y       z     vdW  Elec       q    Type
REMARK                         _______ _______ _______ _____ _____    ______ ____
ROOT
ATOM      1  C   UNL     1       5.939   4.517  16.687  0.00  0.00    +0.000 C 
ENDROOT
BRANCH   1   2
ATOM      2  C   UNL     1       6.835   5.257  17.698  0.00  0.00    +0.000 C 
ATOM      3  O   UNL     1       7.179   4.751  18.768  0.00  0.00    +0.000 OA
ATOM      4  N   UNL     1       7.247   6.524  17.357  0.00  0.00    +0.000 N 
ATOM      5  H   UNL     1       7.004   6.915  16.456  0.00  0.00    +0.000 HD
BRANCH   4   6
ATOM      6  C   UNL     1       7.992   7.338  18.301  0.00  0.00    +0.000 C 
BRANCH   6   7
ATOM      7  C   UNL     1       8.105   8.805  17.875  0.00  0.00    +0.000 C 
BRANCH   7   8
ATOM      8  C   UNL     1       8.981   9.674  18.772  0.00  0.00    +0.000 C 
BRANCH   8   9
ATOM      9  O   UNL     1       9.248  10.930  18.168  0.00  0.00    +0.000 OA
ATOM     10  H   UNL     1       9.620  11.492  18.886  0.00  0.00    +0.000 HD
ENDBRANCH   8   9
ENDBRANCH   7   8
ENDBRANCH   6   7
ENDBRANCH   4   6
ENDBRANCH   1   2
BRANCH   1  11
ATOM     11  C   UNL     1       4.677   4.067  17.479  0.00  0.00    +0.000 C 
BRANCH  11  12
ATOM     12  C   UNL     1       3.437   4.970  17.611  0.00  0.00    +0.000 C 
BRANCH  12  14
ATOM     13  O   UNL     1       1.145   4.193  17.401  0.00  0.00    +0.000 OA
ATOM     14  C   UNL     1       2.185   4.217  18.032  0.00  0.00    +0.000 C 
BRANCH  14  15
ATOM     15  O   UNL     1       2.294   3.639  19.255  0.00  0.00    +0.000 OA
ATOM     16  H   UNL     1       2.012   4.185  20.012  0.00  0.00    +0.000 HD
ENDBRANCH  14  15
ENDBRANCH  12  14
BRANCH  12  17
ATOM     17  C   UNL     1       3.746   6.158  18.562  0.00  0.00    +0.000 C 
BRANCH  17  18
ATOM     18  C   UNL     1       2.718   7.257  18.745  0.00  0.00    +0.000 A 
ATOM     19  C   UNL     1       2.065   7.439  19.974  0.00  0.00    +0.000 A 
ATOM     20  C   UNL     1       1.239   8.546  20.193  0.00  0.00    +0.000 A 
ATOM     21  C   UNL     1       1.053   9.489  19.185  0.00  0.00    +0.000 A 
ATOM     22  C   UNL     1       1.665   9.305  17.948  0.00  0.00    +0.000 A 
ATOM     23  C   UNL     1       2.483   8.191  17.724  0.00  0.00    +0.000 A 
ENDBRANCH  17  18
ENDBRANCH  12  17
ENDBRANCH  11  12
ENDBRANCH   1  11
BRANCH   1  24
ATOM     24  C   UNL     1       5.709   5.329  15.388  0.00  0.00    +0.000 C 
BRANCH  24  25
ATOM     25  C   UNL     1       6.168   4.711  14.083  0.00  0.00    +0.000 A 
ATOM     26  C   UNL     1       7.336   5.163  13.444  0.00  0.00    +0.000 A 
ATOM     27  C   UNL     1       7.719   4.644  12.205  0.00  0.00    +0.000 A 
ATOM     28  C   UNL     1       6.949   3.659  11.590  0.00  0.00    +0.000 A 
ATOM     29  C   UNL     1       5.819   3.167  12.237  0.00  0.00    +0.000 A 
ATOM     30  C   UNL     1       5.440   3.679  13.480  0.00  0.00    +0.000 A 
ENDBRANCH  24  25
ENDBRANCH   1  24
TORSDOF 13
ENDMDL
MODEL 9
REMARK VINA RESULT:      -7.0      2.189      5.294
REMARK  Name = 
REMARK  13 active torsions:
REMARK  status: ('A' for Active; 'I' for Inactive)
REMARK    1  A    between atoms: C_2  and  O_3
REMARK    2  A    between atoms: C_2  and  C_4
REMARK    3  A    between atoms: C_4  and  C_5
REMARK    4  A    between atoms: C_4  and  C_12
REMARK    5  A    between atoms: C_5  and  C_6
REMARK    6  A    between atoms: C_12  and  C_13
REMARK    7  A    between atoms: C_13  and  C_14
REMARK    8  A    between atoms: C_13  and  C_21
REMARK    9  A    between atoms: C_14  and  C_15
REMARK   10  A    between atoms: N_23  and  C_24
REMARK   11  A    between atoms: C_24  and  C_25
REMARK   12  A    between atoms: C_25  and  C_26
REMARK   13  A    between atoms: C_26  and  O_27
REMARK                            x       y       z     vdW  Elec       q    Type
REMARK                         _______ _______ _______ _____ _____    ______ ____
ROOT
ATOM      1  C   UNL     1       4.017   6.167  17.309  0.00  0.00    +0.000 C 
ENDROOT
BRANCH   1   2
ATOM      2  C   UNL     1       5.094   6.039  16.215  0.00  0.00    +0.000 C 
ATOM      3  O   UNL     1       5.870   6.957  15.943  0.00  0.00    +0.000 OA
ATOM      4  N   UNL     1       5.160   4.842  15.542  0.00  0.00    +0.000 N 
ATOM      5  H   UNL     1       4.555   4.075  15.803  0.00  0.00    +0.000 HD
BRANCH   4   6
ATOM      6  C   UNL     1       6.063   4.676  14.417  0.00  0.00    +0.000 C 
BRANCH   6   7
ATOM      7  C   UNL     1       5.514   3.740  13.336  0.00  0.00    +0.000 C 
BRANCH   7   8
ATOM      8  C   UNL     1       6.480   3.430  12.196  0.00  0.00    +0.000 C 
BRANCH   8   9
ATOM      9  O   UNL     1       7.378   4.506  11.976  0.00  0.00    +0.000 OA
ATOM     10  H   UNL     1       7.707   4.758  12.869  0.00  0.00    +0.000 HD
ENDBRANCH   8   9
ENDBRANCH   7   8
ENDBRANCH   6   7
ENDBRANCH   4   6
ENDBRANCH   1   2
BRANCH   1  11
ATOM     11  C   UNL     1       4.695   5.713  18.635  0.00  0.00    +0.000 C 
BRANCH  11  12
ATOM     12  C   UNL     1       5.556   4.438  18.711  0.00  0.00    +0.000 C 
BRANCH  12  14
ATOM     13  O   UNL     1       7.386   5.326  20.037  0.00  0.00    +0.000 OA
ATOM     14  C   UNL     1       7.011   4.713  19.056  0.00  0.00    +0.000 C 
BRANCH  14  15
ATOM     15  O   UNL     1       7.877   4.295  18.098  0.00  0.00    +0.000 OA
ATOM     16  H   UNL     1       7.500   4.164  17.209  0.00  0.00    +0.000 HD
ENDBRANCH  14  15
ENDBRANCH  12  14
BRANCH  12  17
ATOM     17  C   UNL     1       4.910   3.421  19.690  0.00  0.00    +0.000 C 
BRANCH  17  18
ATOM     18  C   UNL     1       3.405   3.240  19.695  0.00  0.00    +0.000 A 
ATOM     19  C   UNL     1       2.641   3.563  20.828  0.00  0.00    +0.000 A 
ATOM     20  C   UNL     1       1.244   3.549  20.781  0.00  0.00    +0.000 A 
ATOM     21  C   UNL     1       0.588   3.211  19.600  0.00  0.00    +0.000 A 
ATOM     22  C   UNL     1       1.330   2.853  18.478  0.00  0.00    +0.000 A 
ATOM     23  C   UNL     1       2.729   2.855  18.527  0.00  0.00    +0.000 A 
ENDBRANCH  17  18
ENDBRANCH  12  17
ENDBRANCH  11  12
ENDBRANCH   1  11
BRANCH   1  24
ATOM     24  C   UNL     1       3.325   7.553  17.305  0.00  0.00    +0.000 C 
BRANCH  24  25
ATOM     25  C   UNL     1       2.438   7.897  18.484  0.00  0.00    +0.000 A 
ATOM     26  C   UNL     1       1.726   9.108  18.520  0.00  0.00    +0.000 A 
ATOM     27  C   UNL     1       0.966   9.459  19.639  0.00  0.00    +0.000 A 
ATOM     28  C   UNL     1       0.897   8.601  20.735  0.00  0.00    +0.000 A 
ATOM     29  C   UNL     1       1.555   7.376  20.689  0.00  0.00    +0.000 A 
ATOM     30  C   UNL     1       2.308   7.021  19.568  0.00  0.00    +0.000 A 
ENDBRANCH  24  25
ENDBRANCH   1  24
TORSDOF 13
ENDMDL
