MODEL 1
REMARK VINA RESULT:      -6.8      0.000      0.000
REMARK  Name = 
REMARK  9 active torsions:
REMARK  status: ('A' for Active; 'I' for Inactive)
REMARK    1  A    between atoms: C_1  and  C_2
REMARK    2  A    between atoms: C_2  and  C_3
REMARK    3  A    between atoms: C_2  and  N_9
REMARK    4  A    between atoms: N_9  and  C_10
REMARK    5  A    between atoms: N_9  and  C_11
REMARK    6  A    between atoms: C_11  and  C_12
REMARK    7  A    between atoms: N_14  and  C_15
REMARK    8  A    between atoms: C_15  and  C_16
REMARK    9  A    between atoms: C_16  and  C_17
REMARK                            x       y       z     vdW  Elec       q    Type
REMARK                         _______ _______ _______ _____ _____    ______ ____
ROOT
ATOM      1  N   UNL     1       5.553   4.840  16.776  0.00  0.00    +0.000 NA
ATOM      2  C   UNL     1       5.426   6.301  16.698  0.00  0.00    +0.000 C 
ENDROOT
BRANCH   1   4
ATOM      3  C   UNL     1       5.555   5.365  19.252  0.00  0.00    +0.000 C 
ATOM      4  C   UNL     1       5.294   4.323  18.144  0.00  0.00    +0.000 C 
BRANCH   4   5
ATOM      5  C   UNL     1       3.869   3.802  18.344  0.00  0.00    +0.000 A 
ATOM      6  C   UNL     1       3.621   2.532  18.891  0.00  0.00    +0.000 A 
ATOM      7  C   UNL     1       2.324   2.015  18.923  0.00  0.00    +0.000 A 
ATOM      8  C   UNL     1       1.259   2.767  18.432  0.00  0.00    +0.000 A 
ATOM      9  C   UNL     1       1.484   4.047  17.929  0.00  0.00    +0.000 A 
ATOM     10  C   UNL     1       2.781   4.563  17.889  0.00  0.00    +0.000 A 
ENDBRANCH   4   5
ENDBRANCH   1   4
BRANCH   1  11
ATOM     11  C   UNL     1       6.868   4.421  16.224  0.00  0.00    +0.000 C 
BRANCH  11  12
ATOM     12  C   UNL     1       7.029   4.587  14.700  0.00  0.00    +0.000 C 
ATOM     13  O   UNL     1       7.676   5.470  14.147  0.00  0.00    +0.000 OA
ATOM     14  N   UNL     1       6.367   3.631  13.951  0.00  0.00    +0.000 N 
ATOM     15  H   UNL     1       5.843   2.898  14.413  0.00  0.00    +0.000 HD
BRANCH  14  16
ATOM     16  C   UNL     1       6.428   3.673  12.496  0.00  0.00    +0.000 C 
BRANCH  16  17
ATOM     17  C   UNL     1       5.325   2.845  11.840  0.00  0.00    +0.000 C 
BRANCH  17  18
ATOM     18  C   UNL     1       5.862   1.581  11.338  0.00  0.00    +0.000 C 
ATOM     19  N   UNL     1       6.278   0.574  10.943  0.00  0.00    +0.000 NA
ENDBRANCH  17  18
ENDBRANCH  16  17
ENDBRANCH  14  16
ENDBRANCH  11  12
ENDBRANCH   1  11
TORSDOF 7
ENDMDL
MODEL 2
REMARK VINA RESULT:      -6.8      1.130      1.201
REMARK  Name = 
REMARK  9 active torsions:
REMARK  status: ('A' for Active; 'I' for Inactive)
REMARK    1  A    between atoms: C_1  and  C_2
REMARK    2  A    between atoms: C_2  and  C_3
REMARK    3  A    between atoms: C_2  and  N_9
REMARK    4  A    between atoms: N_9  and  C_10
REMARK    5  A    between atoms: N_9  and  C_11
REMARK    6  A    between atoms: C_11  and  C_12
REMARK    7  A    between atoms: N_14  and  C_15
REMARK    8  A    between atoms: C_15  and  C_16
REMARK    9  A    between atoms: C_16  and  C_17
REMARK                            x       y       z     vdW  Elec       q    Type
REMARK                         _______ _______ _______ _____ _____    ______ ____
ROOT
ATOM      1  N   UNL     1       5.511   4.795  16.748  0.00  0.00    +0.000 NA
ATOM      2  C   UNL     1       5.250   6.234  16.618  0.00  0.00    +0.000 C 
ENDROOT
BRANCH   1   4
ATOM      3  C   UNL     1       5.568   5.375  19.211  0.00  0.00    +0.000 C 
ATOM      4  C   UNL     1       5.294   4.305  18.134  0.00  0.00    +0.000 C 
BRANCH   4   5
ATOM      5  C   UNL     1       3.882   3.768  18.381  0.00  0.00    +0.000 A 
ATOM      6  C   UNL     1       3.466   2.531  17.863  0.00  0.00    +0.000 A 
ATOM      7  C   UNL     1       2.132   2.131  17.969  0.00  0.00    +0.000 A 
ATOM      8  C   UNL     1       1.206   2.948  18.613  0.00  0.00    +0.000 A 
ATOM      9  C   UNL     1       1.615   4.157  19.172  0.00  0.00    +0.000 A 
ATOM     10  C   UNL     1       2.946   4.563  19.061  0.00  0.00    +0.000 A 
ENDBRANCH   4   5
ENDBRANCH   1   4
BRANCH   1  11
ATOM     11  C   UNL     1       6.862   4.480  16.214  0.00  0.00    +0.000 C 
BRANCH  11  12
ATOM     12  C   UNL     1       7.017   4.617  14.686  0.00  0.00    +0.000 C 
ATOM     13  O   UNL     1       7.673   5.482  14.115  0.00  0.00    +0.000 OA
ATOM     14  N   UNL     1       6.339   3.657  13.957  0.00  0.00    +0.000 N 
ATOM     15  H   UNL     1       5.807   2.940  14.435  0.00  0.00    +0.000 HD
BRANCH  14  16
ATOM     16  C   UNL     1       6.393   3.674  12.502  0.00  0.00    +0.000 C 
BRANCH  16  17
ATOM     17  C   UNL     1       5.600   2.529  11.874  0.00  0.00    +0.000 C 
BRANCH  17  18
ATOM     18  C   UNL     1       4.397   3.039  11.215  0.00  0.00    +0.000 C 
ATOM     19  N   UNL     1       3.439   3.444  10.704  0.00  0.00    +0.000 NA
ENDBRANCH  17  18
ENDBRANCH  16  17
ENDBRANCH  14  16
ENDBRANCH  11  12
ENDBRANCH   1  11
TORSDOF 7
ENDMDL
MODEL 3
REMARK VINA RESULT:      -6.7      3.069      4.052
REMARK  Name = 
REMARK  9 active torsions:
REMARK  status: ('A' for Active; 'I' for Inactive)
REMARK    1  A    between atoms: C_1  and  C_2
REMARK    2  A    between atoms: C_2  and  C_3
REMARK    3  A    between atoms: C_2  and  N_9
REMARK    4  A    between atoms: N_9  and  C_10
REMARK    5  A    between atoms: N_9  and  C_11
REMARK    6  A    between atoms: C_11  and  C_12
REMARK    7  A    between atoms: N_14  and  C_15
REMARK    8  A    between atoms: C_15  and  C_16
REMARK    9  A    between atoms: C_16  and  C_17
REMARK                            x       y       z     vdW  Elec       q    Type
REMARK                         _______ _______ _______ _____ _____    ______ ____
ROOT
ATOM      1  N   UNL     1       2.827   7.192  18.002  0.00  0.00    +0.000 NA
ATOM      2  C   UNL     1       2.041   8.415  17.794  0.00  0.00    +0.000 C 
ENDROOT
BRANCH   1   4
ATOM      3  C   UNL     1       1.848   7.559  20.307  0.00  0.00    +0.000 C 
ATOM      4  C   UNL     1       2.655   6.637  19.369  0.00  0.00    +0.000 C 
BRANCH   4   5
ATOM      5  C   UNL     1       1.978   5.265  19.394  0.00  0.00    +0.000 A 
ATOM      6  C   UNL     1       1.581   4.663  20.599  0.00  0.00    +0.000 A 
ATOM      7  C   UNL     1       1.106   3.350  20.613  0.00  0.00    +0.000 A 
ATOM      8  C   UNL     1       0.998   2.633  19.423  0.00  0.00    +0.000 A 
ATOM      9  C   UNL     1       1.344   3.233  18.214  0.00  0.00    +0.000 A 
ATOM     10  C   UNL     1       1.827   4.544  18.199  0.00  0.00    +0.000 A 
ENDBRANCH   4   5
ENDBRANCH   1   4
BRANCH   1  11
ATOM     11  C   UNL     1       4.247   7.440  17.638  0.00  0.00    +0.000 C 
BRANCH  11  12
ATOM     12  C   UNL     1       4.790   6.584  16.476  0.00  0.00    +0.000 C 
ATOM     13  O   UNL     1       5.070   7.002  15.358  0.00  0.00    +0.000 OA
ATOM     14  N   UNL     1       4.955   5.246  16.784  0.00  0.00    +0.000 N 
ATOM     15  H   UNL     1       4.732   4.908  17.713  0.00  0.00    +0.000 HD
BRANCH  14  16
ATOM     16  C   UNL     1       5.454   4.321  15.775  0.00  0.00    +0.000 C 
BRANCH  16  17
ATOM     17  C   UNL     1       6.972   4.163  15.827  0.00  0.00    +0.000 C 
BRANCH  17  18
ATOM     18  C   UNL     1       7.471   4.433  17.175  0.00  0.00    +0.000 C 
ATOM     19  N   UNL     1       7.856   4.648  18.247  0.00  0.00    +0.000 NA
ENDBRANCH  17  18
ENDBRANCH  16  17
ENDBRANCH  14  16
ENDBRANCH  11  12
ENDBRANCH   1  11
TORSDOF 7
ENDMDL
MODEL 4
REMARK VINA RESULT:      -6.6      0.796      1.027
REMARK  Name = 
REMARK  9 active torsions:
REMARK  status: ('A' for Active; 'I' for Inactive)
REMARK    1  A    between atoms: C_1  and  C_2
REMARK    2  A    between atoms: C_2  and  C_3
REMARK    3  A    between atoms: C_2  and  N_9
REMARK    4  A    between atoms: N_9  and  C_10
REMARK    5  A    between atoms: N_9  and  C_11
REMARK    6  A    between atoms: C_11  and  C_12
REMARK    7  A    between atoms: N_14  and  C_15
REMARK    8  A    between atoms: C_15  and  C_16
REMARK    9  A    between atoms: C_16  and  C_17
REMARK                            x       y       z     vdW  Elec       q    Type
REMARK                         _______ _______ _______ _____ _____    ______ ____
ROOT
ATOM      1  N   UNL     1       5.206   4.664  16.841  0.00  0.00    +0.000 NA
ATOM      2  C   UNL     1       4.929   6.096  16.673  0.00  0.00    +0.000 C 
ENDROOT
BRANCH   1   4
ATOM      3  C   UNL     1       5.475   5.250  19.289  0.00  0.00    +0.000 C 
ATOM      4  C   UNL     1       5.014   4.213  18.244  0.00  0.00    +0.000 C 
BRANCH   4   5
ATOM      5  C   UNL     1       3.566   3.850  18.579  0.00  0.00    +0.000 A 
ATOM      6  C   UNL     1       2.875   4.476  19.629  0.00  0.00    +0.000 A 
ATOM      7  C   UNL     1       1.612   4.025  20.016  0.00  0.00    +0.000 A 
ATOM      8  C   UNL     1       1.013   2.961  19.344  0.00  0.00    +0.000 A 
ATOM      9  C   UNL     1       1.666   2.361  18.270  0.00  0.00    +0.000 A 
ATOM     10  C   UNL     1       2.934   2.805  17.886  0.00  0.00    +0.000 A 
ENDBRANCH   4   5
ENDBRANCH   1   4
BRANCH   1  11
ATOM     11  C   UNL     1       6.553   4.346  16.297  0.00  0.00    +0.000 C 
BRANCH  11  12
ATOM     12  C   UNL     1       6.727   4.586  14.784  0.00  0.00    +0.000 C 
ATOM     13  O   UNL     1       7.125   5.627  14.272  0.00  0.00    +0.000 OA
ATOM     14  N   UNL     1       6.391   3.501  13.993  0.00  0.00    +0.000 N 
ATOM     15  H   UNL     1       6.073   2.641  14.423  0.00  0.00    +0.000 HD
BRANCH  14  16
ATOM     16  C   UNL     1       6.502   3.593  12.544  0.00  0.00    +0.000 C 
BRANCH  16  17
ATOM     17  C   UNL     1       5.372   2.860  11.823  0.00  0.00    +0.000 C 
BRANCH  17  18
ATOM     18  C   UNL     1       5.831   1.556  11.343  0.00  0.00    +0.000 C 
ATOM     19  N   UNL     1       6.202   0.529  10.954  0.00  0.00    +0.000 NA
ENDBRANCH  17  18
ENDBRANCH  16  17
ENDBRANCH  14  16
ENDBRANCH  11  12
ENDBRANCH   1  11
TORSDOF 7
ENDMDL
MODEL 5
REMARK VINA RESULT:      -6.5      1.238      1.549
REMARK  Name = 
REMARK  9 active torsions:
REMARK  status: ('A' for Active; 'I' for Inactive)
REMARK    1  A    between atoms: C_1  and  C_2
REMARK    2  A    between atoms: C_2  and  C_3
REMARK    3  A    between atoms: C_2  and  N_9
REMARK    4  A    between atoms: N_9  and  C_10
REMARK    5  A    between atoms: N_9  and  C_11
REMARK    6  A    between atoms: C_11  and  C_12
REMARK    7  A    between atoms: N_14  and  C_15
REMARK    8  A    between atoms: C_15  and  C_16
REMARK    9  A    between atoms: C_16  and  C_17
REMARK                            x       y       z     vdW  Elec       q    Type
REMARK                         _______ _______ _______ _____ _____    ______ ____
ROOT
ATOM      1  N   UNL     1       5.291   4.890  16.778  0.00  0.00    +0.000 NA
ATOM      2  C   UNL     1       5.042   6.327  16.602  0.00  0.00    +0.000 C 
ENDROOT
BRANCH   1   4
ATOM      3  C   UNL     1       5.353   5.516  19.229  0.00  0.00    +0.000 C 
ATOM      4  C   UNL     1       5.037   4.439  18.170  0.00  0.00    +0.000 C 
BRANCH   4   5
ATOM      5  C   UNL     1       3.599   3.977  18.413  0.00  0.00    +0.000 A 
ATOM      6  C   UNL     1       2.719   4.711  19.226  0.00  0.00    +0.000 A 
ATOM      7  C   UNL     1       1.464   4.196  19.558  0.00  0.00    +0.000 A 
ATOM      8  C   UNL     1       1.064   2.956  19.064  0.00  0.00    +0.000 A 
ATOM      9  C   UNL     1       1.908   2.238  18.219  0.00  0.00    +0.000 A 
ATOM     10  C   UNL     1       3.167   2.747  17.892  0.00  0.00    +0.000 A 
ENDBRANCH   4   5
ENDBRANCH   1   4
BRANCH   1  11
ATOM     11  C   UNL     1       6.653   4.553  16.285  0.00  0.00    +0.000 C 
BRANCH  11  12
ATOM     12  C   UNL     1       6.839   4.622  14.757  0.00  0.00    +0.000 C 
ATOM     13  O   UNL     1       7.590   5.392  14.167  0.00  0.00    +0.000 OA
ATOM     14  N   UNL     1       6.070   3.716  14.049  0.00  0.00    +0.000 N 
ATOM     15  H   UNL     1       5.459   3.075  14.542  0.00  0.00    +0.000 HD
BRANCH  14  16
ATOM     16  C   UNL     1       6.141   3.678  12.595  0.00  0.00    +0.000 C 
BRANCH  16  17
ATOM     17  C   UNL     1       5.223   2.617  11.991  0.00  0.00    +0.000 C 
BRANCH  17  18
ATOM     18  C   UNL     1       4.262   3.231  11.075  0.00  0.00    +0.000 C 
ATOM     19  N   UNL     1       3.502   3.710  10.342  0.00  0.00    +0.000 NA
ENDBRANCH  17  18
ENDBRANCH  16  17
ENDBRANCH  14  16
ENDBRANCH  11  12
ENDBRANCH   1  11
TORSDOF 7
ENDMDL
MODEL 6
REMARK VINA RESULT:      -6.5      3.096      6.011
REMARK  Name = 
REMARK  9 active torsions:
REMARK  status: ('A' for Active; 'I' for Inactive)
REMARK    1  A    between atoms: C_1  and  C_2
REMARK    2  A    between atoms: C_2  and  C_3
REMARK    3  A    between atoms: C_2  and  N_9
REMARK    4  A    between atoms: N_9  and  C_10
REMARK    5  A    between atoms: N_9  and  C_11
REMARK    6  A    between atoms: C_11  and  C_12
REMARK    7  A    between atoms: N_14  and  C_15
REMARK    8  A    between atoms: C_15  and  C_16
REMARK    9  A    between atoms: C_16  and  C_17
REMARK                            x       y       z     vdW  Elec       q    Type
REMARK                         _______ _______ _______ _____ _____    ______ ____
ROOT
ATOM      1  N   UNL     1       4.866   4.266  16.571  0.00  0.00    +0.000 NA
ATOM      2  C   UNL     1       5.904   3.985  15.571  0.00  0.00    +0.000 C 
ENDROOT
BRANCH   1   4
ATOM      3  C   UNL     1       6.558   6.026  17.239  0.00  0.00    +0.000 C 
ATOM      4  C   UNL     1       5.353   5.158  17.655  0.00  0.00    +0.000 C 
BRANCH   4   5
ATOM      5  C   UNL     1       4.281   6.106  18.197  0.00  0.00    +0.000 A 
ATOM      6  C   UNL     1       3.605   5.841  19.399  0.00  0.00    +0.000 A 
ATOM      7  C   UNL     1       2.527   6.635  19.796  0.00  0.00    +0.000 A 
ATOM      8  C   UNL     1       2.128   7.716  19.012  0.00  0.00    +0.000 A 
ATOM      9  C   UNL     1       2.819   8.018  17.841  0.00  0.00    +0.000 A 
ATOM     10  C   UNL     1       3.892   7.221  17.437  0.00  0.00    +0.000 A 
ENDBRANCH   4   5
ENDBRANCH   1   4
BRANCH   1  11
ATOM     11  C   UNL     1       4.291   2.988  17.070  0.00  0.00    +0.000 C 
BRANCH  11  12
ATOM     12  C   UNL     1       2.799   3.039  17.451  0.00  0.00    +0.000 C 
ATOM     13  O   UNL     1       1.942   3.702  16.875  0.00  0.00    +0.000 OA
ATOM     14  N   UNL     1       2.461   2.251  18.536  0.00  0.00    +0.000 N 
ATOM     15  H   UNL     1       3.171   1.697  19.001  0.00  0.00    +0.000 HD
BRANCH  14  16
ATOM     16  C   UNL     1       1.084   2.211  19.009  0.00  0.00    +0.000 C 
BRANCH  16  17
ATOM     17  C   UNL     1       0.794   3.282  20.059  0.00  0.00    +0.000 C 
BRANCH  17  18
ATOM     18  C   UNL     1       1.643   3.091  21.235  0.00  0.00    +0.000 C 
ATOM     19  N   UNL     1       2.312   2.949  22.170  0.00  0.00    +0.000 NA
ENDBRANCH  17  18
ENDBRANCH  16  17
ENDBRANCH  14  16
ENDBRANCH  11  12
ENDBRANCH   1  11
TORSDOF 7
ENDMDL
MODEL 7
REMARK VINA RESULT:      -6.4      3.272      5.150
REMARK  Name = 
REMARK  9 active torsions:
REMARK  status: ('A' for Active; 'I' for Inactive)
REMARK    1  A    between atoms: C_1  and  C_2
REMARK    2  A    between atoms: C_2  and  C_3
REMARK    3  A    between atoms: C_2  and  N_9
REMARK    4  A    between atoms: N_9  and  C_10
REMARK    5  A    between atoms: N_9  and  C_11
REMARK    6  A    between atoms: C_11  and  C_12
REMARK    7  A    between atoms: N_14  and  C_15
REMARK    8  A    between atoms: C_15  and  C_16
REMARK    9  A    between atoms: C_16  and  C_17
REMARK                            x       y       z     vdW  Elec       q    Type
REMARK                         _______ _______ _______ _____ _____    ______ ____
ROOT
ATOM      1  N   UNL     1       3.916   3.613  18.768  0.00  0.00    +0.000 NA
ATOM      2  C   UNL     1       4.445   2.610  19.702  0.00  0.00    +0.000 C 
ENDROOT
BRANCH   1   4
ATOM      3  C   UNL     1       1.889   3.132  20.205  0.00  0.00    +0.000 C 
ATOM      4  C   UNL     1       2.480   3.906  19.009  0.00  0.00    +0.000 C 
BRANCH   4   5
ATOM      5  C   UNL     1       2.188   5.390  19.243  0.00  0.00    +0.000 A 
ATOM      6  C   UNL     1       2.468   6.357  18.265  0.00  0.00    +0.000 A 
ATOM      7  C   UNL     1       2.338   7.717  18.555  0.00  0.00    +0.000 A 
ATOM      8  C   UNL     1       1.904   8.125  19.814  0.00  0.00    +0.000 A 
ATOM      9  C   UNL     1       1.578   7.175  20.780  0.00  0.00    +0.000 A 
ATOM     10  C   UNL     1       1.715   5.815  20.495  0.00  0.00    +0.000 A 
ENDBRANCH   4   5
ENDBRANCH   1   4
BRANCH   1  11
ATOM     11  C   UNL     1       4.210   3.201  17.370  0.00  0.00    +0.000 C 
BRANCH  11  12
ATOM     12  C   UNL     1       5.332   3.993  16.669  0.00  0.00    +0.000 C 
ATOM     13  O   UNL     1       5.943   3.625  15.672  0.00  0.00    +0.000 OA
ATOM     14  N   UNL     1       5.624   5.209  17.261  0.00  0.00    +0.000 N 
ATOM     15  H   UNL     1       5.108   5.512  18.078  0.00  0.00    +0.000 HD
BRANCH  14  16
ATOM     16  C   UNL     1       6.670   6.057  16.705  0.00  0.00    +0.000 C 
BRANCH  16  17
ATOM     17  C   UNL     1       7.562   6.669  17.784  0.00  0.00    +0.000 C 
BRANCH  17  18
ATOM     18  C   UNL     1       7.478   5.891  19.021  0.00  0.00    +0.000 C 
ATOM     19  N   UNL     1       7.404   5.283  20.004  0.00  0.00    +0.000 NA
ENDBRANCH  17  18
ENDBRANCH  16  17
ENDBRANCH  14  16
ENDBRANCH  11  12
ENDBRANCH   1  11
TORSDOF 7
ENDMDL
MODEL 8
REMARK VINA RESULT:      -6.4      3.815      5.501
REMARK  Name = 
REMARK  9 active torsions:
REMARK  status: ('A' for Active; 'I' for Inactive)
REMARK    1  A    between atoms: C_1  and  C_2
REMARK    2  A    between atoms: C_2  and  C_3
REMARK    3  A    between atoms: C_2  and  N_9
REMARK    4  A    between atoms: N_9  and  C_10
REMARK    5  A    between atoms: N_9  and  C_11
REMARK    6  A    between atoms: C_11  and  C_12
REMARK    7  A    between atoms: N_14  and  C_15
REMARK    8  A    between atoms: C_15  and  C_16
REMARK    9  A    between atoms: C_16  and  C_17
REMARK                            x       y       z     vdW  Elec       q    Type
REMARK                         _______ _______ _______ _____ _____    ______ ____
ROOT
ATOM      1  N   UNL     1       3.192   3.702  19.499  0.00  0.00    +0.000 NA
ATOM      2  C   UNL     1       2.283   2.558  19.647  0.00  0.00    +0.000 C 
ENDROOT
BRANCH   1   4
ATOM      3  C   UNL     1       1.517   4.142  17.654  0.00  0.00    +0.000 C 
ATOM      4  C   UNL     1       2.755   4.637  18.430  0.00  0.00    +0.000 C 
BRANCH   4   5
ATOM      5  C   UNL     1       2.434   6.043  18.940  0.00  0.00    +0.000 A 
ATOM      6  C   UNL     1       2.029   6.270  20.266  0.00  0.00    +0.000 A 
ATOM      7  C   UNL     1       1.595   7.535  20.668  0.00  0.00    +0.000 A 
ATOM      8  C   UNL     1       1.583   8.591  19.760  0.00  0.00    +0.000 A 
ATOM      9  C   UNL     1       2.025   8.392  18.454  0.00  0.00    +0.000 A 
ATOM     10  C   UNL     1       2.452   7.127  18.047  0.00  0.00    +0.000 A 
ENDBRANCH   4   5
ENDBRANCH   1   4
BRANCH   1  11
ATOM     11  C   UNL     1       4.587   3.215  19.325  0.00  0.00    +0.000 C 
BRANCH  11  12
ATOM     12  C   UNL     1       5.648   4.313  19.114  0.00  0.00    +0.000 C 
ATOM     13  O   UNL     1       5.758   5.332  19.787  0.00  0.00    +0.000 OA
ATOM     14  N   UNL     1       6.517   4.070  18.066  0.00  0.00    +0.000 N 
ATOM     15  H   UNL     1       6.428   3.221  17.520  0.00  0.00    +0.000 HD
BRANCH  14  16
ATOM     16  C   UNL     1       7.566   5.031  17.750  0.00  0.00    +0.000 C 
BRANCH  16  17
ATOM     17  C   UNL     1       7.053   6.203  16.916  0.00  0.00    +0.000 C 
BRANCH  17  18
ATOM     18  C   UNL     1       7.573   7.468  17.435  0.00  0.00    +0.000 C 
ATOM     19  N   UNL     1       7.982   8.467  17.857  0.00  0.00    +0.000 NA
ENDBRANCH  17  18
ENDBRANCH  16  17
ENDBRANCH  14  16
ENDBRANCH  11  12
ENDBRANCH   1  11
TORSDOF 7
ENDMDL
MODEL 9
REMARK VINA RESULT:      -6.3      2.258      3.042
REMARK  Name = 
REMARK  9 active torsions:
REMARK  status: ('A' for Active; 'I' for Inactive)
REMARK    1  A    between atoms: C_1  and  C_2
REMARK    2  A    between atoms: C_2  and  C_3
REMARK    3  A    between atoms: C_2  and  N_9
REMARK    4  A    between atoms: N_9  and  C_10
REMARK    5  A    between atoms: N_9  and  C_11
REMARK    6  A    between atoms: C_11  and  C_12
REMARK    7  A    between atoms: N_14  and  C_15
REMARK    8  A    between atoms: C_15  and  C_16
REMARK    9  A    between atoms: C_16  and  C_17
REMARK                            x       y       z     vdW  Elec       q    Type
REMARK                         _______ _______ _______ _____ _____    ______ ____
ROOT
ATOM      1  N   UNL     1       3.202   6.950  17.915  0.00  0.00    +0.000 NA
ATOM      2  C   UNL     1       2.501   8.193  17.570  0.00  0.00    +0.000 C 
ENDROOT
BRANCH   1   4
ATOM      3  C   UNL     1       2.003   7.478  20.081  0.00  0.00    +0.000 C 
ATOM      4  C   UNL     1       2.916   6.506  19.304  0.00  0.00    +0.000 C 
BRANCH   4   5
ATOM      5  C   UNL     1       2.272   5.121  19.385  0.00  0.00    +0.000 A 
ATOM      6  C   UNL     1       2.061   4.340  18.237  0.00  0.00    +0.000 A 
ATOM      7  C   UNL     1       1.336   3.149  18.312  0.00  0.00    +0.000 A 
ATOM      8  C   UNL     1       0.834   2.713  19.536  0.00  0.00    +0.000 A 
ATOM      9  C   UNL     1       1.075   3.453  20.691  0.00  0.00    +0.000 A 
ATOM     10  C   UNL     1       1.793   4.649  20.618  0.00  0.00    +0.000 A 
ENDBRANCH   4   5
ENDBRANCH   1   4
BRANCH   1  11
ATOM     11  C   UNL     1       4.654   7.096  17.628  0.00  0.00    +0.000 C 
BRANCH  11  12
ATOM     12  C   UNL     1       5.330   5.863  16.997  0.00  0.00    +0.000 C 
ATOM     13  O   UNL     1       5.469   4.773  17.543  0.00  0.00    +0.000 OA
ATOM     14  N   UNL     1       5.796   6.065  15.710  0.00  0.00    +0.000 N 
ATOM     15  H   UNL     1       5.668   6.964  15.261  0.00  0.00    +0.000 HD
BRANCH  14  16
ATOM     16  C   UNL     1       6.463   4.984  14.997  0.00  0.00    +0.000 C 
BRANCH  16  17
ATOM     17  C   UNL     1       5.503   4.177  14.126  0.00  0.00    +0.000 C 
BRANCH  17  18
ATOM     18  C   UNL     1       6.190   3.670  12.939  0.00  0.00    +0.000 C 
ATOM     19  N   UNL     1       6.733   3.278  11.993  0.00  0.00    +0.000 NA
ENDBRANCH  17  18
ENDBRANCH  16  17
ENDBRANCH  14  16
ENDBRANCH  11  12
ENDBRANCH   1  11
TORSDOF 7
ENDMDL
