MODEL 1
REMARK VINA RESULT:      -8.0      0.000      0.000
REMARK  Name = 
REMARK  6 active torsions:
REMARK  status: ('A' for Active; 'I' for Inactive)
REMARK    1  A    between atoms: C_1  and  O_2
REMARK    2  A    between atoms: O_2  and  C_3
REMARK    3  A    between atoms: C_6  and  C_7
REMARK    4  A    between atoms: C_7  and  C_8
REMARK    5  A    between atoms: C_7  and  O_9
REMARK    6  A    between atoms: C_7  and  C_10
REMARK                            x       y       z     vdW  Elec       q    Type
REMARK                         _______ _______ _______ _____ _____    ______ ____
ROOT
ATOM      1  C   UNL     1       3.925   3.962  17.556  0.00  0.00    +0.000 A 
ATOM      2  N   UNL     1       2.886   4.601  17.014  0.00  0.00    +0.000 NA
ATOM      3  C   UNL     1       2.159   5.200  17.915  0.00  0.00    +0.000 A 
ATOM      4  N   UNL     1       2.805   6.291  18.527  0.00  0.00    +0.000 N 
ATOM      5  C   UNL     1       2.361   6.956  19.707  0.00  0.00    +0.000 C 
ATOM      6  C   UNL     1       2.092   8.156  18.803  0.00  0.00    +0.000 C 
ATOM      7  C   UNL     1       3.079   7.502  17.835  0.00  0.00    +0.000 C 
ATOM      8  N   UNL     1       1.503   4.392  18.700  0.00  0.00    +0.000 NA
ATOM      9  C   UNL     1       2.325   3.570  19.295  0.00  0.00    +0.000 A 
ATOM     10  C   UNL     1       1.758   3.138  20.510  0.00  0.00    +0.000 A 
ATOM     11  C   UNL     1       2.503   2.473  21.455  0.00  0.00    +0.000 A 
ATOM     12  C   UNL     1       3.805   2.168  21.141  0.00  0.00    +0.000 A 
ATOM     13  C   UNL     1       4.392   2.559  19.890  0.00  0.00    +0.000 A 
ATOM     14  C   UNL     1       3.658   3.321  18.873  0.00  0.00    +0.000 A 
ENDROOT
BRANCH   1  15
ATOM     15  C   UNL     1       5.196   4.272  16.668  0.00  0.00    +0.000 C 
ATOM     16  C   UNL     1       4.844   4.932  15.326  0.00  0.00    +0.000 C 
BRANCH  15  20
ATOM     17  C   UNL     1       8.032   7.339  18.469  0.00  0.00    +0.000 A 
ATOM     18  C   UNL     1       7.259   7.589  17.341  0.00  0.00    +0.000 A 
ATOM     19  C   UNL     1       6.398   6.615  16.804  0.00  0.00    +0.000 A 
ATOM     20  C   UNL     1       6.243   5.324  17.369  0.00  0.00    +0.000 A 
ATOM     21  C   UNL     1       7.042   5.083  18.517  0.00  0.00    +0.000 A 
ATOM     22  C   UNL     1       7.929   6.078  19.056  0.00  0.00    +0.000 A 
BRANCH  17  24
ATOM     23  C   UNL     1       8.601   9.678  18.311  0.00  0.00    +0.000 C 
ATOM     24  O   UNL     1       8.854   8.374  18.817  0.00  0.00    +0.000 OA
ENDBRANCH  17  24
ENDBRANCH  15  20
BRANCH  15  25
ATOM     25  O   UNL     1       5.909   3.066  16.350  0.00  0.00    +0.000 OA
ATOM     26  H   UNL     1       6.782   3.340  16.014  0.00  0.00    +0.000 HD
ENDBRANCH  15  25
ENDBRANCH   1  15
TORSDOF 4
ENDMDL
MODEL 2
REMARK VINA RESULT:      -7.1      2.200      5.142
REMARK  Name = 
REMARK  6 active torsions:
REMARK  status: ('A' for Active; 'I' for Inactive)
REMARK    1  A    between atoms: C_1  and  O_2
REMARK    2  A    between atoms: O_2  and  C_3
REMARK    3  A    between atoms: C_6  and  C_7
REMARK    4  A    between atoms: C_7  and  C_8
REMARK    5  A    between atoms: C_7  and  O_9
REMARK    6  A    between atoms: C_7  and  C_10
REMARK                            x       y       z     vdW  Elec       q    Type
REMARK                         _______ _______ _______ _____ _____    ______ ____
ROOT
ATOM      1  C   UNL     1       5.557   5.811  18.127  0.00  0.00    +0.000 A 
ATOM      2  N   UNL     1       5.574   4.874  19.078  0.00  0.00    +0.000 NA
ATOM      3  C   UNL     1       4.383   4.401  19.315  0.00  0.00    +0.000 A 
ATOM      4  N   UNL     1       3.856   3.640  18.253  0.00  0.00    +0.000 N 
ATOM      5  C   UNL     1       2.499   3.226  18.129  0.00  0.00    +0.000 C 
ATOM      6  C   UNL     1       3.021   1.807  18.337  0.00  0.00    +0.000 C 
ATOM      7  C   UNL     1       4.375   2.365  17.896  0.00  0.00    +0.000 C 
ATOM      8  N   UNL     1       3.573   5.245  19.889  0.00  0.00    +0.000 NA
ATOM      9  C   UNL     1       3.463   6.330  19.168  0.00  0.00    +0.000 A 
ATOM     10  C   UNL     1       2.223   6.943  19.432  0.00  0.00    +0.000 A 
ATOM     11  C   UNL     1       1.736   7.952  18.635  0.00  0.00    +0.000 A 
ATOM     12  C   UNL     1       2.540   8.403  17.616  0.00  0.00    +0.000 A 
ATOM     13  C   UNL     1       3.826   7.823  17.356  0.00  0.00    +0.000 A 
ATOM     14  C   UNL     1       4.366   6.705  18.139  0.00  0.00    +0.000 A 
ENDROOT
BRANCH   1  15
ATOM     15  C   UNL     1       6.768   5.527  17.151  0.00  0.00    +0.000 C 
ATOM     16  C   UNL     1       7.758   4.493  17.708  0.00  0.00    +0.000 C 
BRANCH  15  20
ATOM     17  C   UNL     1       5.703   3.803  13.078  0.00  0.00    +0.000 A 
ATOM     18  C   UNL     1       6.982   4.235  13.409  0.00  0.00    +0.000 A 
ATOM     19  C   UNL     1       7.276   4.771  14.676  0.00  0.00    +0.000 A 
ATOM     20  C   UNL     1       6.309   4.902  15.703  0.00  0.00    +0.000 A 
ATOM     21  C   UNL     1       5.007   4.460  15.348  0.00  0.00    +0.000 A 
ATOM     22  C   UNL     1       4.709   3.922  14.049  0.00  0.00    +0.000 A 
BRANCH  17  24
ATOM     23  C   UNL     1       4.297   3.101  11.248  0.00  0.00    +0.000 C 
ATOM     24  O   UNL     1       5.584   3.365  11.789  0.00  0.00    +0.000 OA
ENDBRANCH  17  24
ENDBRANCH  15  20
BRANCH  15  25
ATOM     25  O   UNL     1       7.526   6.723  16.908  0.00  0.00    +0.000 OA
ATOM     26  H   UNL     1       8.414   6.569  17.281  0.00  0.00    +0.000 HD
ENDBRANCH  15  25
ENDBRANCH   1  15
TORSDOF 4
ENDMDL
MODEL 3
REMARK VINA RESULT:      -7.0      3.253      5.789
REMARK  Name = 
REMARK  6 active torsions:
REMARK  status: ('A' for Active; 'I' for Inactive)
REMARK    1  A    between atoms: C_1  and  O_2
REMARK    2  A    between atoms: O_2  and  C_3
REMARK    3  A    between atoms: C_6  and  C_7
REMARK    4  A    between atoms: C_7  and  C_8
REMARK    5  A    between atoms: C_7  and  O_9
REMARK    6  A    between atoms: C_7  and  C_10
REMARK                            x       y       z     vdW  Elec       q    Type
REMARK                         _______ _______ _______ _____ _____    ______ ____
ROOT
ATOM      1  C   UNL     1       2.889   6.351  19.299  0.00  0.00    +0.000 A 
ATOM      2  N   UNL     1       4.216   6.386  19.158  0.00  0.00    +0.000 NA
ATOM      3  C   UNL     1       4.688   5.251  18.724  0.00  0.00    +0.000 A 
ATOM      4  N   UNL     1       4.323   4.958  17.395  0.00  0.00    +0.000 N 
ATOM      5  C   UNL     1       4.473   3.693  16.758  0.00  0.00    +0.000 C 
ATOM      6  C   UNL     1       5.519   4.375  15.881  0.00  0.00    +0.000 C 
ATOM      7  C   UNL     1       4.836   5.683  16.285  0.00  0.00    +0.000 C 
ATOM      8  N   UNL     1       4.610   4.273  19.581  0.00  0.00    +0.000 NA
ATOM      9  C   UNL     1       3.371   4.101  19.961  0.00  0.00    +0.000 A 
ATOM     10  C   UNL     1       3.191   2.766  20.376  0.00  0.00    +0.000 A 
ATOM     11  C   UNL     1       1.937   2.242  20.584  0.00  0.00    +0.000 A 
ATOM     12  C   UNL     1       0.863   3.089  20.455  0.00  0.00    +0.000 A 
ATOM     13  C   UNL     1       1.026   4.464  20.077  0.00  0.00    +0.000 A 
ATOM     14  C   UNL     1       2.337   5.057  19.786  0.00  0.00    +0.000 A 
ENDROOT
BRANCH   1  15
ATOM     15  C   UNL     1       2.307   7.694  18.701  0.00  0.00    +0.000 C 
ATOM     16  C   UNL     1       1.228   7.458  17.634  0.00  0.00    +0.000 C 
BRANCH  15  20
ATOM     17  C   UNL     1       0.321  10.181  21.952  0.00  0.00    +0.000 A 
ATOM     18  C   UNL     1       0.976   8.981  22.206  0.00  0.00    +0.000 A 
ATOM     19  C   UNL     1       1.573   8.232  21.176  0.00  0.00    +0.000 A 
ATOM     20  C   UNL     1       1.564   8.640  19.819  0.00  0.00    +0.000 A 
ATOM     21  C   UNL     1       0.888   9.864  19.575  0.00  0.00    +0.000 A 
ATOM     22  C   UNL     1       0.270  10.621  20.630  0.00  0.00    +0.000 A 
BRANCH  17  24
ATOM     23  C   UNL     1      -1.484  11.440  22.940  0.00  0.00    +0.000 C 
ATOM     24  O   UNL     1      -0.250  10.745  23.058  0.00  0.00    +0.000 OA
ENDBRANCH  17  24
ENDBRANCH  15  20
BRANCH  15  25
ATOM     25  O   UNL     1       3.339   8.467  18.068  0.00  0.00    +0.000 OA
ATOM     26  H   UNL     1       3.194   8.390  17.107  0.00  0.00    +0.000 HD
ENDBRANCH  15  25
ENDBRANCH   1  15
TORSDOF 4
ENDMDL
MODEL 4
REMARK VINA RESULT:      -7.0      4.742      7.948
REMARK  Name = 
REMARK  6 active torsions:
REMARK  status: ('A' for Active; 'I' for Inactive)
REMARK    1  A    between atoms: C_1  and  O_2
REMARK    2  A    between atoms: O_2  and  C_3
REMARK    3  A    between atoms: C_6  and  C_7
REMARK    4  A    between atoms: C_7  and  C_8
REMARK    5  A    between atoms: C_7  and  O_9
REMARK    6  A    between atoms: C_7  and  C_10
REMARK                            x       y       z     vdW  Elec       q    Type
REMARK                         _______ _______ _______ _____ _____    ______ ____
ROOT
ATOM      1  C   UNL     1       0.437  10.150  20.273  0.00  0.00    +0.000 A 
ATOM      2  N   UNL     1       0.779  11.257  20.935  0.00  0.00    +0.000 NA
ATOM      3  C   UNL     1      -0.186  12.133  20.949  0.00  0.00    +0.000 A 
ATOM      4  N   UNL     1      -1.296  11.739  21.719  0.00  0.00    +0.000 N 
ATOM      5  C   UNL     1      -2.575  12.365  21.705  0.00  0.00    +0.000 C 
ATOM      6  C   UNL     1      -2.263  12.801  23.133  0.00  0.00    +0.000 C 
ATOM      7  C   UNL     1      -1.250  11.655  23.139  0.00  0.00    +0.000 C 
ATOM      8  N   UNL     1      -0.439  12.672  19.789  0.00  0.00    +0.000 NA
ATOM      9  C   UNL     1      -0.718  11.745  18.910  0.00  0.00    +0.000 A 
ATOM     10  C   UNL     1      -1.531  12.291  17.897  0.00  0.00    +0.000 A 
ATOM     11  C   UNL     1      -2.180  11.491  16.987  0.00  0.00    +0.000 A 
ATOM     12  C   UNL     1      -1.944  10.139  17.045  0.00  0.00    +0.000 A 
ATOM     13  C   UNL     1      -1.084   9.565  18.041  0.00  0.00    +0.000 A 
ATOM     14  C   UNL     1      -0.415  10.368  19.071  0.00  0.00    +0.000 A 
ENDROOT
BRANCH   1  15
ATOM     15  C   UNL     1       0.918   8.911  21.128  0.00  0.00    +0.000 C 
ATOM     16  C   UNL     1      -0.237   8.175  21.823  0.00  0.00    +0.000 C 
BRANCH  15  20
ATOM     17  C   UNL     1       2.894   5.538  18.801  0.00  0.00    +0.000 A 
ATOM     18  C   UNL     1       2.311   5.359  20.050  0.00  0.00    +0.000 A 
ATOM     19  C   UNL     1       1.715   6.426  20.747  0.00  0.00    +0.000 A 
ATOM     20  C   UNL     1       1.654   7.745  20.234  0.00  0.00    +0.000 A 
ATOM     21  C   UNL     1       2.257   7.912  18.960  0.00  0.00    +0.000 A 
ATOM     22  C   UNL     1       2.873   6.821  18.255  0.00  0.00    +0.000 A 
BRANCH  17  24
ATOM     23  C   UNL     1       4.601   3.840  18.951  0.00  0.00    +0.000 C 
ATOM     24  O   UNL     1       3.476   4.408  18.295  0.00  0.00    +0.000 OA
ENDBRANCH  17  24
ENDBRANCH  15  20
BRANCH  15  25
ATOM     25  O   UNL     1       1.820   9.320  22.168  0.00  0.00    +0.000 OA
ATOM     26  H   UNL     1       2.302  10.096  21.829  0.00  0.00    +0.000 HD
ENDBRANCH  15  25
ENDBRANCH   1  15
TORSDOF 4
ENDMDL
MODEL 5
REMARK VINA RESULT:      -6.9      4.748      7.926
REMARK  Name = 
REMARK  6 active torsions:
REMARK  status: ('A' for Active; 'I' for Inactive)
REMARK    1  A    between atoms: C_1  and  O_2
REMARK    2  A    between atoms: O_2  and  C_3
REMARK    3  A    between atoms: C_6  and  C_7
REMARK    4  A    between atoms: C_7  and  C_8
REMARK    5  A    between atoms: C_7  and  O_9
REMARK    6  A    between atoms: C_7  and  C_10
REMARK                            x       y       z     vdW  Elec       q    Type
REMARK                         _______ _______ _______ _____ _____    ______ ____
ROOT
ATOM      1  C   UNL     1       0.445  10.148  20.363  0.00  0.00    +0.000 A 
ATOM      2  N   UNL     1       0.781  11.233  21.064  0.00  0.00    +0.000 NA
ATOM      3  C   UNL     1      -0.184  12.109  21.094  0.00  0.00    +0.000 A 
ATOM      4  N   UNL     1      -1.304  11.691  21.839  0.00  0.00    +0.000 N 
ATOM      5  C   UNL     1      -2.582  12.320  21.829  0.00  0.00    +0.000 C 
ATOM      6  C   UNL     1      -2.287  12.709  23.275  0.00  0.00    +0.000 C 
ATOM      7  C   UNL     1      -1.274  11.563  23.255  0.00  0.00    +0.000 C 
ATOM      8  N   UNL     1      -0.424  12.684  19.950  0.00  0.00    +0.000 NA
ATOM      9  C   UNL     1      -0.693  11.787  19.039  0.00  0.00    +0.000 A 
ATOM     10  C   UNL     1      -1.493  12.366  18.034  0.00  0.00    +0.000 A 
ATOM     11  C   UNL     1      -2.132  11.595  17.092  0.00  0.00    +0.000 A 
ATOM     12  C   UNL     1      -1.897  10.242  17.109  0.00  0.00    +0.000 A 
ATOM     13  C   UNL     1      -1.050   9.635  18.096  0.00  0.00    +0.000 A 
ATOM     14  C   UNL     1      -0.393  10.405  19.159  0.00  0.00    +0.000 A 
ENDROOT
BRANCH   1  15
ATOM     15  C   UNL     1       0.915   8.881  21.184  0.00  0.00    +0.000 C 
ATOM     16  C   UNL     1      -0.246   8.143  21.867  0.00  0.00    +0.000 C 
BRANCH  15  20
ATOM     17  C   UNL     1       2.958   5.847  18.479  0.00  0.00    +0.000 A 
ATOM     18  C   UNL     1       2.850   7.196  18.161  0.00  0.00    +0.000 A 
ATOM     19  C   UNL     1       2.204   8.107  19.017  0.00  0.00    +0.000 A 
ATOM     20  C   UNL     1       1.631   7.729  20.257  0.00  0.00    +0.000 A 
ATOM     21  C   UNL     1       1.745   6.348  20.564  0.00  0.00    +0.000 A 
ATOM     22  C   UNL     1       2.397   5.419  19.682  0.00  0.00    +0.000 A 
BRANCH  17  24
ATOM     23  C   UNL     1       3.518   3.679  17.580  0.00  0.00    +0.000 C 
ATOM     24  O   UNL     1       3.563   5.098  17.509  0.00  0.00    +0.000 OA
ENDBRANCH  17  24
ENDBRANCH  15  20
BRANCH  15  25
ATOM     25  O   UNL     1       1.828   9.253  22.229  0.00  0.00    +0.000 OA
ATOM     26  H   UNL     1       2.237   8.427  22.547  0.00  0.00    +0.000 HD
ENDBRANCH  15  25
ENDBRANCH   1  15
TORSDOF 4
ENDMDL
MODEL 6
REMARK VINA RESULT:      -6.8      3.131      5.564
REMARK  Name = 
REMARK  6 active torsions:
REMARK  status: ('A' for Active; 'I' for Inactive)
REMARK    1  A    between atoms: C_1  and  O_2
REMARK    2  A    between atoms: O_2  and  C_3
REMARK    3  A    between atoms: C_6  and  C_7
REMARK    4  A    between atoms: C_7  and  C_8
REMARK    5  A    between atoms: C_7  and  O_9
REMARK    6  A    between atoms: C_7  and  C_10
REMARK                            x       y       z     vdW  Elec       q    Type
REMARK                         _______ _______ _______ _____ _____    ______ ____
ROOT
ATOM      1  C   UNL     1       2.987   6.078  18.915  0.00  0.00    +0.000 A 
ATOM      2  N   UNL     1       4.316   6.176  18.998  0.00  0.00    +0.000 NA
ATOM      3  C   UNL     1       4.912   5.139  18.481  0.00  0.00    +0.000 A 
ATOM      4  N   UNL     1       4.775   5.047  17.083  0.00  0.00    +0.000 N 
ATOM      5  C   UNL     1       5.093   3.902  16.296  0.00  0.00    +0.000 C 
ATOM      6  C   UNL     1       6.223   4.746  15.713  0.00  0.00    +0.000 C 
ATOM      7  C   UNL     1       5.414   5.952  16.192  0.00  0.00    +0.000 C 
ATOM      8  N   UNL     1       4.757   4.036  19.159  0.00  0.00    +0.000 NA
ATOM      9  C   UNL     1       3.486   3.768  19.302  0.00  0.00    +0.000 A 
ATOM     10  C   UNL     1       3.318   2.380  19.478  0.00  0.00    +0.000 A 
ATOM     11  C   UNL     1       2.078   1.791  19.398  0.00  0.00    +0.000 A 
ATOM     12  C   UNL     1       0.991   2.613  19.225  0.00  0.00    +0.000 A 
ATOM     13  C   UNL     1       1.134   4.035  19.089  0.00  0.00    +0.000 A 
ATOM     14  C   UNL     1       2.439   4.707  19.106  0.00  0.00    +0.000 A 
ENDROOT
BRANCH   1  15
ATOM     15  C   UNL     1       2.431   7.479  18.439  0.00  0.00    +0.000 C 
ATOM     16  C   UNL     1       1.293   7.357  17.413  0.00  0.00    +0.000 C 
BRANCH  15  20
ATOM     17  C   UNL     1       0.571  10.102  21.657  0.00  0.00    +0.000 A 
ATOM     18  C   UNL     1       0.691  10.498  20.330  0.00  0.00    +0.000 A 
ATOM     19  C   UNL     1       1.279   9.665  19.361  0.00  0.00    +0.000 A 
ATOM     20  C   UNL     1       1.779   8.372  19.654  0.00  0.00    +0.000 A 
ATOM     21  C   UNL     1       1.653   7.984  21.013  0.00  0.00    +0.000 A 
ATOM     22  C   UNL     1       1.061   8.843  22.003  0.00  0.00    +0.000 A 
BRANCH  17  24
ATOM     23  C   UNL     1      -1.216  10.816  23.112  0.00  0.00    +0.000 C 
ATOM     24  O   UNL     1       0.030  11.056  22.472  0.00  0.00    +0.000 OA
ENDBRANCH  17  24
ENDBRANCH  15  20
BRANCH  15  25
ATOM     25  O   UNL     1       3.461   8.256  17.808  0.00  0.00    +0.000 OA
ATOM     26  H   UNL     1       3.183   9.188  17.869  0.00  0.00    +0.000 HD
ENDBRANCH  15  25
ENDBRANCH   1  15
TORSDOF 4
ENDMDL
MODEL 7
REMARK VINA RESULT:      -6.7      2.212      5.150
REMARK  Name = 
REMARK  6 active torsions:
REMARK  status: ('A' for Active; 'I' for Inactive)
REMARK    1  A    between atoms: C_1  and  O_2
REMARK    2  A    between atoms: O_2  and  C_3
REMARK    3  A    between atoms: C_6  and  C_7
REMARK    4  A    between atoms: C_7  and  C_8
REMARK    5  A    between atoms: C_7  and  O_9
REMARK    6  A    between atoms: C_7  and  C_10
REMARK                            x       y       z     vdW  Elec       q    Type
REMARK                         _______ _______ _______ _____ _____    ______ ____
ROOT
ATOM      1  C   UNL     1       5.644   5.767  18.137  0.00  0.00    +0.000 A 
ATOM      2  N   UNL     1       5.637   4.825  19.083  0.00  0.00    +0.000 NA
ATOM      3  C   UNL     1       4.448   4.323  19.260  0.00  0.00    +0.000 A 
ATOM      4  N   UNL     1       3.990   3.557  18.171  0.00  0.00    +0.000 N 
ATOM      5  C   UNL     1       2.650   3.113  17.980  0.00  0.00    +0.000 C 
ATOM      6  C   UNL     1       3.194   1.705  18.207  0.00  0.00    +0.000 C 
ATOM      7  C   UNL     1       4.555   2.296  17.834  0.00  0.00    +0.000 C 
ATOM      8  N   UNL     1       3.591   5.146  19.798  0.00  0.00    +0.000 NA
ATOM      9  C   UNL     1       3.491   6.232  19.078  0.00  0.00    +0.000 A 
ATOM     10  C   UNL     1       2.226   6.815  19.285  0.00  0.00    +0.000 A 
ATOM     11  C   UNL     1       1.755   7.817  18.470  0.00  0.00    +0.000 A 
ATOM     12  C   UNL     1       2.596   8.292  17.493  0.00  0.00    +0.000 A 
ATOM     13  C   UNL     1       3.907   7.743  17.292  0.00  0.00    +0.000 A 
ATOM     14  C   UNL     1       4.434   6.633  18.095  0.00  0.00    +0.000 A 
ENDROOT
BRANCH   1  15
ATOM     15  C   UNL     1       6.907   5.516  17.219  0.00  0.00    +0.000 C 
ATOM     16  C   UNL     1       7.857   4.449  17.783  0.00  0.00    +0.000 C 
BRANCH  15  20
ATOM     17  C   UNL     1       5.651   3.949  13.137  0.00  0.00    +0.000 A 
ATOM     18  C   UNL     1       4.801   3.971  14.236  0.00  0.00    +0.000 A 
ATOM     19  C   UNL     1       5.224   4.455  15.488  0.00  0.00    +0.000 A 
ATOM     20  C   UNL     1       6.527   4.961  15.721  0.00  0.00    +0.000 A 
ATOM     21  C   UNL     1       7.384   4.927  14.589  0.00  0.00    +0.000 A 
ATOM     22  C   UNL     1       6.950   4.422  13.315  0.00  0.00    +0.000 A 
BRANCH  17  24
ATOM     23  C   UNL     1       5.575   2.145  11.536  0.00  0.00    +0.000 C 
ATOM     24  O   UNL     1       5.094   3.393  12.019  0.00  0.00    +0.000 OA
ENDBRANCH  17  24
ENDBRANCH  15  20
BRANCH  15  25
ATOM     25  O   UNL     1       7.686   6.714  17.074  0.00  0.00    +0.000 OA
ATOM     26  H   UNL     1       7.830   6.838  16.118  0.00  0.00    +0.000 HD
ENDBRANCH  15  25
ENDBRANCH   1  15
TORSDOF 4
ENDMDL
MODEL 8
REMARK VINA RESULT:      -6.6      5.322      8.293
REMARK  Name = 
REMARK  6 active torsions:
REMARK  status: ('A' for Active; 'I' for Inactive)
REMARK    1  A    between atoms: C_1  and  O_2
REMARK    2  A    between atoms: O_2  and  C_3
REMARK    3  A    between atoms: C_6  and  C_7
REMARK    4  A    between atoms: C_7  and  C_8
REMARK    5  A    between atoms: C_7  and  O_9
REMARK    6  A    between atoms: C_7  and  C_10
REMARK                            x       y       z     vdW  Elec       q    Type
REMARK                         _______ _______ _______ _____ _____    ______ ____
ROOT
ATOM      1  C   UNL     1      -0.379  10.667  19.997  0.00  0.00    +0.000 A 
ATOM      2  N   UNL     1      -0.123  11.885  20.481  0.00  0.00    +0.000 NA
ATOM      3  C   UNL     1      -1.215  12.565  20.687  0.00  0.00    +0.000 A 
ATOM      4  N   UNL     1      -2.004  12.062  21.739  0.00  0.00    +0.000 N 
ATOM      5  C   UNL     1      -3.351  12.438  22.013  0.00  0.00    +0.000 C 
ATOM      6  C   UNL     1      -2.803  13.080  23.285  0.00  0.00    +0.000 C 
ATOM      7  C   UNL     1      -1.604  12.147  23.101  0.00  0.00    +0.000 C 
ATOM      8  N   UNL     1      -1.843  12.916  19.600  0.00  0.00    +0.000 NA
ATOM      9  C   UNL     1      -2.128  11.863  18.881  0.00  0.00    +0.000 A 
ATOM     10  C   UNL     1      -3.253  12.135  18.078  0.00  0.00    +0.000 A 
ATOM     11  C   UNL     1      -3.922  11.133  17.415  0.00  0.00    +0.000 A 
ATOM     12  C   UNL     1      -3.407   9.862  17.494  0.00  0.00    +0.000 A 
ATOM     13  C   UNL     1      -2.235   9.569  18.270  0.00  0.00    +0.000 A 
ATOM     14  C   UNL     1      -1.519  10.590  19.043  0.00  0.00    +0.000 A 
ENDROOT
BRANCH   1  15
ATOM     15  C   UNL     1       0.536   9.639  20.776  0.00  0.00    +0.000 C 
ATOM     16  C   UNL     1      -0.267   8.639  21.621  0.00  0.00    +0.000 C 
BRANCH  15  20
ATOM     17  C   UNL     1       3.039   6.857  18.189  0.00  0.00    +0.000 A 
ATOM     18  C   UNL     1       2.668   6.552  19.493  0.00  0.00    +0.000 A 
ATOM     19  C   UNL     1       1.899   7.440  20.269  0.00  0.00    +0.000 A 
ATOM     20  C   UNL     1       1.441   8.690  19.787  0.00  0.00    +0.000 A 
ATOM     21  C   UNL     1       1.833   8.989  18.455  0.00  0.00    +0.000 A 
ATOM     22  C   UNL     1       2.626   8.084  17.669  0.00  0.00    +0.000 A 
BRANCH  17  24
ATOM     23  C   UNL     1       4.867   6.306  16.714  0.00  0.00    +0.000 C 
ATOM     24  O   UNL     1       3.832   5.910  17.604  0.00  0.00    +0.000 OA
ENDBRANCH  17  24
ENDBRANCH  15  20
BRANCH  15  25
ATOM     25  O   UNL     1       1.418  10.318  21.684  0.00  0.00    +0.000 OA
ATOM     26  H   UNL     1       1.854  11.025  21.173  0.00  0.00    +0.000 HD
ENDBRANCH  15  25
ENDBRANCH   1  15
TORSDOF 4
ENDMDL
MODEL 9
REMARK VINA RESULT:      -6.4      5.591      8.787
REMARK  Name = 
REMARK  6 active torsions:
REMARK  status: ('A' for Active; 'I' for Inactive)
REMARK    1  A    between atoms: C_1  and  O_2
REMARK    2  A    between atoms: O_2  and  C_3
REMARK    3  A    between atoms: C_6  and  C_7
REMARK    4  A    between atoms: C_7  and  C_8
REMARK    5  A    between atoms: C_7  and  O_9
REMARK    6  A    between atoms: C_7  and  C_10
REMARK                            x       y       z     vdW  Elec       q    Type
REMARK                         _______ _______ _______ _____ _____    ______ ____
ROOT
ATOM      1  C   UNL     1       0.875  11.569  20.382  0.00  0.00    +0.000 A 
ATOM      2  N   UNL     1       0.462  11.863  21.617  0.00  0.00    +0.000 NA
ATOM      3  C   UNL     1       0.166  13.125  21.742  0.00  0.00    +0.000 A 
ATOM      4  N   UNL     1      -0.979  13.511  21.020  0.00  0.00    +0.000 N 
ATOM      5  C   UNL     1      -1.381  14.855  20.766  0.00  0.00    +0.000 C 
ATOM      6  C   UNL     1      -2.566  14.564  21.683  0.00  0.00    +0.000 C 
ATOM      7  C   UNL     1      -2.289  13.090  21.382  0.00  0.00    +0.000 C 
ATOM      8  N   UNL     1       1.192  13.927  21.685  0.00  0.00    +0.000 NA
ATOM      9  C   UNL     1       1.842  13.753  20.564  0.00  0.00    +0.000 A 
ATOM     10  C   UNL     1       2.531  14.936  20.234  0.00  0.00    +0.000 A 
ATOM     11  C   UNL     1       3.086  15.121  18.990  0.00  0.00    +0.000 A 
ATOM     12  C   UNL     1       3.019  14.076  18.101  0.00  0.00    +0.000 A 
ATOM     13  C   UNL     1       2.360  12.844  18.431  0.00  0.00    +0.000 A 
ATOM     14  C   UNL     1       1.701  12.618  19.723  0.00  0.00    +0.000 A 
ENDROOT
BRANCH   1  15
ATOM     15  C   UNL     1       0.163  10.227  19.944  0.00  0.00    +0.000 C 
ATOM     16  C   UNL     1      -0.876  10.433  18.831  0.00  0.00    +0.000 C 
BRANCH  15  20
ATOM     17  C   UNL     1       3.001   7.020  18.408  0.00  0.00    +0.000 A 
ATOM     18  C   UNL     1       2.461   7.006  19.689  0.00  0.00    +0.000 A 
ATOM     19  C   UNL     1       1.592   8.019  20.135  0.00  0.00    +0.000 A 
ATOM     20  C   UNL     1       1.196   9.111  19.324  0.00  0.00    +0.000 A 
ATOM     21  C   UNL     1       1.759   9.112  18.021  0.00  0.00    +0.000 A 
ATOM     22  C   UNL     1       2.655   8.081  17.572  0.00  0.00    +0.000 A 
BRANCH  17  24
ATOM     23  C   UNL     1       4.488   5.316  19.249  0.00  0.00    +0.000 C 
ATOM     24  O   UNL     1       3.869   5.993  18.163  0.00  0.00    +0.000 OA
ENDBRANCH  17  24
ENDBRANCH  15  20
BRANCH  15  25
ATOM     25  O   UNL     1      -0.539   9.631  21.046  0.00  0.00    +0.000 OA
ATOM     26  H   UNL     1      -1.237  10.261  21.304  0.00  0.00    +0.000 HD
ENDBRANCH  15  25
ENDBRANCH   1  15
TORSDOF 4
ENDMDL
