MODEL 1
REMARK VINA RESULT:      -6.7      0.000      0.000
REMARK  Name = 
REMARK  5 active torsions:
REMARK  status: ('A' for Active; 'I' for Inactive)
REMARK    1  A    between atoms: C_1  and  N_2
REMARK    2  A    between atoms: C_7  and  N_8
REMARK    3  A    between atoms: C_9  and  C_10
REMARK    4  A    between atoms: C_12  and  C_13
REMARK    5  A    between atoms: C_22  and  C_23
REMARK                            x       y       z     vdW  Elec       q    Type
REMARK                         _______ _______ _______ _____ _____    ______ ____
ROOT
ATOM      1  C   UNL     1       1.459   9.569  22.421  0.00  0.00    +0.000 C 
ATOM      2  N   UNL     1       0.779   9.355  21.146  0.00  0.00    +0.000 NA
ATOM      3  C   UNL     1      -0.250  10.374  20.937  0.00  0.00    +0.000 C 
ATOM      4  C   UNL     1      -0.829  10.346  19.543  0.00  0.00    +0.000 C 
ATOM      5  C   UNL     1      -0.270   9.655  18.531  0.00  0.00    +0.000 C 
ATOM      6  O   UNL     1      -0.821   9.631  17.252  0.00  0.00    +0.000 OA
ATOM      7  C   UNL     1      -2.030  10.295  16.991  0.00  0.00    +0.000 C 
ATOM      8  C   UNL     1      -2.655  11.017  17.945  0.00  0.00    +0.000 C 
ATOM      9  C   UNL     1      -2.088  11.149  19.341  0.00  0.00    +0.000 C 
ATOM     10  C   UNL     1       0.998   8.936  18.748  0.00  0.00    +0.000 C 
ATOM     11  C   UNL     1       1.459   7.964  17.933  0.00  0.00    +0.000 C 
ATOM     12  C   UNL     1       1.717   9.391  20.016  0.00  0.00    +0.000 C 
ENDROOT
BRANCH   9  13
ATOM     13  C   UNL     1      -1.865  12.620  19.698  0.00  0.00    +0.000 A 
ATOM     14  C   UNL     1      -0.790  13.317  19.104  0.00  0.00    +0.000 A 
ATOM     15  C   UNL     1      -0.588  14.673  19.362  0.00  0.00    +0.000 A 
ATOM     16  C   UNL     1      -1.457  15.346  20.214  0.00  0.00    +0.000 A 
ATOM     17 CL   UNL     1      -1.229  17.027  20.505  0.00  0.00    +0.000 Cl
ATOM     18  C   UNL     1      -2.509  14.676  20.829  0.00  0.00    +0.000 A 
ATOM     19  C   UNL     1      -2.711  13.317  20.579  0.00  0.00    +0.000 A 
ATOM     20 CL   UNL     1      -4.026  12.553  21.398  0.00  0.00    +0.000 Cl
ENDBRANCH   9  13
BRANCH  11  21
ATOM     21  C   UNL     1       2.699   7.194  18.169  0.00  0.00    +0.000 A 
ATOM     22  C   UNL     1       3.801   7.399  17.320  0.00  0.00    +0.000 A 
ATOM     23  C   UNL     1       4.963   6.628  17.450  0.00  0.00    +0.000 A 
ATOM     24  C   UNL     1       5.041   5.660  18.448  0.00  0.00    +0.000 A 
ATOM     25 CL   UNL     1       6.461   4.697  18.597  0.00  0.00    +0.000 Cl
ATOM     26  C   UNL     1       3.975   5.463  19.322  0.00  0.00    +0.000 A 
ATOM     27  C   UNL     1       2.808   6.222  19.179  0.00  0.00    +0.000 A 
ATOM     28 CL   UNL     1       1.508   5.907  20.277  0.00  0.00    +0.000 Cl
ENDBRANCH  11  21
BRANCH   7  29
ATOM     29  N   UNL     1      -2.510  10.125  15.713  0.00  0.00    +0.000 N 
ATOM     30  H   UNL     1      -3.225  10.787  15.427  0.00  0.00    +0.000 HD
ATOM     31  H   UNL     1      -2.647   9.172  15.383  0.00  0.00    +0.000 HD
ENDBRANCH   7  29
BRANCH   8  32
ATOM     32  C   UNL     1      -3.888  11.694  17.677  0.00  0.00    +0.000 C 
ATOM     33  N   UNL     1      -4.900  12.205  17.455  0.00  0.00    +0.000 NA
ENDBRANCH   8  32
TORSDOF 4
ENDMDL
MODEL 2
REMARK VINA RESULT:      -6.4      3.020      4.878
REMARK  Name = 
REMARK  5 active torsions:
REMARK  status: ('A' for Active; 'I' for Inactive)
REMARK    1  A    between atoms: C_1  and  N_2
REMARK    2  A    between atoms: C_7  and  N_8
REMARK    3  A    between atoms: C_9  and  C_10
REMARK    4  A    between atoms: C_12  and  C_13
REMARK    5  A    between atoms: C_22  and  C_23
REMARK                            x       y       z     vdW  Elec       q    Type
REMARK                         _______ _______ _______ _____ _____    ______ ____
ROOT
ATOM      1  C   UNL     1      -3.286  10.217  17.880  0.00  0.00    +0.000 C 
ATOM      2  N   UNL     1      -2.367  11.118  18.569  0.00  0.00    +0.000 NA
ATOM      3  C   UNL     1      -3.107  12.168  19.270  0.00  0.00    +0.000 C 
ATOM      4  C   UNL     1      -2.232  12.992  20.184  0.00  0.00    +0.000 C 
ATOM      5  C   UNL     1      -0.982  12.627  20.528  0.00  0.00    +0.000 C 
ATOM      6  O   UNL     1      -0.183  13.402  21.366  0.00  0.00    +0.000 OA
ATOM      7  C   UNL     1      -0.648  14.639  21.840  0.00  0.00    +0.000 C 
ATOM      8  C   UNL     1      -1.891  15.078  21.551  0.00  0.00    +0.000 C 
ATOM      9  C   UNL     1      -2.846  14.267  20.704  0.00  0.00    +0.000 C 
ATOM     10  C   UNL     1      -0.440  11.340  20.057  0.00  0.00    +0.000 C 
ATOM     11  C   UNL     1       0.875  11.036  20.054  0.00  0.00    +0.000 C 
ATOM     12  C   UNL     1      -1.528  10.402  19.540  0.00  0.00    +0.000 C 
ENDROOT
BRANCH   9  13
ATOM     13  C   UNL     1      -4.141  13.982  21.467  0.00  0.00    +0.000 A 
ATOM     14  C   UNL     1      -4.107  13.113  22.580  0.00  0.00    +0.000 A 
ATOM     15  C   UNL     1      -5.256  12.874  23.333  0.00  0.00    +0.000 A 
ATOM     16  C   UNL     1      -6.448  13.499  22.986  0.00  0.00    +0.000 A 
ATOM     17 CL   UNL     1      -7.857  13.231  23.937  0.00  0.00    +0.000 Cl
ATOM     18  C   UNL     1      -6.512  14.342  21.881  0.00  0.00    +0.000 A 
ATOM     19  C   UNL     1      -5.366  14.579  21.119  0.00  0.00    +0.000 A 
ATOM     20 CL   UNL     1      -5.532  15.620  19.751  0.00  0.00    +0.000 Cl
ENDBRANCH   9  13
BRANCH  11  21
ATOM     21  C   UNL     1       1.440   9.773  19.530  0.00  0.00    +0.000 A 
ATOM     22  C   UNL     1       1.817   9.705  18.176  0.00  0.00    +0.000 A 
ATOM     23  C   UNL     1       2.270   8.504  17.615  0.00  0.00    +0.000 A 
ATOM     24  C   UNL     1       2.374   7.367  18.411  0.00  0.00    +0.000 A 
ATOM     25 CL   UNL     1       2.913   5.885  17.719  0.00  0.00    +0.000 Cl
ATOM     26  C   UNL     1       2.039   7.419  19.762  0.00  0.00    +0.000 A 
ATOM     27  C   UNL     1       1.569   8.616  20.316  0.00  0.00    +0.000 A 
ATOM     28 CL   UNL     1       1.140   8.606  21.993  0.00  0.00    +0.000 Cl
ENDBRANCH  11  21
BRANCH   7  29
ATOM     29  N   UNL     1       0.266  15.343  22.588  0.00  0.00    +0.000 N 
ATOM     30  H   UNL     1       0.995  15.807  22.055  0.00  0.00    +0.000 HD
ATOM     31  H   UNL     1       0.568  14.935  23.470  0.00  0.00    +0.000 HD
ENDBRANCH   7  29
BRANCH   8  32
ATOM     32  C   UNL     1      -2.365  16.340  22.037  0.00  0.00    +0.000 C 
ATOM     33  N   UNL     1      -2.778  17.355  22.404  0.00  0.00    +0.000 NA
ENDBRANCH   8  32
TORSDOF 4
ENDMDL
MODEL 3
REMARK VINA RESULT:      -6.3      2.774      4.569
REMARK  Name = 
REMARK  5 active torsions:
REMARK  status: ('A' for Active; 'I' for Inactive)
REMARK    1  A    between atoms: C_1  and  N_2
REMARK    2  A    between atoms: C_7  and  N_8
REMARK    3  A    between atoms: C_9  and  C_10
REMARK    4  A    between atoms: C_12  and  C_13
REMARK    5  A    between atoms: C_22  and  C_23
REMARK                            x       y       z     vdW  Elec       q    Type
REMARK                         _______ _______ _______ _____ _____    ______ ____
ROOT
ATOM      1  C   UNL     1      -3.057   9.851  17.640  0.00  0.00    +0.000 C 
ATOM      2  N   UNL     1      -2.142  10.756  18.328  0.00  0.00    +0.000 NA
ATOM      3  C   UNL     1      -2.885  11.830  18.990  0.00  0.00    +0.000 C 
ATOM      4  C   UNL     1      -2.021  12.664  19.905  0.00  0.00    +0.000 C 
ATOM      5  C   UNL     1      -0.782  12.293  20.282  0.00  0.00    +0.000 C 
ATOM      6  O   UNL     1       0.008  13.078  21.120  0.00  0.00    +0.000 OA
ATOM      7  C   UNL     1      -0.453  14.330  21.557  0.00  0.00    +0.000 C 
ATOM      8  C   UNL     1      -1.685  14.776  21.233  0.00  0.00    +0.000 C 
ATOM      9  C   UNL     1      -2.630  13.957  20.383  0.00  0.00    +0.000 C 
ATOM     10  C   UNL     1      -0.244  10.991  19.851  0.00  0.00    +0.000 C 
ATOM     11  C   UNL     1       1.067  10.672  19.882  0.00  0.00    +0.000 C 
ATOM     12  C   UNL     1      -1.332  10.053  19.332  0.00  0.00    +0.000 C 
ENDROOT
BRANCH   9  13
ATOM     13  C   UNL     1      -3.944  13.703  21.125  0.00  0.00    +0.000 A 
ATOM     14  C   UNL     1      -5.151  14.182  20.570  0.00  0.00    +0.000 A 
ATOM     15  C   UNL     1      -6.374  13.922  21.190  0.00  0.00    +0.000 A 
ATOM     16  C   UNL     1      -6.405  13.180  22.365  0.00  0.00    +0.000 A 
ATOM     17 CL   UNL     1      -7.916  12.829  23.110  0.00  0.00    +0.000 Cl
ATOM     18  C   UNL     1      -5.227  12.717  22.943  0.00  0.00    +0.000 A 
ATOM     19  C   UNL     1      -3.999  12.982  22.331  0.00  0.00    +0.000 A 
ATOM     20 CL   UNL     1      -2.582  12.391  23.122  0.00  0.00    +0.000 Cl
ENDBRANCH   9  13
BRANCH  11  21
ATOM     21  C   UNL     1       1.628   9.393  19.398  0.00  0.00    +0.000 A 
ATOM     22  C   UNL     1       2.007   9.282  18.048  0.00  0.00    +0.000 A 
ATOM     23  C   UNL     1       2.457   8.064  17.524  0.00  0.00    +0.000 A 
ATOM     24  C   UNL     1       2.557   6.950  18.355  0.00  0.00    +0.000 A 
ATOM     25 CL   UNL     1       3.092   5.447  17.709  0.00  0.00    +0.000 Cl
ATOM     26  C   UNL     1       2.220   7.045  19.702  0.00  0.00    +0.000 A 
ATOM     27  C   UNL     1       1.753   8.260  20.220  0.00  0.00    +0.000 A 
ATOM     28 CL   UNL     1       1.322   8.303  21.895  0.00  0.00    +0.000 Cl
ENDBRANCH  11  21
BRANCH   7  29
ATOM     29  N   UNL     1       0.453  15.041  22.309  0.00  0.00    +0.000 N 
ATOM     30  H   UNL     1       0.057  15.563  23.084  0.00  0.00    +0.000 HD
ATOM     31  H   UNL     1       1.211  15.507  21.816  0.00  0.00    +0.000 HD
ENDBRANCH   7  29
BRANCH   8  32
ATOM     32  C   UNL     1      -2.155  16.054  21.680  0.00  0.00    +0.000 C 
ATOM     33  N   UNL     1      -2.557  17.065  22.067  0.00  0.00    +0.000 NA
ENDBRANCH   8  32
TORSDOF 4
ENDMDL
MODEL 4
REMARK VINA RESULT:      -6.2      0.977      1.340
REMARK  Name = 
REMARK  5 active torsions:
REMARK  status: ('A' for Active; 'I' for Inactive)
REMARK    1  A    between atoms: C_1  and  N_2
REMARK    2  A    between atoms: C_7  and  N_8
REMARK    3  A    between atoms: C_9  and  C_10
REMARK    4  A    between atoms: C_12  and  C_13
REMARK    5  A    between atoms: C_22  and  C_23
REMARK                            x       y       z     vdW  Elec       q    Type
REMARK                         _______ _______ _______ _____ _____    ______ ____
ROOT
ATOM      1  C   UNL     1       1.429   9.273  22.506  0.00  0.00    +0.000 C 
ATOM      2  N   UNL     1       0.789   9.153  21.199  0.00  0.00    +0.000 NA
ATOM      3  C   UNL     1      -0.265  10.157  21.051  0.00  0.00    +0.000 C 
ATOM      4  C   UNL     1      -0.808  10.235  19.644  0.00  0.00    +0.000 C 
ATOM      5  C   UNL     1      -0.203   9.651  18.592  0.00  0.00    +0.000 C 
ATOM      6  O   UNL     1      -0.720   9.724  17.300  0.00  0.00    +0.000 OA
ATOM      7  C   UNL     1      -1.942  10.374  17.064  0.00  0.00    +0.000 C 
ATOM      8  C   UNL     1      -2.612  10.992  18.060  0.00  0.00    +0.000 C 
ATOM      9  C   UNL     1      -2.085  11.018  19.477  0.00  0.00    +0.000 C 
ATOM     10  C   UNL     1       1.081   8.952  18.781  0.00  0.00    +0.000 C 
ATOM     11  C   UNL     1       1.591   8.068  17.898  0.00  0.00    +0.000 C 
ATOM     12  C   UNL     1       1.753   9.314  20.103  0.00  0.00    +0.000 C 
ENDROOT
BRANCH   9  13
ATOM     13  C   UNL     1      -1.916  12.457  19.967  0.00  0.00    +0.000 A 
ATOM     14  C   UNL     1      -2.743  12.931  21.009  0.00  0.00    +0.000 A 
ATOM     15  C   UNL     1      -2.579  14.219  21.519  0.00  0.00    +0.000 A 
ATOM     16  C   UNL     1      -1.590  15.045  20.997  0.00  0.00    +0.000 A 
ATOM     17 CL   UNL     1      -1.366  16.621  21.650  0.00  0.00    +0.000 Cl
ATOM     18  C   UNL     1      -0.778  14.609  19.955  0.00  0.00    +0.000 A 
ATOM     19  C   UNL     1      -0.943  13.322  19.435  0.00  0.00    +0.000 A 
ATOM     20 CL   UNL     1       0.090  12.863  18.129  0.00  0.00    +0.000 Cl
ENDBRANCH   9  13
BRANCH  11  21
ATOM     21  C   UNL     1       2.848   7.315  18.101  0.00  0.00    +0.000 A 
ATOM     22  C   UNL     1       3.953   7.597  17.278  0.00  0.00    +0.000 A 
ATOM     23  C   UNL     1       5.132   6.848  17.373  0.00  0.00    +0.000 A 
ATOM     24  C   UNL     1       5.224   5.824  18.313  0.00  0.00    +0.000 A 
ATOM     25 CL   UNL     1       6.666   4.889  18.420  0.00  0.00    +0.000 Cl
ATOM     26  C   UNL     1       4.156   5.549  19.162  0.00  0.00    +0.000 A 
ATOM     27  C   UNL     1       2.971   6.288  19.052  0.00  0.00    +0.000 A 
ATOM     28 CL   UNL     1       1.670   5.876  20.116  0.00  0.00    +0.000 Cl
ENDBRANCH  11  21
BRANCH   7  29
ATOM     29  N   UNL     1      -2.383  10.303  15.764  0.00  0.00    +0.000 N 
ATOM     30  H   UNL     1      -1.794  10.769  15.081  0.00  0.00    +0.000 HD
ATOM     31  H   UNL     1      -3.384  10.387  15.600  0.00  0.00    +0.000 HD
ENDBRANCH   7  29
BRANCH   8  32
ATOM     32  C   UNL     1      -3.858  11.655  17.817  0.00  0.00    +0.000 C 
ATOM     33  N   UNL     1      -4.882  12.156  17.627  0.00  0.00    +0.000 NA
ENDBRANCH   8  32
TORSDOF 4
ENDMDL
MODEL 5
REMARK VINA RESULT:      -5.9      3.197      9.156
REMARK  Name = 
REMARK  5 active torsions:
REMARK  status: ('A' for Active; 'I' for Inactive)
REMARK    1  A    between atoms: C_1  and  N_2
REMARK    2  A    between atoms: C_7  and  N_8
REMARK    3  A    between atoms: C_9  and  C_10
REMARK    4  A    between atoms: C_12  and  C_13
REMARK    5  A    between atoms: C_22  and  C_23
REMARK                            x       y       z     vdW  Elec       q    Type
REMARK                         _______ _______ _______ _____ _____    ______ ____
ROOT
ATOM      1  C   UNL     1       2.560   9.894  17.601  0.00  0.00    +0.000 C 
ATOM      2  N   UNL     1       1.946   8.751  18.271  0.00  0.00    +0.000 NA
ATOM      3  C   UNL     1       2.681   7.523  17.965  0.00  0.00    +0.000 C 
ATOM      4  C   UNL     1       2.238   6.350  18.805  0.00  0.00    +0.000 C 
ATOM      5  C   UNL     1       1.459   6.482  19.896  0.00  0.00    +0.000 C 
ATOM      6  O   UNL     1       1.049   5.388  20.657  0.00  0.00    +0.000 OA
ATOM      7  C   UNL     1       1.399   4.086  20.267  0.00  0.00    +0.000 C 
ATOM      8  C   UNL     1       2.183   3.863  19.191  0.00  0.00    +0.000 C 
ATOM      9  C   UNL     1       2.724   4.997  18.351  0.00  0.00    +0.000 C 
ATOM     10  C   UNL     1       1.058   7.825  20.351  0.00  0.00    +0.000 C 
ATOM     11  C   UNL     1       0.035   8.056  21.201  0.00  0.00    +0.000 C 
ATOM     12  C   UNL     1       1.908   8.930  19.728  0.00  0.00    +0.000 C 
ENDROOT
BRANCH   9  13
ATOM     13  C   UNL     1       4.253   4.953  18.299  0.00  0.00    +0.000 A 
ATOM     14  C   UNL     1       4.991   5.317  19.446  0.00  0.00    +0.000 A 
ATOM     15  C   UNL     1       6.383   5.235  19.454  0.00  0.00    +0.000 A 
ATOM     16  C   UNL     1       7.052   4.788  18.320  0.00  0.00    +0.000 A 
ATOM     17 CL   UNL     1       8.767   4.654  18.342  0.00  0.00    +0.000 Cl
ATOM     18  C   UNL     1       6.348   4.445  17.170  0.00  0.00    +0.000 A 
ATOM     19  C   UNL     1       4.954   4.533  17.154  0.00  0.00    +0.000 A 
ATOM     20 CL   UNL     1       4.155   4.110  15.683  0.00  0.00    +0.000 Cl
ENDBRANCH   9  13
BRANCH  11  21
ATOM     21  C   UNL     1      -0.416   9.401  21.620  0.00  0.00    +0.000 A 
ATOM     22  C   UNL     1      -0.361   9.745  22.983  0.00  0.00    +0.000 A 
ATOM     23  C   UNL     1      -0.862  10.971  23.436  0.00  0.00    +0.000 A 
ATOM     24  C   UNL     1      -1.399  11.877  22.525  0.00  0.00    +0.000 A 
ATOM     25 CL   UNL     1      -2.033  13.377  23.082  0.00  0.00    +0.000 Cl
ATOM     26  C   UNL     1      -1.433  11.572  21.167  0.00  0.00    +0.000 A 
ATOM     27  C   UNL     1      -0.948  10.337  20.718  0.00  0.00    +0.000 A 
ATOM     28 CL   UNL     1      -1.048  10.008  19.022  0.00  0.00    +0.000 Cl
ENDBRANCH  11  21
BRANCH   7  29
ATOM     29  N   UNL     1       0.865   3.093  21.053  0.00  0.00    +0.000 N 
ATOM     30  H   UNL     1       1.193   2.154  20.847  0.00  0.00    +0.000 HD
ATOM     31  H   UNL     1      -0.121   3.162  21.295  0.00  0.00    +0.000 HD
ENDBRANCH   7  29
BRANCH   8  32
ATOM     32  C   UNL     1       2.539   2.533  18.794  0.00  0.00    +0.000 C 
ATOM     33  N   UNL     1       2.862   1.467  18.489  0.00  0.00    +0.000 NA
ENDBRANCH   8  32
TORSDOF 4
ENDMDL
MODEL 6
REMARK VINA RESULT:      -5.8      2.953      4.534
REMARK  Name = 
REMARK  5 active torsions:
REMARK  status: ('A' for Active; 'I' for Inactive)
REMARK    1  A    between atoms: C_1  and  N_2
REMARK    2  A    between atoms: C_7  and  N_8
REMARK    3  A    between atoms: C_9  and  C_10
REMARK    4  A    between atoms: C_12  and  C_13
REMARK    5  A    between atoms: C_22  and  C_23
REMARK                            x       y       z     vdW  Elec       q    Type
REMARK                         _______ _______ _______ _____ _____    ______ ____
ROOT
ATOM      1  C   UNL     1       3.271   7.723  16.772  0.00  0.00    +0.000 C 
ATOM      2  N   UNL     1       2.857   7.832  18.167  0.00  0.00    +0.000 NA
ATOM      3  C   UNL     1       1.979   8.989  18.352  0.00  0.00    +0.000 C 
ATOM      4  C   UNL     1       1.336   9.026  19.717  0.00  0.00    +0.000 C 
ATOM      5  C   UNL     1       1.346   7.975  20.560  0.00  0.00    +0.000 C 
ATOM      6  O   UNL     1       0.756   8.027  21.822  0.00  0.00    +0.000 OA
ATOM      7  C   UNL     1       0.170   9.218  22.280  0.00  0.00    +0.000 C 
ATOM      8  C   UNL     1       0.109  10.316  21.497  0.00  0.00    +0.000 C 
ATOM      9  C   UNL     1       0.666  10.324  20.091  0.00  0.00    +0.000 C 
ATOM     10  C   UNL     1       1.949   6.700  20.134  0.00  0.00    +0.000 C 
ATOM     11  C   UNL     1       2.310   5.718  20.988  0.00  0.00    +0.000 C 
ATOM     12  C   UNL     1       2.152   6.627  18.623  0.00  0.00    +0.000 C 
ENDROOT
BRANCH   9  13
ATOM     13  C   UNL     1      -0.420  10.693  19.079  0.00  0.00    +0.000 A 
ATOM     14  C   UNL     1      -1.383   9.725  18.719  0.00  0.00    +0.000 A 
ATOM     15  C   UNL     1      -2.420  10.043  17.843  0.00  0.00    +0.000 A 
ATOM     16  C   UNL     1      -2.509  11.328  17.319  0.00  0.00    +0.000 A 
ATOM     17 CL   UNL     1      -3.808  11.729  16.265  0.00  0.00    +0.000 Cl
ATOM     18  C   UNL     1      -1.559  12.292  17.641  0.00  0.00    +0.000 A 
ATOM     19  C   UNL     1      -0.513  11.977  18.512  0.00  0.00    +0.000 A 
ATOM     20 CL   UNL     1       0.636  13.222  18.845  0.00  0.00    +0.000 Cl
ENDBRANCH   9  13
BRANCH  11  21
ATOM     21  C   UNL     1       2.970   4.459  20.581  0.00  0.00    +0.000 A 
ATOM     22  C   UNL     1       4.119   4.522  19.772  0.00  0.00    +0.000 A 
ATOM     23  C   UNL     1       4.723   3.354  19.289  0.00  0.00    +0.000 A 
ATOM     24  C   UNL     1       4.197   2.112  19.632  0.00  0.00    +0.000 A 
ATOM     25 CL   UNL     1       4.927   0.676  19.024  0.00  0.00    +0.000 Cl
ATOM     26  C   UNL     1       3.081   2.024  20.460  0.00  0.00    +0.000 A 
ATOM     27  C   UNL     1       2.467   3.193  20.927  0.00  0.00    +0.000 A 
ATOM     28 CL   UNL     1       1.066   3.016  21.926  0.00  0.00    +0.000 Cl
ENDBRANCH  11  21
BRANCH   7  29
ATOM     29  N   UNL     1      -0.302   9.161  23.570  0.00  0.00    +0.000 N 
ATOM     30  H   UNL     1      -0.921   8.382  23.770  0.00  0.00    +0.000 HD
ATOM     31  H   UNL     1      -0.553  10.039  24.019  0.00  0.00    +0.000 HD
ENDBRANCH   7  29
BRANCH   8  32
ATOM     32  C   UNL     1      -0.489  11.530  21.966  0.00  0.00    +0.000 C 
ATOM     33  N   UNL     1      -0.976  12.493  22.380  0.00  0.00    +0.000 NA
ENDBRANCH   8  32
TORSDOF 4
ENDMDL
MODEL 7
REMARK VINA RESULT:      -5.7      2.951      8.300
REMARK  Name = 
REMARK  5 active torsions:
REMARK  status: ('A' for Active; 'I' for Inactive)
REMARK    1  A    between atoms: C_1  and  N_2
REMARK    2  A    between atoms: C_7  and  N_8
REMARK    3  A    between atoms: C_9  and  C_10
REMARK    4  A    between atoms: C_12  and  C_13
REMARK    5  A    between atoms: C_22  and  C_23
REMARK                            x       y       z     vdW  Elec       q    Type
REMARK                         _______ _______ _______ _____ _____    ______ ____
ROOT
ATOM      1  C   UNL     1       2.990  14.233  21.211  0.00  0.00    +0.000 C 
ATOM      2  N   UNL     1       1.600  14.061  20.799  0.00  0.00    +0.000 NA
ATOM      3  C   UNL     1       1.466  12.896  19.924  0.00  0.00    +0.000 C 
ATOM      4  C   UNL     1       0.027  12.530  19.649  0.00  0.00    +0.000 C 
ATOM      5  C   UNL     1      -1.005  13.040  20.349  0.00  0.00    +0.000 C 
ATOM      6  O   UNL     1      -2.329  12.700  20.078  0.00  0.00    +0.000 OA
ATOM      7  C   UNL     1      -2.634  11.842  19.010  0.00  0.00    +0.000 C 
ATOM      8  C   UNL     1      -1.661  11.281  18.261  0.00  0.00    +0.000 C 
ATOM      9  C   UNL     1      -0.197  11.544  18.531  0.00  0.00    +0.000 C 
ATOM     10  C   UNL     1      -0.744  13.948  21.480  0.00  0.00    +0.000 C 
ATOM     11  C   UNL     1      -1.677  14.761  22.020  0.00  0.00    +0.000 C 
ATOM     12  C   UNL     1       0.707  13.892  21.952  0.00  0.00    +0.000 C 
ENDROOT
BRANCH   9  13
ATOM     13  C   UNL     1       0.550  10.235  18.795  0.00  0.00    +0.000 A 
ATOM     14  C   UNL     1       1.367   9.693  17.779  0.00  0.00    +0.000 A 
ATOM     15  C   UNL     1       2.107   8.531  18.003  0.00  0.00    +0.000 A 
ATOM     16  C   UNL     1       2.040   7.902  19.241  0.00  0.00    +0.000 A 
ATOM     17 CL   UNL     1       2.980   6.489  19.528  0.00  0.00    +0.000 Cl
ATOM     18  C   UNL     1       1.225   8.405  20.250  0.00  0.00    +0.000 A 
ATOM     19  C   UNL     1       0.476   9.563  20.028  0.00  0.00    +0.000 A 
ATOM     20 CL   UNL     1      -0.527  10.111  21.322  0.00  0.00    +0.000 Cl
ENDBRANCH   9  13
BRANCH  11  21
ATOM     21  C   UNL     1      -1.416  15.720  23.115  0.00  0.00    +0.000 A 
ATOM     22  C   UNL     1      -1.576  15.295  24.446  0.00  0.00    +0.000 A 
ATOM     23  C   UNL     1      -1.428  16.192  25.511  0.00  0.00    +0.000 A 
ATOM     24  C   UNL     1      -1.094  17.520  25.254  0.00  0.00    +0.000 A 
ATOM     25 CL   UNL     1      -0.932  18.629  26.560  0.00  0.00    +0.000 Cl
ATOM     26  C   UNL     1      -0.899  17.955  23.946  0.00  0.00    +0.000 A 
ATOM     27  C   UNL     1      -1.064  17.061  22.882  0.00  0.00    +0.000 A 
ATOM     28 CL   UNL     1      -0.836  17.672  21.280  0.00  0.00    +0.000 Cl
ENDBRANCH  11  21
BRANCH   7  29
ATOM     29  N   UNL     1      -3.979  11.653  18.797  0.00  0.00    +0.000 N 
ATOM     30  H   UNL     1      -4.566  12.457  18.998  0.00  0.00    +0.000 HD
ATOM     31  H   UNL     1      -4.376  10.753  19.057  0.00  0.00    +0.000 HD
ENDBRANCH   7  29
BRANCH   8  32
ATOM     32  C   UNL     1      -1.974  10.405  17.171  0.00  0.00    +0.000 C 
ATOM     33  N   UNL     1      -2.241   9.673  16.319  0.00  0.00    +0.000 NA
ENDBRANCH   8  32
TORSDOF 4
ENDMDL
MODEL 8
REMARK VINA RESULT:      -5.7      1.794      2.082
REMARK  Name = 
REMARK  5 active torsions:
REMARK  status: ('A' for Active; 'I' for Inactive)
REMARK    1  A    between atoms: C_1  and  N_2
REMARK    2  A    between atoms: C_7  and  N_8
REMARK    3  A    between atoms: C_9  and  C_10
REMARK    4  A    between atoms: C_12  and  C_13
REMARK    5  A    between atoms: C_22  and  C_23
REMARK                            x       y       z     vdW  Elec       q    Type
REMARK                         _______ _______ _______ _____ _____    ______ ____
ROOT
ATOM      1  C   UNL     1       1.652   9.115  23.436  0.00  0.00    +0.000 C 
ATOM      2  N   UNL     1       0.841   9.343  22.243  0.00  0.00    +0.000 NA
ATOM      3  C   UNL     1      -0.051  10.486  22.442  0.00  0.00    +0.000 C 
ATOM      4  C   UNL     1      -0.748  10.914  21.173  0.00  0.00    +0.000 C 
ATOM      5  C   UNL     1      -0.380  10.479  19.953  0.00  0.00    +0.000 C 
ATOM      6  O   UNL     1      -1.039  10.875  18.790  0.00  0.00    +0.000 OA
ATOM      7  C   UNL     1      -2.162  11.714  18.866  0.00  0.00    +0.000 C 
ATOM      8  C   UNL     1      -2.594  12.203  20.047  0.00  0.00    +0.000 C 
ATOM      9  C   UNL     1      -1.896  11.875  21.348  0.00  0.00    +0.000 C 
ATOM     10  C   UNL     1       0.790   9.594  19.813  0.00  0.00    +0.000 C 
ATOM     11  C   UNL     1       1.039   8.845  18.717  0.00  0.00    +0.000 C 
ATOM     12  C   UNL     1       1.673   9.593  21.059  0.00  0.00    +0.000 C 
ENDROOT
BRANCH   9  13
ATOM     13  C   UNL     1      -1.440  13.153  22.055  0.00  0.00    +0.000 A 
ATOM     14  C   UNL     1      -0.389  13.912  21.495  0.00  0.00    +0.000 A 
ATOM     15  C   UNL     1       0.015  15.111  22.082  0.00  0.00    +0.000 A 
ATOM     16  C   UNL     1      -0.624  15.565  23.230  0.00  0.00    +0.000 A 
ATOM     17 CL   UNL     1      -0.148  17.061  23.933  0.00  0.00    +0.000 Cl
ATOM     18  C   UNL     1      -1.646  14.823  23.813  0.00  0.00    +0.000 A 
ATOM     19  C   UNL     1      -2.051  13.618  23.234  0.00  0.00    +0.000 A 
ATOM     20 CL   UNL     1      -3.311  12.746  24.030  0.00  0.00    +0.000 Cl
ENDBRANCH   9  13
BRANCH  11  21
ATOM     21  C   UNL     1       2.176   7.909  18.586  0.00  0.00    +0.000 A 
ATOM     22  C   UNL     1       3.143   8.146  17.593  0.00  0.00    +0.000 A 
ATOM     23  C   UNL     1       4.186   7.238  17.373  0.00  0.00    +0.000 A 
ATOM     24  C   UNL     1       4.285   6.095  18.163  0.00  0.00    +0.000 A 
ATOM     25 CL   UNL     1       5.554   4.968  17.881  0.00  0.00    +0.000 Cl
ATOM     26  C   UNL     1       3.358   5.857  19.174  0.00  0.00    +0.000 A 
ATOM     27  C   UNL     1       2.305   6.757  19.380  0.00  0.00    +0.000 A 
ATOM     28 CL   UNL     1       1.170   6.387  20.632  0.00  0.00    +0.000 Cl
ENDBRANCH  11  21
BRANCH   7  29
ATOM     29  N   UNL     1      -2.769  11.963  17.657  0.00  0.00    +0.000 N 
ATOM     30  H   UNL     1      -3.521  12.646  17.683  0.00  0.00    +0.000 HD
ATOM     31  H   UNL     1      -2.926  11.172  17.036  0.00  0.00    +0.000 HD
ENDBRANCH   7  29
BRANCH   8  32
ATOM     32  C   UNL     1      -3.741  13.059  20.122  0.00  0.00    +0.000 C 
ATOM     33  N   UNL     1      -4.669  13.739  20.221  0.00  0.00    +0.000 NA
ENDBRANCH   8  32
TORSDOF 4
ENDMDL
MODEL 9
REMARK VINA RESULT:      -5.6      5.691      6.808
REMARK  Name = 
REMARK  5 active torsions:
REMARK  status: ('A' for Active; 'I' for Inactive)
REMARK    1  A    between atoms: C_1  and  N_2
REMARK    2  A    between atoms: C_7  and  N_8
REMARK    3  A    between atoms: C_9  and  C_10
REMARK    4  A    between atoms: C_12  and  C_13
REMARK    5  A    between atoms: C_22  and  C_23
REMARK                            x       y       z     vdW  Elec       q    Type
REMARK                         _______ _______ _______ _____ _____    ______ ____
ROOT
ATOM      1  C   UNL     1       0.415  18.130  21.410  0.00  0.00    +0.000 C 
ATOM      2  N   UNL     1       0.398  16.726  21.809  0.00  0.00    +0.000 NA
ATOM      3  C   UNL     1      -0.943  16.335  22.246  0.00  0.00    +0.000 C 
ATOM      4  C   UNL     1      -1.082  14.846  22.453  0.00  0.00    +0.000 C 
ATOM      5  C   UNL     1      -0.168  13.957  22.018  0.00  0.00    +0.000 C 
ATOM      6  O   UNL     1      -0.305  12.586  22.225  0.00  0.00    +0.000 OA
ATOM      7  C   UNL     1      -1.394  12.087  22.956  0.00  0.00    +0.000 C 
ATOM      8  C   UNL     1      -2.361  12.906  23.421  0.00  0.00    +0.000 C 
ATOM      9  C   UNL     1      -2.322  14.398  23.183  0.00  0.00    +0.000 C 
ATOM     10  C   UNL     1       0.998  14.424  21.248  0.00  0.00    +0.000 C 
ATOM     11  C   UNL     1       2.117  13.692  21.061  0.00  0.00    +0.000 C 
ATOM     12  C   UNL     1       0.814  15.842  20.712  0.00  0.00    +0.000 C 
ENDROOT
BRANCH   9  13
ATOM     13  C   UNL     1      -3.586  14.864  22.457  0.00  0.00    +0.000 A 
ATOM     14  C   UNL     1      -3.835  14.403  21.145  0.00  0.00    +0.000 A 
ATOM     15  C   UNL     1      -5.003  14.762  20.473  0.00  0.00    +0.000 A 
ATOM     16  C   UNL     1      -5.934  15.582  21.101  0.00  0.00    +0.000 A 
ATOM     17 CL   UNL     1      -7.391  15.995  20.285  0.00  0.00    +0.000 Cl
ATOM     18  C   UNL     1      -5.700  16.067  22.384  0.00  0.00    +0.000 A 
ATOM     19  C   UNL     1      -4.528  15.717  23.059  0.00  0.00    +0.000 A 
ATOM     20 CL   UNL     1      -4.302  16.378  24.638  0.00  0.00    +0.000 Cl
ENDBRANCH   9  13
BRANCH  11  21
ATOM     21  C   UNL     1       3.317  14.169  20.341  0.00  0.00    +0.000 A 
ATOM     22  C   UNL     1       4.362  14.761  21.074  0.00  0.00    +0.000 A 
ATOM     23  C   UNL     1       5.476  15.309  20.426  0.00  0.00    +0.000 A 
ATOM     24  C   UNL     1       5.567  15.245  19.038  0.00  0.00    +0.000 A 
ATOM     25 CL   UNL     1       6.926  15.935  18.237  0.00  0.00    +0.000 Cl
ATOM     26  C   UNL     1       4.561  14.634  18.294  0.00  0.00    +0.000 A 
ATOM     27  C   UNL     1       3.440  14.103  18.942  0.00  0.00    +0.000 A 
ATOM     28 CL   UNL     1       2.212  13.384  17.958  0.00  0.00    +0.000 Cl
ENDBRANCH  11  21
BRANCH   7  29
ATOM     29  N   UNL     1      -1.369  10.727  23.159  0.00  0.00    +0.000 N 
ATOM     30  H   UNL     1      -1.177  10.436  24.113  0.00  0.00    +0.000 HD
ATOM     31  H   UNL     1      -0.944  10.150  22.437  0.00  0.00    +0.000 HD
ENDBRANCH   7  29
BRANCH   8  32
ATOM     32  C   UNL     1      -3.472  12.394  24.167  0.00  0.00    +0.000 C 
ATOM     33  N   UNL     1      -4.380  11.962  24.736  0.00  0.00    +0.000 NA
ENDBRANCH   8  32
TORSDOF 4
ENDMDL
