MODEL 1
REMARK VINA RESULT:      -7.6      0.000      0.000
REMARK  Name = 
REMARK  1 active torsions:
REMARK  status: ('A' for Active; 'I' for Inactive)
REMARK    1  A    between atoms: C_5  and  C_6
REMARK                            x       y       z     vdW  Elec       q    Type
REMARK                         _______ _______ _______ _____ _____    ______ ____
ROOT
ATOM      1  N   UNL     1       1.879  10.482  17.539  0.00  0.00    +0.000 NA
ATOM      2  C   UNL     1       1.803   9.535  18.409  0.00  0.00    +0.000 C 
ATOM      3  S   UNL     1       2.393   7.956  17.990  0.00  0.00    +0.000 S 
ATOM      4  C   UNL     1       2.001   7.333  19.541  0.00  0.00    +0.000 C 
ATOM      5  C   UNL     1       2.159   6.074  19.971  0.00  0.00    +0.000 C 
ATOM      6  C   UNL     1       1.421   8.406  20.408  0.00  0.00    +0.000 C 
ATOM      7  O   UNL     1       1.057   8.166  21.551  0.00  0.00    +0.000 OA
ATOM      8  N   UNL     1       1.345   9.592  19.695  0.00  0.00    +0.000 N 
ATOM      9  C   UNL     1       0.859  10.759  20.300  0.00  0.00    +0.000 A 
ATOM     10  N   UNL     1       0.845  10.943  21.628  0.00  0.00    +0.000 NA
ATOM     11  O   UNL     1       0.338  12.209  21.841  0.00  0.00    +0.000 OA
ATOM     12  N   UNL     1      -0.005  12.819  20.649  0.00  0.00    +0.000 NA
ATOM     13  C   UNL     1       0.298  11.936  19.703  0.00  0.00    +0.000 A 
ATOM     14  N   UNL     1       0.045  12.143  18.393  0.00  0.00    +0.000 N 
ATOM     15  H   UNL     1       2.309  10.076  16.693  0.00  0.00    +0.000 HD
ATOM     16  H   UNL     1      -0.138  13.099  18.112  0.00  0.00    +0.000 HD
ATOM     17  H   UNL     1       0.664  11.663  17.727  0.00  0.00    +0.000 HD
ENDROOT
BRANCH   5  18
ATOM     18  C   UNL     1       2.757   4.995  19.183  0.00  0.00    +0.000 A 
ATOM     19  C   UNL     1       4.125   4.728  19.314  0.00  0.00    +0.000 A 
ATOM     20  C   UNL     1       4.721   3.725  18.547  0.00  0.00    +0.000 A 
ATOM     21  C   UNL     1       3.953   2.983  17.652  0.00  0.00    +0.000 A 
ATOM     22  C   UNL     1       2.589   3.242  17.520  0.00  0.00    +0.000 A 
ATOM     23  C   UNL     1       1.990   4.247  18.283  0.00  0.00    +0.000 A 
ENDBRANCH   5  18
TORSDOF 1
ENDMDL
MODEL 2
REMARK VINA RESULT:      -7.6      0.051      1.082
REMARK  Name = 
REMARK  1 active torsions:
REMARK  status: ('A' for Active; 'I' for Inactive)
REMARK    1  A    between atoms: C_5  and  C_6
REMARK                            x       y       z     vdW  Elec       q    Type
REMARK                         _______ _______ _______ _____ _____    ______ ____
ROOT
ATOM      1  N   UNL     1       1.885  10.525  17.558  0.00  0.00    +0.000 NA
ATOM      2  C   UNL     1       1.806   9.575  18.424  0.00  0.00    +0.000 C 
ATOM      3  S   UNL     1       2.401   7.999  18.002  0.00  0.00    +0.000 S 
ATOM      4  C   UNL     1       2.000   7.368  19.547  0.00  0.00    +0.000 C 
ATOM      5  C   UNL     1       2.157   6.107  19.973  0.00  0.00    +0.000 C 
ATOM      6  C   UNL     1       1.411   8.436  20.415  0.00  0.00    +0.000 C 
ATOM      7  O   UNL     1       1.039   8.190  21.554  0.00  0.00    +0.000 OA
ATOM      8  N   UNL     1       1.338   9.625  19.707  0.00  0.00    +0.000 N 
ATOM      9  C   UNL     1       0.845  10.788  20.314  0.00  0.00    +0.000 A 
ATOM     10  N   UNL     1       0.821  10.966  21.642  0.00  0.00    +0.000 NA
ATOM     11  O   UNL     1       0.309  12.231  21.857  0.00  0.00    +0.000 OA
ATOM     12  N   UNL     1      -0.026  12.845  20.666  0.00  0.00    +0.000 NA
ATOM     13  C   UNL     1       0.286  11.966  19.718  0.00  0.00    +0.000 A 
ATOM     14  N   UNL     1       0.042  12.179  18.407  0.00  0.00    +0.000 N 
ATOM     15  H   UNL     1       2.323  10.124  16.714  0.00  0.00    +0.000 HD
ATOM     16  H   UNL     1      -0.141  13.137  18.128  0.00  0.00    +0.000 HD
ATOM     17  H   UNL     1       0.667  11.704  17.743  0.00  0.00    +0.000 HD
ENDROOT
BRANCH   5  18
ATOM     18  C   UNL     1       2.763   5.033  19.184  0.00  0.00    +0.000 A 
ATOM     19  C   UNL     1       1.963   4.294  18.305  0.00  0.00    +0.000 A 
ATOM     20  C   UNL     1       2.514   3.244  17.568  0.00  0.00    +0.000 A 
ATOM     21  C   UNL     1       3.866   2.934  17.702  0.00  0.00    +0.000 A 
ATOM     22  C   UNL     1       4.669   3.670  18.573  0.00  0.00    +0.000 A 
ATOM     23  C   UNL     1       4.119   4.718  19.314  0.00  0.00    +0.000 A 
ENDBRANCH   5  18
TORSDOF 1
ENDMDL
MODEL 3
REMARK VINA RESULT:      -7.3      1.606      1.819
REMARK  Name = 
REMARK  1 active torsions:
REMARK  status: ('A' for Active; 'I' for Inactive)
REMARK    1  A    between atoms: C_5  and  C_6
REMARK                            x       y       z     vdW  Elec       q    Type
REMARK                         _______ _______ _______ _____ _____    ______ ____
ROOT
ATOM      1  N   UNL     1       0.517  10.943  18.192  0.00  0.00    +0.000 NA
ATOM      2  C   UNL     1       0.966   9.899  18.798  0.00  0.00    +0.000 C 
ATOM      3  S   UNL     1       1.909   8.746  17.905  0.00  0.00    +0.000 S 
ATOM      4  C   UNL     1       2.131   7.762  19.294  0.00  0.00    +0.000 C 
ATOM      5  C   UNL     1       2.786   6.595  19.363  0.00  0.00    +0.000 C 
ATOM      6  C   UNL     1       1.469   8.378  20.487  0.00  0.00    +0.000 C 
ATOM      7  O   UNL     1       1.494   7.826  21.578  0.00  0.00    +0.000 OA
ATOM      8  N   UNL     1       0.844   9.559  20.116  0.00  0.00    +0.000 N 
ATOM      9  C   UNL     1       0.174  10.340  21.066  0.00  0.00    +0.000 A 
ATOM     10  N   UNL     1       0.428  10.271  22.381  0.00  0.00    +0.000 NA
ATOM     11  O   UNL     1      -0.391  11.205  22.986  0.00  0.00    +0.000 OA
ATOM     12  N   UNL     1      -1.193  11.844  22.059  0.00  0.00    +0.000 NA
ATOM     13  C   UNL     1      -0.864  11.313  20.885  0.00  0.00    +0.000 A 
ATOM     14  N   UNL     1      -1.484  11.638  19.731  0.00  0.00    +0.000 N 
ATOM     15  H   UNL     1       0.833  10.878  17.212  0.00  0.00    +0.000 HD
ATOM     16  H   UNL     1      -2.028  12.494  19.732  0.00  0.00    +0.000 HD
ATOM     17  H   UNL     1      -0.927  11.544  18.871  0.00  0.00    +0.000 HD
ENDROOT
BRANCH   5  18
ATOM     18  C   UNL     1       3.485   5.967  18.241  0.00  0.00    +0.000 A 
ATOM     19  C   UNL     1       3.203   4.635  17.917  0.00  0.00    +0.000 A 
ATOM     20  C   UNL     1       3.883   4.007  16.872  0.00  0.00    +0.000 A 
ATOM     21  C   UNL     1       4.842   4.709  16.144  0.00  0.00    +0.000 A 
ATOM     22  C   UNL     1       5.123   6.038  16.459  0.00  0.00    +0.000 A 
ATOM     23  C   UNL     1       4.448   6.667  17.507  0.00  0.00    +0.000 A 
ENDBRANCH   5  18
TORSDOF 1
ENDMDL
MODEL 4
REMARK VINA RESULT:      -7.2      1.426      1.436
REMARK  Name = 
REMARK  1 active torsions:
REMARK  status: ('A' for Active; 'I' for Inactive)
REMARK    1  A    between atoms: C_5  and  C_6
REMARK                            x       y       z     vdW  Elec       q    Type
REMARK                         _______ _______ _______ _____ _____    ______ ____
ROOT
ATOM      1  N   UNL     1       0.722  10.985  18.086  0.00  0.00    +0.000 NA
ATOM      2  C   UNL     1       1.083   9.934  18.737  0.00  0.00    +0.000 C 
ATOM      3  S   UNL     1       1.984   8.699  17.913  0.00  0.00    +0.000 S 
ATOM      4  C   UNL     1       2.096   7.746  19.337  0.00  0.00    +0.000 C 
ATOM      5  C   UNL     1       2.673   6.544  19.463  0.00  0.00    +0.000 C 
ATOM      6  C   UNL     1       1.430   8.437  20.486  0.00  0.00    +0.000 C 
ATOM      7  O   UNL     1       1.381   7.918  21.593  0.00  0.00    +0.000 OA
ATOM      8  N   UNL     1       0.893   9.642  20.059  0.00  0.00    +0.000 N 
ATOM      9  C   UNL     1       0.239  10.491  20.961  0.00  0.00    +0.000 A 
ATOM     10  N   UNL     1       0.441  10.447  22.285  0.00  0.00    +0.000 NA
ATOM     11  O   UNL     1      -0.340  11.446  22.833  0.00  0.00    +0.000 OA
ATOM     12  N   UNL     1      -1.067  12.105  21.859  0.00  0.00    +0.000 NA
ATOM     13  C   UNL     1      -0.730  11.519  20.714  0.00  0.00    +0.000 A 
ATOM     14  N   UNL     1      -1.286  11.846  19.528  0.00  0.00    +0.000 N 
ATOM     15  H   UNL     1       1.068  10.871  17.121  0.00  0.00    +0.000 HD
ATOM     16  H   UNL     1      -1.776  12.733  19.484  0.00  0.00    +0.000 HD
ATOM     17  H   UNL     1      -0.706  11.692  18.693  0.00  0.00    +0.000 HD
ENDROOT
BRANCH   5  18
ATOM     18  C   UNL     1       3.373   5.841  18.387  0.00  0.00    +0.000 A 
ATOM     19  C   UNL     1       4.373   6.508  17.669  0.00  0.00    +0.000 A 
ATOM     20  C   UNL     1       5.029   5.866  16.617  0.00  0.00    +0.000 A 
ATOM     21  C   UNL     1       4.693   4.556  16.282  0.00  0.00    +0.000 A 
ATOM     22  C   UNL     1       3.701   3.885  16.997  0.00  0.00    +0.000 A 
ATOM     23  C   UNL     1       3.040   4.526  18.047  0.00  0.00    +0.000 A 
ENDBRANCH   5  18
TORSDOF 1
ENDMDL
MODEL 5
REMARK VINA RESULT:      -7.0      1.731      2.010
REMARK  Name = 
REMARK  1 active torsions:
REMARK  status: ('A' for Active; 'I' for Inactive)
REMARK    1  A    between atoms: C_5  and  C_6
REMARK                            x       y       z     vdW  Elec       q    Type
REMARK                         _______ _______ _______ _____ _____    ______ ____
ROOT
ATOM      1  N   UNL     1       1.955  10.202  17.423  0.00  0.00    +0.000 NA
ATOM      2  C   UNL     1       2.177   9.103  18.056  0.00  0.00    +0.000 C 
ATOM      3  S   UNL     1       3.362   7.996  17.433  0.00  0.00    +0.000 S 
ATOM      4  C   UNL     1       3.112   6.903  18.733  0.00  0.00    +0.000 C 
ATOM      5  C   UNL     1       3.705   5.716  18.919  0.00  0.00    +0.000 C 
ATOM      6  C   UNL     1       2.093   7.443  19.687  0.00  0.00    +0.000 C 
ATOM      7  O   UNL     1       1.755   6.809  20.676  0.00  0.00    +0.000 OA
ATOM      8  N   UNL     1       1.626   8.666  19.228  0.00  0.00    +0.000 N 
ATOM      9  C   UNL     1       0.680   9.391  19.965  0.00  0.00    +0.000 A 
ATOM     10  N   UNL     1       0.485   9.214  21.279  0.00  0.00    +0.000 NA
ATOM     11  O   UNL     1      -0.487  10.121  21.654  0.00  0.00    +0.000 OA
ATOM     12  N   UNL     1      -0.937  10.851  20.571  0.00  0.00    +0.000 NA
ATOM     13  C   UNL     1      -0.239  10.403  19.532  0.00  0.00    +0.000 A 
ATOM     14  N   UNL     1      -0.441  10.833  18.268  0.00  0.00    +0.000 N 
ATOM     15  H   UNL     1       2.578  10.204  16.601  0.00  0.00    +0.000 HD
ATOM     16  H   UNL     1      -0.954  11.700  18.159  0.00  0.00    +0.000 HD
ATOM     17  H   UNL     1       0.368  10.789  17.635  0.00  0.00    +0.000 HD
ENDROOT
BRANCH   5  18
ATOM     18  C   UNL     1       4.736   5.157  18.043  0.00  0.00    +0.000 A 
ATOM     19  C   UNL     1       6.085   5.332  18.373  0.00  0.00    +0.000 A 
ATOM     20  C   UNL     1       7.084   4.835  17.534  0.00  0.00    +0.000 A 
ATOM     21  C   UNL     1       6.740   4.157  16.367  0.00  0.00    +0.000 A 
ATOM     22  C   UNL     1       5.398   3.976  16.035  0.00  0.00    +0.000 A 
ATOM     23  C   UNL     1       4.396   4.475  16.870  0.00  0.00    +0.000 A 
ENDBRANCH   5  18
TORSDOF 1
ENDMDL
MODEL 6
REMARK VINA RESULT:      -6.9      2.727      3.470
REMARK  Name = 
REMARK  1 active torsions:
REMARK  status: ('A' for Active; 'I' for Inactive)
REMARK    1  A    between atoms: C_5  and  C_6
REMARK                            x       y       z     vdW  Elec       q    Type
REMARK                         _______ _______ _______ _____ _____    ______ ____
ROOT
ATOM      1  N   UNL     1       1.733   6.675  21.026  0.00  0.00    +0.000 NA
ATOM      2  C   UNL     1       2.220   7.102  19.913  0.00  0.00    +0.000 C 
ATOM      3  S   UNL     1       3.421   6.149  19.098  0.00  0.00    +0.000 S 
ATOM      4  C   UNL     1       3.525   7.276  17.807  0.00  0.00    +0.000 C 
ATOM      5  C   UNL     1       4.333   7.213  16.739  0.00  0.00    +0.000 C 
ATOM      6  C   UNL     1       2.570   8.409  18.018  0.00  0.00    +0.000 C 
ATOM      7  O   UNL     1       2.498   9.333  17.220  0.00  0.00    +0.000 OA
ATOM      8  N   UNL     1       1.892   8.230  19.215  0.00  0.00    +0.000 N 
ATOM      9  C   UNL     1       0.916   9.147  19.626  0.00  0.00    +0.000 A 
ATOM     10  N   UNL     1       0.277   9.965  18.777  0.00  0.00    +0.000 NA
ATOM     11  O   UNL     1      -0.626  10.685  19.535  0.00  0.00    +0.000 OA
ATOM     12  N   UNL     1      -0.536  10.352  20.873  0.00  0.00    +0.000 NA
ATOM     13  C   UNL     1       0.412   9.422  20.940  0.00  0.00    +0.000 A 
ATOM     14  N   UNL     1       0.837   8.886  22.104  0.00  0.00    +0.000 N 
ATOM     15  H   UNL     1       2.196   5.775  21.228  0.00  0.00    +0.000 HD
ATOM     16  H   UNL     1       0.235   9.011  22.909  0.00  0.00    +0.000 HD
ATOM     17  H   UNL     1       1.214   7.930  22.056  0.00  0.00    +0.000 HD
ENDROOT
BRANCH   5  18
ATOM     18  C   UNL     1       5.256   6.112  16.460  0.00  0.00    +0.000 A 
ATOM     19  C   UNL     1       6.433   5.998  17.209  0.00  0.00    +0.000 A 
ATOM     20  C   UNL     1       7.343   4.975  16.937  0.00  0.00    +0.000 A 
ATOM     21  C   UNL     1       7.077   4.059  15.921  0.00  0.00    +0.000 A 
ATOM     22  C   UNL     1       5.904   4.164  15.175  0.00  0.00    +0.000 A 
ATOM     23  C   UNL     1       4.994   5.189  15.442  0.00  0.00    +0.000 A 
ENDBRANCH   5  18
TORSDOF 1
ENDMDL
MODEL 7
REMARK VINA RESULT:      -6.9      1.807      2.417
REMARK  Name = 
REMARK  1 active torsions:
REMARK  status: ('A' for Active; 'I' for Inactive)
REMARK    1  A    between atoms: C_5  and  C_6
REMARK                            x       y       z     vdW  Elec       q    Type
REMARK                         _______ _______ _______ _____ _____    ______ ____
ROOT
ATOM      1  N   UNL     1       1.919  10.118  17.562  0.00  0.00    +0.000 NA
ATOM      2  C   UNL     1       2.192   8.999  18.136  0.00  0.00    +0.000 C 
ATOM      3  S   UNL     1       3.381   7.953  17.424  0.00  0.00    +0.000 S 
ATOM      4  C   UNL     1       3.206   6.798  18.681  0.00  0.00    +0.000 C 
ATOM      5  C   UNL     1       3.836   5.620  18.793  0.00  0.00    +0.000 C 
ATOM      6  C   UNL     1       2.208   7.268  19.693  0.00  0.00    +0.000 C 
ATOM      7  O   UNL     1       1.922   6.581  20.664  0.00  0.00    +0.000 OA
ATOM      8  N   UNL     1       1.694   8.496  19.306  0.00  0.00    +0.000 N 
ATOM      9  C   UNL     1       0.757   9.162  20.107  0.00  0.00    +0.000 A 
ATOM     10  N   UNL     1       0.614   8.923  21.418  0.00  0.00    +0.000 NA
ATOM     11  O   UNL     1      -0.367   9.785  21.867  0.00  0.00    +0.000 OA
ATOM     12  N   UNL     1      -0.874  10.550  20.833  0.00  0.00    +0.000 NA
ATOM     13  C   UNL     1      -0.202  10.166  19.752  0.00  0.00    +0.000 A 
ATOM     14  N   UNL     1      -0.461  10.646  18.516  0.00  0.00    +0.000 N 
ATOM     15  H   UNL     1       2.512  10.173  16.719  0.00  0.00    +0.000 HD
ATOM     16  H   UNL     1      -1.000  11.503  18.464  0.00  0.00    +0.000 HD
ATOM     17  H   UNL     1       0.326  10.651  17.854  0.00  0.00    +0.000 HD
ENDROOT
BRANCH   5  18
ATOM     18  C   UNL     1       4.849   5.128  17.858  0.00  0.00    +0.000 A 
ATOM     19  C   UNL     1       4.443   4.451  16.702  0.00  0.00    +0.000 A 
ATOM     20  C   UNL     1       5.393   3.944  15.814  0.00  0.00    +0.000 A 
ATOM     21  C   UNL     1       6.751   4.118  16.074  0.00  0.00    +0.000 A 
ATOM     22  C   UNL     1       7.162   4.795  17.221  0.00  0.00    +0.000 A 
ATOM     23  C   UNL     1       6.213   5.300  18.114  0.00  0.00    +0.000 A 
ENDBRANCH   5  18
TORSDOF 1
ENDMDL
MODEL 8
REMARK VINA RESULT:      -6.9      4.889      6.844
REMARK  Name = 
REMARK  1 active torsions:
REMARK  status: ('A' for Active; 'I' for Inactive)
REMARK    1  A    between atoms: C_5  and  C_6
REMARK                            x       y       z     vdW  Elec       q    Type
REMARK                         _______ _______ _______ _____ _____    ______ ____
ROOT
ATOM      1  N   UNL     1       3.782   6.509  19.264  0.00  0.00    +0.000 NA
ATOM      2  C   UNL     1       4.065   5.452  18.584  0.00  0.00    +0.000 C 
ATOM      3  S   UNL     1       4.907   5.620  17.074  0.00  0.00    +0.000 S 
ATOM      4  C   UNL     1       4.929   3.921  16.829  0.00  0.00    +0.000 C 
ATOM      5  C   UNL     1       5.430   3.262  15.775  0.00  0.00    +0.000 C 
ATOM      6  C   UNL     1       4.282   3.214  17.978  0.00  0.00    +0.000 C 
ATOM      7  O   UNL     1       4.177   1.996  17.993  0.00  0.00    +0.000 OA
ATOM      8  N   UNL     1       3.828   4.144  18.902  0.00  0.00    +0.000 N 
ATOM      9  C   UNL     1       3.208   3.728  20.087  0.00  0.00    +0.000 A 
ATOM     10  N   UNL     1       3.378   2.506  20.612  0.00  0.00    +0.000 NA
ATOM     11  O   UNL     1       2.648   2.480  21.784  0.00  0.00    +0.000 OA
ATOM     12  N   UNL     1       1.983   3.675  21.988  0.00  0.00    +0.000 NA
ATOM     13  C   UNL     1       2.309   4.438  20.949  0.00  0.00    +0.000 A 
ATOM     14  N   UNL     1       1.800   5.674  20.755  0.00  0.00    +0.000 N 
ATOM     15  H   UNL     1       4.143   7.313  18.727  0.00  0.00    +0.000 HD
ATOM     16  H   UNL     1       1.366   6.118  21.557  0.00  0.00    +0.000 HD
ATOM     17  H   UNL     1       2.388   6.333  20.228  0.00  0.00    +0.000 HD
ENDROOT
BRANCH   5  18
ATOM     18  C   UNL     1       6.108   3.896  14.643  0.00  0.00    +0.000 A 
ATOM     19  C   UNL     1       5.770   3.514  13.340  0.00  0.00    +0.000 A 
ATOM     20  C   UNL     1       6.428   4.083  12.248  0.00  0.00    +0.000 A 
ATOM     21  C   UNL     1       7.421   5.039  12.454  0.00  0.00    +0.000 A 
ATOM     22  C   UNL     1       7.759   5.426  13.751  0.00  0.00    +0.000 A 
ATOM     23  C   UNL     1       7.105   4.856  14.845  0.00  0.00    +0.000 A 
ENDBRANCH   5  18
TORSDOF 1
ENDMDL
MODEL 9
REMARK VINA RESULT:      -6.9      2.755      3.648
REMARK  Name = 
REMARK  1 active torsions:
REMARK  status: ('A' for Active; 'I' for Inactive)
REMARK    1  A    between atoms: C_5  and  C_6
REMARK                            x       y       z     vdW  Elec       q    Type
REMARK                         _______ _______ _______ _____ _____    ______ ____
ROOT
ATOM      1  N   UNL     1       1.794   6.623  20.997  0.00  0.00    +0.000 NA
ATOM      2  C   UNL     1       2.272   7.068  19.887  0.00  0.00    +0.000 C 
ATOM      3  S   UNL     1       3.480   6.137  19.056  0.00  0.00    +0.000 S 
ATOM      4  C   UNL     1       3.566   7.279  17.778  0.00  0.00    +0.000 C 
ATOM      5  C   UNL     1       4.370   7.237  16.706  0.00  0.00    +0.000 C 
ATOM      6  C   UNL     1       2.599   8.399  18.005  0.00  0.00    +0.000 C 
ATOM      7  O   UNL     1       2.514   9.330  17.217  0.00  0.00    +0.000 OA
ATOM      8  N   UNL     1       1.928   8.199  19.202  0.00  0.00    +0.000 N 
ATOM      9  C   UNL     1       0.943   9.101  19.627  0.00  0.00    +0.000 A 
ATOM     10  N   UNL     1       0.292   9.921  18.790  0.00  0.00    +0.000 NA
ATOM     11  O   UNL     1      -0.616  10.623  19.559  0.00  0.00    +0.000 OA
ATOM     12  N   UNL     1      -0.517  10.275  20.893  0.00  0.00    +0.000 NA
ATOM     13  C   UNL     1       0.442   9.356  20.946  0.00  0.00    +0.000 A 
ATOM     14  N   UNL     1       0.877   8.812  22.102  0.00  0.00    +0.000 N 
ATOM     15  H   UNL     1       2.267   5.726  21.187  0.00  0.00    +0.000 HD
ATOM     16  H   UNL     1       0.276   8.921  22.911  0.00  0.00    +0.000 HD
ATOM     17  H   UNL     1       1.264   7.861  22.043  0.00  0.00    +0.000 HD
ENDROOT
BRANCH   5  18
ATOM     18  C   UNL     1       5.305   6.149  16.412  0.00  0.00    +0.000 A 
ATOM     19  C   UNL     1       5.077   5.333  15.298  0.00  0.00    +0.000 A 
ATOM     20  C   UNL     1       5.937   4.270  15.018  0.00  0.00    +0.000 A 
ATOM     21  C   UNL     1       7.031   4.023  15.845  0.00  0.00    +0.000 A 
ATOM     22  C   UNL     1       7.265   4.835  16.954  0.00  0.00    +0.000 A 
ATOM     23  C   UNL     1       6.404   5.897  17.239  0.00  0.00    +0.000 A 
ENDBRANCH   5  18
TORSDOF 1
ENDMDL
