MODEL 1
REMARK VINA RESULT:      -6.3      0.000      0.000
REMARK  Name = 
REMARK  6 active torsions:
REMARK  status: ('A' for Active; 'I' for Inactive)
REMARK    1  A    between atoms: C_5  and  N_6
REMARK    2  A    between atoms: N_9  and  C_10
REMARK    3  A    between atoms: C_10  and  C_11
REMARK    4  A    between atoms: C_11  and  O_12
REMARK    5  A    between atoms: C_18  and  O_19
REMARK    6  A    between atoms: C_22  and  O_23
REMARK                            x       y       z     vdW  Elec       q    Type
REMARK                         _______ _______ _______ _____ _____    ______ ____
ROOT
ATOM      1  O   UNL     1       0.453   7.393  21.715  0.00  0.00    +0.000 OA
ATOM      2  C   UNL     1       1.085   7.722  20.722  0.00  0.00    +0.000 C 
ATOM      3  C   UNL     1       1.971   6.719  20.084  0.00  0.00    +0.000 C 
ATOM      4 CL   UNL     1       2.160   5.203  20.981  0.00  0.00    +0.000 Cl
ATOM      5  C   UNL     1       2.628   7.008  18.923  0.00  0.00    +0.000 C 
ATOM      6  C   UNL     1       2.433   8.369  18.308  0.00  0.00    +0.000 C 
ATOM      7  O   UNL     1       2.881   8.569  17.192  0.00  0.00    +0.000 OA
ATOM      8  C   UNL     1       1.655   9.447  18.993  0.00  0.00    +0.000 A 
ATOM      9  C   UNL     1       1.557  10.789  18.497  0.00  0.00    +0.000 A 
ATOM     10  C   UNL     1       0.815  11.733  19.206  0.00  0.00    +0.000 A 
ATOM     11  C   UNL     1       0.160  11.395  20.381  0.00  0.00    +0.000 A 
ATOM     12  C   UNL     1       0.232  10.095  20.882  0.00  0.00    +0.000 A 
ATOM     13  C   UNL     1       0.982   9.111  20.193  0.00  0.00    +0.000 A 
ENDROOT
BRANCH   5  14
ATOM     14  N   UNL     1       3.491   6.065  18.239  0.00  0.00    +0.000 N 
ATOM     15  C   UNL     1       4.934   6.275  18.197  0.00  0.00    +0.000 C 
ATOM     16  C   UNL     1       5.656   4.968  18.560  0.00  0.00    +0.000 C 
ATOM     17  N   UNL     1       5.222   3.849  17.693  0.00  0.00    +0.000 NA
ATOM     18  C   UNL     1       3.759   3.659  17.839  0.00  0.00    +0.000 C 
ATOM     19  C   UNL     1       2.990   4.940  17.453  0.00  0.00    +0.000 C 
BRANCH  17  20
ATOM     20  C   UNL     1       5.616   3.983  16.261  0.00  0.00    +0.000 C 
BRANCH  20  21
ATOM     21  C   UNL     1       7.097   4.316  16.056  0.00  0.00    +0.000 C 
BRANCH  21  22
ATOM     22  O   UNL     1       7.245   5.494  15.315  0.00  0.00    +0.000 OA
ATOM     23  H   UNL     1       6.335   5.875  15.209  0.00  0.00    +0.000 HD
ENDBRANCH  21  22
ENDBRANCH  20  21
ENDBRANCH  17  20
ENDBRANCH   5  14
BRANCH   9  24
ATOM     24  O   UNL     1       2.158  11.238  17.371  0.00  0.00    +0.000 OA
ATOM     25  H   UNL     1       1.958  12.038  16.877  0.00  0.00    +0.000 HD
ENDBRANCH   9  24
BRANCH  12  26
ATOM     26  O   UNL     1      -0.411   9.795  22.030  0.00  0.00    +0.000 OA
ATOM     27  H   UNL     1      -1.034  10.405  22.450  0.00  0.00    +0.000 HD
ENDBRANCH  12  26
TORSDOF 6
ENDMDL
MODEL 2
REMARK VINA RESULT:      -6.3      1.522      1.891
REMARK  Name = 
REMARK  6 active torsions:
REMARK  status: ('A' for Active; 'I' for Inactive)
REMARK    1  A    between atoms: C_5  and  N_6
REMARK    2  A    between atoms: N_9  and  C_10
REMARK    3  A    between atoms: C_10  and  C_11
REMARK    4  A    between atoms: C_11  and  O_12
REMARK    5  A    between atoms: C_18  and  O_19
REMARK    6  A    between atoms: C_22  and  O_23
REMARK                            x       y       z     vdW  Elec       q    Type
REMARK                         _______ _______ _______ _____ _____    ______ ____
ROOT
ATOM      1  O   UNL     1       1.846   5.759  21.041  0.00  0.00    +0.000 OA
ATOM      2  C   UNL     1       2.252   6.398  20.082  0.00  0.00    +0.000 C 
ATOM      3  C   UNL     1       3.272   5.780  19.201  0.00  0.00    +0.000 C 
ATOM      4 CL   UNL     1       3.935   4.243  19.781  0.00  0.00    +0.000 Cl
ATOM      5  C   UNL     1       3.692   6.415  18.069  0.00  0.00    +0.000 C 
ATOM      6  C   UNL     1       3.096   7.758  17.736  0.00  0.00    +0.000 C 
ATOM      7  O   UNL     1       3.342   8.247  16.646  0.00  0.00    +0.000 OA
ATOM      8  C   UNL     1       2.167   8.468  18.668  0.00  0.00    +0.000 A 
ATOM      9  C   UNL     1       1.684   9.799  18.442  0.00  0.00    +0.000 A 
ATOM     10  C   UNL     1       0.825  10.388  19.369  0.00  0.00    +0.000 A 
ATOM     11  C   UNL     1       0.421   9.705  20.507  0.00  0.00    +0.000 A 
ATOM     12  C   UNL     1       0.870   8.406  20.748  0.00  0.00    +0.000 A 
ATOM     13  C   UNL     1       1.748   7.778  19.832  0.00  0.00    +0.000 A 
ENDROOT
BRANCH   5  14
ATOM     14  N   UNL     1       4.670   5.856  17.156  0.00  0.00    +0.000 N 
ATOM     15  C   UNL     1       5.997   6.449  17.035  0.00  0.00    +0.000 C 
ATOM     16  C   UNL     1       7.063   5.344  17.094  0.00  0.00    +0.000 C 
ATOM     17  N   UNL     1       6.817   4.297  16.076  0.00  0.00    +0.000 NA
ATOM     18  C   UNL     1       5.479   3.701  16.305  0.00  0.00    +0.000 C 
ATOM     19  C   UNL     1       4.371   4.772  16.223  0.00  0.00    +0.000 C 
BRANCH  17  20
ATOM     20  C   UNL     1       6.980   4.750  14.665  0.00  0.00    +0.000 C 
BRANCH  20  21
ATOM     21  C   UNL     1       6.355   3.803  13.636  0.00  0.00    +0.000 C 
BRANCH  21  22
ATOM     22  O   UNL     1       6.886   4.032  12.361  0.00  0.00    +0.000 OA
ATOM     23  H   UNL     1       6.541   3.307  11.779  0.00  0.00    +0.000 HD
ENDBRANCH  21  22
ENDBRANCH  20  21
ENDBRANCH  17  20
ENDBRANCH   5  14
BRANCH   9  24
ATOM     24  O   UNL     1       2.015  10.566  17.377  0.00  0.00    +0.000 OA
ATOM     25  H   UNL     1       2.881  10.916  17.152  0.00  0.00    +0.000 HD
ENDBRANCH   9  24
BRANCH  12  26
ATOM     26  O   UNL     1       0.464   7.766  21.866  0.00  0.00    +0.000 OA
ATOM     27  H   UNL     1      -0.471   7.633  22.077  0.00  0.00    +0.000 HD
ENDBRANCH  12  26
TORSDOF 6
ENDMDL
MODEL 3
REMARK VINA RESULT:      -6.2      2.323      6.990
REMARK  Name = 
REMARK  6 active torsions:
REMARK  status: ('A' for Active; 'I' for Inactive)
REMARK    1  A    between atoms: C_5  and  N_6
REMARK    2  A    between atoms: N_9  and  C_10
REMARK    3  A    between atoms: C_10  and  C_11
REMARK    4  A    between atoms: C_11  and  O_12
REMARK    5  A    between atoms: C_18  and  O_19
REMARK    6  A    between atoms: C_22  and  O_23
REMARK                            x       y       z     vdW  Elec       q    Type
REMARK                         _______ _______ _______ _____ _____    ______ ____
ROOT
ATOM      1  O   UNL     1       2.859   3.364  19.418  0.00  0.00    +0.000 OA
ATOM      2  C   UNL     1       3.039   4.459  18.907  0.00  0.00    +0.000 C 
ATOM      3  C   UNL     1       2.326   5.629  19.473  0.00  0.00    +0.000 C 
ATOM      4 CL   UNL     1       1.123   5.248  20.717  0.00  0.00    +0.000 Cl
ATOM      5  C   UNL     1       2.560   6.886  18.996  0.00  0.00    +0.000 C 
ATOM      6  C   UNL     1       3.558   7.056  17.880  0.00  0.00    +0.000 C 
ATOM      7  O   UNL     1       3.891   8.186  17.569  0.00  0.00    +0.000 OA
ATOM      8  C   UNL     1       4.193   5.886  17.198  0.00  0.00    +0.000 A 
ATOM      9  C   UNL     1       5.046   6.007  16.051  0.00  0.00    +0.000 A 
ATOM     10  C   UNL     1       5.590   4.861  15.473  0.00  0.00    +0.000 A 
ATOM     11  C   UNL     1       5.328   3.602  15.993  0.00  0.00    +0.000 A 
ATOM     12  C   UNL     1       4.507   3.456  17.112  0.00  0.00    +0.000 A 
ATOM     13  C   UNL     1       3.932   4.597  17.721  0.00  0.00    +0.000 A 
ENDROOT
BRANCH   5  14
ATOM     14  N   UNL     1       1.913   8.072  19.520  0.00  0.00    +0.000 N 
ATOM     15  C   UNL     1       1.541   9.170  18.633  0.00  0.00    +0.000 C 
ATOM     16  C   UNL     1       0.098   9.605  18.927  0.00  0.00    +0.000 C 
ATOM     17  N   UNL     1      -0.085   9.948  20.356  0.00  0.00    +0.000 NA
ATOM     18  C   UNL     1       0.251   8.766  21.187  0.00  0.00    +0.000 C 
ATOM     19  C   UNL     1       1.706   8.312  20.946  0.00  0.00    +0.000 C 
BRANCH  17  20
ATOM     20  C   UNL     1       0.658  11.161  20.805  0.00  0.00    +0.000 C 
BRANCH  20  21
ATOM     21  C   UNL     1      -0.205  12.162  21.580  0.00  0.00    +0.000 C 
BRANCH  21  22
ATOM     22  O   UNL     1      -0.419  11.725  22.892  0.00  0.00    +0.000 OA
ATOM     23  H   UNL     1      -1.165  11.071  22.852  0.00  0.00    +0.000 HD
ENDBRANCH  21  22
ENDBRANCH  20  21
ENDBRANCH  17  20
ENDBRANCH   5  14
BRANCH   9  24
ATOM     24  O   UNL     1       5.365   7.177  15.450  0.00  0.00    +0.000 OA
ATOM     25  H   UNL     1       6.009   7.829  15.739  0.00  0.00    +0.000 HD
ENDBRANCH   9  24
BRANCH  12  26
ATOM     26  O   UNL     1       4.265   2.219  17.594  0.00  0.00    +0.000 OA
ATOM     27  H   UNL     1       4.013   1.479  17.022  0.00  0.00    +0.000 HD
ENDBRANCH  12  26
TORSDOF 6
ENDMDL
MODEL 4
REMARK VINA RESULT:      -6.2      2.446      6.866
REMARK  Name = 
REMARK  6 active torsions:
REMARK  status: ('A' for Active; 'I' for Inactive)
REMARK    1  A    between atoms: C_5  and  N_6
REMARK    2  A    between atoms: N_9  and  C_10
REMARK    3  A    between atoms: C_10  and  C_11
REMARK    4  A    between atoms: C_11  and  O_12
REMARK    5  A    between atoms: C_18  and  O_19
REMARK    6  A    between atoms: C_22  and  O_23
REMARK                            x       y       z     vdW  Elec       q    Type
REMARK                         _______ _______ _______ _____ _____    ______ ____
ROOT
ATOM      1  O   UNL     1       3.206   4.284  20.226  0.00  0.00    +0.000 OA
ATOM      2  C   UNL     1       3.235   5.198  19.416  0.00  0.00    +0.000 C 
ATOM      3  C   UNL     1       2.377   6.383  19.656  0.00  0.00    +0.000 C 
ATOM      4 CL   UNL     1       1.244   6.231  21.010  0.00  0.00    +0.000 Cl
ATOM      5  C   UNL     1       2.438   7.467  18.828  0.00  0.00    +0.000 C 
ATOM      6  C   UNL     1       3.396   7.430  17.667  0.00  0.00    +0.000 C 
ATOM      7  O   UNL     1       3.575   8.455  17.031  0.00  0.00    +0.000 OA
ATOM      8  C   UNL     1       4.177   6.203  17.319  0.00  0.00    +0.000 A 
ATOM      9  C   UNL     1       4.998   6.092  16.148  0.00  0.00    +0.000 A 
ATOM     10  C   UNL     1       5.685   4.906  15.898  0.00  0.00    +0.000 A 
ATOM     11  C   UNL     1       5.596   3.828  16.767  0.00  0.00    +0.000 A 
ATOM     12  C   UNL     1       4.811   3.911  17.918  0.00  0.00    +0.000 A 
ATOM     13  C   UNL     1       4.093   5.098  18.201  0.00  0.00    +0.000 A 
ENDROOT
BRANCH   5  14
ATOM     14  N   UNL     1       1.643   8.664  19.021  0.00  0.00    +0.000 N 
ATOM     15  C   UNL     1       1.140   9.414  17.874  0.00  0.00    +0.000 C 
ATOM     16  C   UNL     1      -0.349   9.733  18.079  0.00  0.00    +0.000 C 
ATOM     17  N   UNL     1      -0.581  10.437  19.361  0.00  0.00    +0.000 NA
ATOM     18  C   UNL     1      -0.103   9.586  20.477  0.00  0.00    +0.000 C 
ATOM     19  C   UNL     1       1.399   9.266  20.329  0.00  0.00    +0.000 C 
BRANCH  17  20
ATOM     20  C   UNL     1      -0.001  11.809  19.431  0.00  0.00    +0.000 C 
BRANCH  20  21
ATOM     21  C   UNL     1      -0.959  12.910  18.962  0.00  0.00    +0.000 C 
BRANCH  21  22
ATOM     22  O   UNL     1      -0.962  13.004  17.566  0.00  0.00    +0.000 OA
ATOM     23  H   UNL     1      -0.222  13.618  17.324  0.00  0.00    +0.000 HD
ENDBRANCH  21  22
ENDBRANCH  20  21
ENDBRANCH  17  20
ENDBRANCH   5  14
BRANCH   9  24
ATOM     24  O   UNL     1       5.154   7.069  15.225  0.00  0.00    +0.000 OA
ATOM     25  H   UNL     1       4.847   7.978  15.273  0.00  0.00    +0.000 HD
ENDBRANCH   9  24
BRANCH  12  26
ATOM     26  O   UNL     1       4.739   2.846  18.744  0.00  0.00    +0.000 OA
ATOM     27  H   UNL     1       4.417   1.982  18.449  0.00  0.00    +0.000 HD
ENDBRANCH  12  26
TORSDOF 6
ENDMDL
MODEL 5
REMARK VINA RESULT:      -6.2      2.363      3.820
REMARK  Name = 
REMARK  6 active torsions:
REMARK  status: ('A' for Active; 'I' for Inactive)
REMARK    1  A    between atoms: C_5  and  N_6
REMARK    2  A    between atoms: N_9  and  C_10
REMARK    3  A    between atoms: C_10  and  C_11
REMARK    4  A    between atoms: C_11  and  O_12
REMARK    5  A    between atoms: C_18  and  O_19
REMARK    6  A    between atoms: C_22  and  O_23
REMARK                            x       y       z     vdW  Elec       q    Type
REMARK                         _______ _______ _______ _____ _____    ______ ____
ROOT
ATOM      1  O   UNL     1       2.180  10.215  17.474  0.00  0.00    +0.000 OA
ATOM      2  C   UNL     1       1.848   9.519  18.421  0.00  0.00    +0.000 C 
ATOM      3  C   UNL     1       2.324   8.116  18.469  0.00  0.00    +0.000 C 
ATOM      4 CL   UNL     1       3.164   7.556  17.013  0.00  0.00    +0.000 Cl
ATOM      5  C   UNL     1       2.054   7.325  19.548  0.00  0.00    +0.000 C 
ATOM      6  C   UNL     1       1.262   7.910  20.687  0.00  0.00    +0.000 C 
ATOM      7  O   UNL     1       1.166   7.265  21.717  0.00  0.00    +0.000 OA
ATOM      8  C   UNL     1       0.655   9.275  20.614  0.00  0.00    +0.000 A 
ATOM      9  C   UNL     1      -0.210   9.812  21.624  0.00  0.00    +0.000 A 
ATOM     10  C   UNL     1      -0.739  11.092  21.471  0.00  0.00    +0.000 A 
ATOM     11  C   UNL     1      -0.436  11.864  20.358  0.00  0.00    +0.000 A 
ATOM     12  C   UNL     1       0.408  11.369  19.363  0.00  0.00    +0.000 A 
ATOM     13  C   UNL     1       0.958  10.070  19.482  0.00  0.00    +0.000 A 
ENDROOT
BRANCH   5  14
ATOM     14  N   UNL     1       2.509   5.953  19.665  0.00  0.00    +0.000 N 
ATOM     15  C   UNL     1       1.561   4.877  19.935  0.00  0.00    +0.000 C 
ATOM     16  C   UNL     1       1.818   3.709  18.970  0.00  0.00    +0.000 C 
ATOM     17  N   UNL     1       3.225   3.252  19.035  0.00  0.00    +0.000 NA
ATOM     18  C   UNL     1       4.120   4.382  18.687  0.00  0.00    +0.000 C 
ATOM     19  C   UNL     1       3.918   5.568  19.653  0.00  0.00    +0.000 C 
BRANCH  17  20
ATOM     20  C   UNL     1       3.615   2.621  20.329  0.00  0.00    +0.000 C 
BRANCH  20  21
ATOM     21  C   UNL     1       4.845   1.712  20.227  0.00  0.00    +0.000 C 
BRANCH  21  22
ATOM     22  O   UNL     1       5.371   1.443  21.495  0.00  0.00    +0.000 OA
ATOM     23  H   UNL     1       5.627   0.485  21.495  0.00  0.00    +0.000 HD
ENDBRANCH  21  22
ENDBRANCH  20  21
ENDBRANCH  17  20
ENDBRANCH   5  14
BRANCH   9  24
ATOM     24  O   UNL     1      -0.584   9.152  22.746  0.00  0.00    +0.000 OA
ATOM     25  H   UNL     1      -0.017   8.719  23.389  0.00  0.00    +0.000 HD
ENDBRANCH   9  24
BRANCH  12  26
ATOM     26  O   UNL     1       0.681  12.140  18.289  0.00  0.00    +0.000 OA
ATOM     27  H   UNL     1       1.412  12.774  18.278  0.00  0.00    +0.000 HD
ENDBRANCH  12  26
TORSDOF 6
ENDMDL
MODEL 6
REMARK VINA RESULT:      -5.8      2.320      6.945
REMARK  Name = 
REMARK  6 active torsions:
REMARK  status: ('A' for Active; 'I' for Inactive)
REMARK    1  A    between atoms: C_5  and  N_6
REMARK    2  A    between atoms: N_9  and  C_10
REMARK    3  A    between atoms: C_10  and  C_11
REMARK    4  A    between atoms: C_11  and  O_12
REMARK    5  A    between atoms: C_18  and  O_19
REMARK    6  A    between atoms: C_22  and  O_23
REMARK                            x       y       z     vdW  Elec       q    Type
REMARK                         _______ _______ _______ _____ _____    ______ ____
ROOT
ATOM      1  O   UNL     1       2.954   3.217  19.392  0.00  0.00    +0.000 OA
ATOM      2  C   UNL     1       3.059   4.341  18.925  0.00  0.00    +0.000 C 
ATOM      3  C   UNL     1       2.254   5.433  19.523  0.00  0.00    +0.000 C 
ATOM      4 CL   UNL     1       1.067   4.918  20.733  0.00  0.00    +0.000 Cl
ATOM      5  C   UNL     1       2.401   6.721  19.095  0.00  0.00    +0.000 C 
ATOM      6  C   UNL     1       3.397   7.006  18.002  0.00  0.00    +0.000 C 
ATOM      7  O   UNL     1       3.650   8.169  17.738  0.00  0.00    +0.000 OA
ATOM      8  C   UNL     1       4.126   5.913  17.287  0.00  0.00    +0.000 A 
ATOM      9  C   UNL     1       4.982   6.139  16.159  0.00  0.00    +0.000 A 
ATOM     10  C   UNL     1       5.617   5.059  15.548  0.00  0.00    +0.000 A 
ATOM     11  C   UNL     1       5.441   3.765  16.017  0.00  0.00    +0.000 A 
ATOM     12  C   UNL     1       4.620   3.518  17.117  0.00  0.00    +0.000 A 
ATOM     13  C   UNL     1       3.954   4.589  17.759  0.00  0.00    +0.000 A 
ENDROOT
BRANCH   5  14
ATOM     14  N   UNL     1       1.661   7.836  19.653  0.00  0.00    +0.000 N 
ATOM     15  C   UNL     1       1.474   7.956  21.096  0.00  0.00    +0.000 C 
ATOM     16  C   UNL     1       1.800   9.390  21.540  0.00  0.00    +0.000 C 
ATOM     17  N   UNL     1       1.008  10.386  20.784  0.00  0.00    +0.000 NA
ATOM     18  C   UNL     1       1.300  10.243  19.337  0.00  0.00    +0.000 C 
ATOM     19  C   UNL     1       0.957   8.823  18.839  0.00  0.00    +0.000 C 
BRANCH  17  20
ATOM     20  C   UNL     1      -0.458  10.349  21.052  0.00  0.00    +0.000 C 
BRANCH  20  21
ATOM     21  C   UNL     1      -0.844  10.852  22.447  0.00  0.00    +0.000 C 
BRANCH  21  22
ATOM     22  O   UNL     1      -1.012   9.781  23.333  0.00  0.00    +0.000 OA
ATOM     23  H   UNL     1      -1.118  10.178  24.236  0.00  0.00    +0.000 HD
ENDBRANCH  21  22
ENDBRANCH  20  21
ENDBRANCH  17  20
ENDBRANCH   5  14
BRANCH   9  24
ATOM     24  O   UNL     1       5.222   7.351  15.607  0.00  0.00    +0.000 OA
ATOM     25  H   UNL     1       5.374   8.184  16.061  0.00  0.00    +0.000 HD
ENDBRANCH   9  24
BRANCH  12  26
ATOM     26  O   UNL     1       4.464   2.248  17.549  0.00  0.00    +0.000 OA
ATOM     27  H   UNL     1       3.651   1.745  17.399  0.00  0.00    +0.000 HD
ENDBRANCH  12  26
TORSDOF 6
ENDMDL
MODEL 7
REMARK VINA RESULT:      -5.8      4.503      7.853
REMARK  Name = 
REMARK  6 active torsions:
REMARK  status: ('A' for Active; 'I' for Inactive)
REMARK    1  A    between atoms: C_5  and  N_6
REMARK    2  A    between atoms: N_9  and  C_10
REMARK    3  A    between atoms: C_10  and  C_11
REMARK    4  A    between atoms: C_11  and  O_12
REMARK    5  A    between atoms: C_18  and  O_19
REMARK    6  A    between atoms: C_22  and  O_23
REMARK                            x       y       z     vdW  Elec       q    Type
REMARK                         _______ _______ _______ _____ _____    ______ ____
ROOT
ATOM      1  O   UNL     1       7.889   6.466  16.093  0.00  0.00    +0.000 OA
ATOM      2  C   UNL     1       6.974   5.694  15.849  0.00  0.00    +0.000 C 
ATOM      3  C   UNL     1       6.011   5.374  16.929  0.00  0.00    +0.000 C 
ATOM      4 CL   UNL     1       6.435   6.009  18.528  0.00  0.00    +0.000 Cl
ATOM      5  C   UNL     1       4.923   4.588  16.682  0.00  0.00    +0.000 C 
ATOM      6  C   UNL     1       4.725   4.053  15.288  0.00  0.00    +0.000 C 
ATOM      7  O   UNL     1       3.673   3.495  15.026  0.00  0.00    +0.000 OA
ATOM      8  C   UNL     1       5.745   4.245  14.212  0.00  0.00    +0.000 A 
ATOM      9  C   UNL     1       5.649   3.641  12.914  0.00  0.00    +0.000 A 
ATOM     10  C   UNL     1       6.651   3.869  11.972  0.00  0.00    +0.000 A 
ATOM     11  C   UNL     1       7.740   4.677  12.264  0.00  0.00    +0.000 A 
ATOM     12  C   UNL     1       7.854   5.283  13.516  0.00  0.00    +0.000 A 
ATOM     13  C   UNL     1       6.860   5.069  14.500  0.00  0.00    +0.000 A 
ENDROOT
BRANCH   5  14
ATOM     14  N   UNL     1       3.933   4.257  17.689  0.00  0.00    +0.000 N 
ATOM     15  C   UNL     1       2.767   5.109  17.892  0.00  0.00    +0.000 C 
ATOM     16  C   UNL     1       1.500   4.243  17.956  0.00  0.00    +0.000 C 
ATOM     17  N   UNL     1       1.615   3.188  18.990  0.00  0.00    +0.000 NA
ATOM     18  C   UNL     1       2.783   2.328  18.678  0.00  0.00    +0.000 C 
ATOM     19  C   UNL     1       4.086   3.154  18.635  0.00  0.00    +0.000 C 
BRANCH  17  20
ATOM     20  C   UNL     1       1.666   3.693  20.392  0.00  0.00    +0.000 C 
BRANCH  20  21
ATOM     21  C   UNL     1       1.514   2.596  21.450  0.00  0.00    +0.000 C 
BRANCH  21  22
ATOM     22  O   UNL     1       2.688   2.458  22.197  0.00  0.00    +0.000 OA
ATOM     23  H   UNL     1       2.481   1.826  22.933  0.00  0.00    +0.000 HD
ENDBRANCH  21  22
ENDBRANCH  20  21
ENDBRANCH  17  20
ENDBRANCH   5  14
BRANCH   9  24
ATOM     24  O   UNL     1       4.643   2.828  12.518  0.00  0.00    +0.000 OA
ATOM     25  H   UNL     1       3.702   2.932  12.685  0.00  0.00    +0.000 HD
ENDBRANCH   9  24
BRANCH  12  26
ATOM     26  O   UNL     1       8.927   6.061  13.775  0.00  0.00    +0.000 OA
ATOM     27  H   UNL     1       9.592   6.269  13.103  0.00  0.00    +0.000 HD
ENDBRANCH  12  26
TORSDOF 6
ENDMDL
MODEL 8
REMARK VINA RESULT:      -5.8      2.433      6.834
REMARK  Name = 
REMARK  6 active torsions:
REMARK  status: ('A' for Active; 'I' for Inactive)
REMARK    1  A    between atoms: C_5  and  N_6
REMARK    2  A    between atoms: N_9  and  C_10
REMARK    3  A    between atoms: C_10  and  C_11
REMARK    4  A    between atoms: C_11  and  O_12
REMARK    5  A    between atoms: C_18  and  O_19
REMARK    6  A    between atoms: C_22  and  O_23
REMARK                            x       y       z     vdW  Elec       q    Type
REMARK                         _______ _______ _______ _____ _____    ______ ____
ROOT
ATOM      1  O   UNL     1       3.227   4.341  20.285  0.00  0.00    +0.000 OA
ATOM      2  C   UNL     1       3.241   5.248  19.466  0.00  0.00    +0.000 C 
ATOM      3  C   UNL     1       2.373   6.427  19.701  0.00  0.00    +0.000 C 
ATOM      4 CL   UNL     1       1.250   6.275  21.063  0.00  0.00    +0.000 Cl
ATOM      5  C   UNL     1       2.418   7.503  18.863  0.00  0.00    +0.000 C 
ATOM      6  C   UNL     1       3.369   7.465  17.696  0.00  0.00    +0.000 C 
ATOM      7  O   UNL     1       3.534   8.486  17.049  0.00  0.00    +0.000 OA
ATOM      8  C   UNL     1       4.160   6.242  17.355  0.00  0.00    +0.000 A 
ATOM      9  C   UNL     1       4.975   6.129  16.180  0.00  0.00    +0.000 A 
ATOM     10  C   UNL     1       5.673   4.947  15.936  0.00  0.00    +0.000 A 
ATOM     11  C   UNL     1       5.599   3.877  16.816  0.00  0.00    +0.000 A 
ATOM     12  C   UNL     1       4.820   3.963  17.970  0.00  0.00    +0.000 A 
ATOM     13  C   UNL     1       4.092   5.145  18.247  0.00  0.00    +0.000 A 
ENDROOT
BRANCH   5  14
ATOM     14  N   UNL     1       1.612   8.694  19.050  0.00  0.00    +0.000 N 
ATOM     15  C   UNL     1       0.923   8.933  20.314  0.00  0.00    +0.000 C 
ATOM     16  C   UNL     1       1.172  10.379  20.770  0.00  0.00    +0.000 C 
ATOM     17  N   UNL     1       0.786  11.353  19.724  0.00  0.00    +0.000 NA
ATOM     18  C   UNL     1       1.573  11.084  18.496  0.00  0.00    +0.000 C 
ATOM     19  C   UNL     1       1.329   9.649  17.982  0.00  0.00    +0.000 C 
BRANCH  17  20
ATOM     20  C   UNL     1      -0.676  11.411  19.435  0.00  0.00    +0.000 C 
BRANCH  20  21
ATOM     21  C   UNL     1      -1.108  12.673  18.683  0.00  0.00    +0.000 C 
BRANCH  21  22
ATOM     22  O   UNL     1      -1.510  12.362  17.379  0.00  0.00    +0.000 OA
ATOM     23  H   UNL     1      -1.898  13.193  16.999  0.00  0.00    +0.000 HD
ENDBRANCH  21  22
ENDBRANCH  20  21
ENDBRANCH  17  20
ENDBRANCH   5  14
BRANCH   9  24
ATOM     24  O   UNL     1       5.116   7.099  15.246  0.00  0.00    +0.000 OA
ATOM     25  H   UNL     1       4.738   7.983  15.255  0.00  0.00    +0.000 HD
ENDBRANCH   9  24
BRANCH  12  26
ATOM     26  O   UNL     1       4.764   2.904  18.806  0.00  0.00    +0.000 OA
ATOM     27  H   UNL     1       4.873   2.993  19.763  0.00  0.00    +0.000 HD
ENDBRANCH  12  26
TORSDOF 6
ENDMDL
MODEL 9
REMARK VINA RESULT:      -5.8      2.805      7.592
REMARK  Name = 
REMARK  6 active torsions:
REMARK  status: ('A' for Active; 'I' for Inactive)
REMARK    1  A    between atoms: C_5  and  N_6
REMARK    2  A    between atoms: N_9  and  C_10
REMARK    3  A    between atoms: C_10  and  C_11
REMARK    4  A    between atoms: C_11  and  O_12
REMARK    5  A    between atoms: C_18  and  O_19
REMARK    6  A    between atoms: C_22  and  O_23
REMARK                            x       y       z     vdW  Elec       q    Type
REMARK                         _______ _______ _______ _____ _____    ______ ____
ROOT
ATOM      1  O   UNL     1       4.208   5.676  16.918  0.00  0.00    +0.000 OA
ATOM      2  C   UNL     1       3.598   5.719  17.976  0.00  0.00    +0.000 C 
ATOM      3  C   UNL     1       3.015   7.013  18.403  0.00  0.00    +0.000 C 
ATOM      4 CL   UNL     1       3.461   8.406  17.404  0.00  0.00    +0.000 Cl
ATOM      5  C   UNL     1       2.251   7.094  19.531  0.00  0.00    +0.000 C 
ATOM      6  C   UNL     1       2.014   5.839  20.330  0.00  0.00    +0.000 C 
ATOM      7  O   UNL     1       1.199   5.875  21.236  0.00  0.00    +0.000 OA
ATOM      8  C   UNL     1       2.694   4.549  20.001  0.00  0.00    +0.000 A 
ATOM      9  C   UNL     1       2.592   3.371  20.814  0.00  0.00    +0.000 A 
ATOM     10  C   UNL     1       3.267   2.212  20.436  0.00  0.00    +0.000 A 
ATOM     11  C   UNL     1       4.033   2.173  19.280  0.00  0.00    +0.000 A 
ATOM     12  C   UNL     1       4.143   3.301  18.467  0.00  0.00    +0.000 A 
ATOM     13  C   UNL     1       3.477   4.498  18.823  0.00  0.00    +0.000 A 
ENDROOT
BRANCH   5  14
ATOM     14  N   UNL     1       1.635   8.324  19.991  0.00  0.00    +0.000 N 
ATOM     15  C   UNL     1       1.188   9.333  19.036  0.00  0.00    +0.000 C 
ATOM     16  C   UNL     1      -0.233   9.792  19.398  0.00  0.00    +0.000 C 
ATOM     17  N   UNL     1      -0.309  10.267  20.798  0.00  0.00    +0.000 NA
ATOM     18  C   UNL     1       0.098   9.168  21.707  0.00  0.00    +0.000 C 
ATOM     19  C   UNL     1       1.534   8.695  21.399  0.00  0.00    +0.000 C 
BRANCH  17  20
ATOM     20  C   UNL     1       0.455  11.517  21.074  0.00  0.00    +0.000 C 
BRANCH  20  21
ATOM     21  C   UNL     1      -0.357  12.588  21.810  0.00  0.00    +0.000 C 
BRANCH  21  22
ATOM     22  O   UNL     1      -0.675  12.168  23.107  0.00  0.00    +0.000 OA
ATOM     23  H   UNL     1       0.131  12.333  23.661  0.00  0.00    +0.000 HD
ENDBRANCH  21  22
ENDBRANCH  20  21
ENDBRANCH  17  20
ENDBRANCH   5  14
BRANCH   9  24
ATOM     24  O   UNL     1       1.886   3.292  21.966  0.00  0.00    +0.000 OA
ATOM     25  H   UNL     1       2.170   3.543  22.849  0.00  0.00    +0.000 HD
ENDBRANCH   9  24
BRANCH  12  26
ATOM     26  O   UNL     1       4.899   3.236  17.350  0.00  0.00    +0.000 OA
ATOM     27  H   UNL     1       4.599   3.586  16.499  0.00  0.00    +0.000 HD
ENDBRANCH  12  26
TORSDOF 6
ENDMDL
