MODEL 1
REMARK VINA RESULT:      -8.6      0.000      0.000
REMARK  Name = 
REMARK  4 active torsions:
REMARK  status: ('A' for Active; 'I' for Inactive)
REMARK    1  A    between atoms: C_2  and  C_13
REMARK    2  A    between atoms: N_3  and  C_4
REMARK    3  A    between atoms: C_15  and  C_16
REMARK    4  A    between atoms: C_22  and  C_24
REMARK                            x       y       z     vdW  Elec       q    Type
REMARK                         _______ _______ _______ _____ _____    ______ ____
ROOT
ATOM      1  C   UNL     1       1.922   8.261  19.081  0.00  0.00    +0.000 A 
ATOM      2  C   UNL     1       1.731   9.386  18.251  0.00  0.00    +0.000 A 
ATOM      3  C   UNL     1       1.185  10.333  19.068  0.00  0.00    +0.000 A 
ATOM      4  O   UNL     1       1.032   9.814  20.318  0.00  0.00    +0.000 OA
ATOM      5  N   UNL     1       1.486   8.495  20.330  0.00  0.00    +0.000 NA
ENDROOT
BRANCH   3   6
ATOM      6  C   UNL     1       0.859  11.767  18.836  0.00  0.00    +0.000 C 
ATOM      7  C   UNL     1       1.439  12.603  19.995  0.00  0.00    +0.000 C 
ATOM      8  C   UNL     1       1.169  14.097  19.848  0.00  0.00    +0.000 C 
ATOM      9  C   UNL     1      -0.303  14.355  19.538  0.00  0.00    +0.000 C 
ATOM     10  C   UNL     1      -0.715  13.554  18.307  0.00  0.00    +0.000 C 
ATOM     11  N   UNL     1      -0.558  12.120  18.589  0.00  0.00    +0.000 N 
ATOM     12  C   UNL     1      -1.557  11.156  18.387  0.00  0.00    +0.000 C 
ATOM     13  O   UNL     1      -1.334   9.950  18.308  0.00  0.00    +0.000 OA
BRANCH  12  14
ATOM     14  C   UNL     1      -2.992  11.540  18.243  0.00  0.00    +0.000 A 
ATOM     15  C   UNL     1      -3.590  11.379  16.969  0.00  0.00    +0.000 A 
ATOM     16  C   UNL     1      -4.926  11.730  16.747  0.00  0.00    +0.000 A 
ATOM     17  C   UNL     1      -5.634  12.249  17.808  0.00  0.00    +0.000 A 
ATOM     18  C   UNL     1      -5.071  12.386  19.065  0.00  0.00    +0.000 A 
ATOM     19  C   UNL     1      -3.771  11.988  19.316  0.00  0.00    +0.000 A 
ATOM     20  C   UNL     1      -6.034  13.055  19.964  0.00  0.00    +0.000 C 
ATOM     21  C   UNL     1      -7.301  12.829  19.142  0.00  0.00    +0.000 C 
ATOM     22  O   UNL     1      -6.936  12.673  17.748  0.00  0.00    +0.000 OA
ENDBRANCH  12  14
ENDBRANCH   3   6
BRANCH   1  24
ATOM     23  O   UNL     1       3.453   7.093  17.788  0.00  0.00    +0.000 OA
ATOM     24  C   UNL     1       2.571   7.029  18.649  0.00  0.00    +0.000 C 
ATOM     25  N   UNL     1       2.110   5.864  19.235  0.00  0.00    +0.000 N 
ATOM     26  H   UNL     1       1.254   5.948  19.775  0.00  0.00    +0.000 HD
BRANCH  25  27
ATOM     27  C   UNL     1       2.627   4.578  18.957  0.00  0.00    +0.000 A 
ATOM     28  C   UNL     1       2.159   3.802  17.874  0.00  0.00    +0.000 A 
ATOM     29  C   UNL     1       2.601   2.496  17.663  0.00  0.00    +0.000 A 
ATOM     30  C   UNL     1       3.523   1.995  18.546  0.00  0.00    +0.000 A 
ATOM     31  C   UNL     1       4.026   2.754  19.576  0.00  0.00    +0.000 A 
ATOM     32  C   UNL     1       3.618   4.057  19.799  0.00  0.00    +0.000 A 
ATOM     33  O   UNL     1       4.922   2.059  20.329  0.00  0.00    +0.000 OA
ATOM     34  C   UNL     1       4.863   0.762  19.696  0.00  0.00    +0.000 C 
ATOM     35  O   UNL     1       4.034   0.736  18.519  0.00  0.00    +0.000 OA
ENDBRANCH  25  27
ENDBRANCH   1  24
TORSDOF 4
ENDMDL
MODEL 2
REMARK VINA RESULT:      -8.5      2.031      2.392
REMARK  Name = 
REMARK  4 active torsions:
REMARK  status: ('A' for Active; 'I' for Inactive)
REMARK    1  A    between atoms: C_2  and  C_13
REMARK    2  A    between atoms: N_3  and  C_4
REMARK    3  A    between atoms: C_15  and  C_16
REMARK    4  A    between atoms: C_22  and  C_24
REMARK                            x       y       z     vdW  Elec       q    Type
REMARK                         _______ _______ _______ _____ _____    ______ ____
ROOT
ATOM      1  C   UNL     1       1.523   8.390  20.022  0.00  0.00    +0.000 A 
ATOM      2  C   UNL     1       1.343   9.595  19.309  0.00  0.00    +0.000 A 
ATOM      3  C   UNL     1       0.711  10.428  20.186  0.00  0.00    +0.000 A 
ATOM      4  O   UNL     1       0.497   9.767  21.359  0.00  0.00    +0.000 OA
ATOM      5  N   UNL     1       0.999   8.469  21.256  0.00  0.00    +0.000 NA
ENDROOT
BRANCH   3   6
ATOM      6  C   UNL     1       0.348  11.868  20.092  0.00  0.00    +0.000 C 
ATOM      7  C   UNL     1       0.567  12.528  21.468  0.00  0.00    +0.000 C 
ATOM      8  C   UNL     1       0.232  14.016  21.478  0.00  0.00    +0.000 C 
ATOM      9  C   UNL     1      -1.136  14.270  20.851  0.00  0.00    +0.000 C 
ATOM     10  C   UNL     1      -1.178  13.661  19.452  0.00  0.00    +0.000 C 
ATOM     11  N   UNL     1      -0.989  12.207  19.553  0.00  0.00    +0.000 N 
ATOM     12  C   UNL     1      -1.837  11.254  18.968  0.00  0.00    +0.000 C 
ATOM     13  O   UNL     1      -1.514  10.084  18.773  0.00  0.00    +0.000 OA
BRANCH  12  14
ATOM     14  C   UNL     1      -3.218  11.606  18.526  0.00  0.00    +0.000 A 
ATOM     15  C   UNL     1      -3.554  11.373  17.171  0.00  0.00    +0.000 A 
ATOM     16  C   UNL     1      -4.822  11.690  16.674  0.00  0.00    +0.000 A 
ATOM     17  C   UNL     1      -5.728  12.249  17.548  0.00  0.00    +0.000 A 
ATOM     18  C   UNL     1      -5.423  12.457  18.882  0.00  0.00    +0.000 A 
ATOM     19  C   UNL     1      -4.195  12.093  19.402  0.00  0.00    +0.000 A 
ATOM     20  C   UNL     1      -6.548  13.154  19.540  0.00  0.00    +0.000 C 
ATOM     21  C   UNL     1      -7.629  12.866  18.499  0.00  0.00    +0.000 C 
ATOM     22  O   UNL     1      -6.997  12.648  17.213  0.00  0.00    +0.000 OA
ENDBRANCH  12  14
ENDBRANCH   3   6
BRANCH   1  24
ATOM     23  O   UNL     1       2.295   6.209  20.187  0.00  0.00    +0.000 OA
ATOM     24  C   UNL     1       2.243   7.234  19.502  0.00  0.00    +0.000 C 
ATOM     25  N   UNL     1       2.844   7.400  18.267  0.00  0.00    +0.000 N 
ATOM     26  H   UNL     1       2.881   8.352  17.917  0.00  0.00    +0.000 HD
BRANCH  25  27
ATOM     27  C   UNL     1       3.568   6.388  17.595  0.00  0.00    +0.000 A 
ATOM     28  C   UNL     1       3.180   5.032  17.648  0.00  0.00    +0.000 A 
ATOM     29  C   UNL     1       3.951   4.026  17.067  0.00  0.00    +0.000 A 
ATOM     30  C   UNL     1       5.104   4.407  16.427  0.00  0.00    +0.000 A 
ATOM     31  C   UNL     1       5.471   5.729  16.326  0.00  0.00    +0.000 A 
ATOM     32  C   UNL     1       4.715   6.748  16.878  0.00  0.00    +0.000 A 
ATOM     33  O   UNL     1       6.646   5.879  15.657  0.00  0.00    +0.000 OA
ATOM     34  C   UNL     1       7.005   4.500  15.421  0.00  0.00    +0.000 C 
ATOM     35  O   UNL     1       5.994   3.565  15.842  0.00  0.00    +0.000 OA
ENDBRANCH  25  27
ENDBRANCH   1  24
TORSDOF 4
ENDMDL
MODEL 3
REMARK VINA RESULT:      -8.3      2.383      2.822
REMARK  Name = 
REMARK  4 active torsions:
REMARK  status: ('A' for Active; 'I' for Inactive)
REMARK    1  A    between atoms: C_2  and  C_13
REMARK    2  A    between atoms: N_3  and  C_4
REMARK    3  A    between atoms: C_15  and  C_16
REMARK    4  A    between atoms: C_22  and  C_24
REMARK                            x       y       z     vdW  Elec       q    Type
REMARK                         _______ _______ _______ _____ _____    ______ ____
ROOT
ATOM      1  C   UNL     1       1.916   8.324  19.032  0.00  0.00    +0.000 A 
ATOM      2  C   UNL     1       1.774   9.578  18.400  0.00  0.00    +0.000 A 
ATOM      3  C   UNL     1       1.058  10.335  19.282  0.00  0.00    +0.000 A 
ATOM      4  O   UNL     1       0.761   9.584  20.380  0.00  0.00    +0.000 OA
ATOM      5  N   UNL     1       1.291   8.303  20.222  0.00  0.00    +0.000 NA
ENDROOT
BRANCH   3   6
ATOM      6  C   UNL     1       0.679  11.774  19.266  0.00  0.00    +0.000 C 
ATOM      7  C   UNL     1       1.101  12.414  20.604  0.00  0.00    +0.000 C 
ATOM      8  C   UNL     1       0.766  13.900  20.688  0.00  0.00    +0.000 C 
ATOM      9  C   UNL     1      -0.682  14.155  20.277  0.00  0.00    +0.000 C 
ATOM     10  C   UNL     1      -0.932  13.567  18.892  0.00  0.00    +0.000 C 
ATOM     11  N   UNL     1      -0.725  12.113  18.940  0.00  0.00    +0.000 N 
ATOM     12  C   UNL     1      -1.647  11.163  18.475  0.00  0.00    +0.000 C 
ATOM     13  O   UNL     1      -1.353   9.998  18.214  0.00  0.00    +0.000 OA
BRANCH  12  14
ATOM     14  C   UNL     1      -3.081  11.514  18.251  0.00  0.00    +0.000 A 
ATOM     15  C   UNL     1      -3.611  11.315  16.954  0.00  0.00    +0.000 A 
ATOM     16  C   UNL     1      -4.941  11.634  16.659  0.00  0.00    +0.000 A 
ATOM     17  C   UNL     1      -5.711  12.158  17.673  0.00  0.00    +0.000 A 
ATOM     18  C   UNL     1      -5.214  12.331  18.953  0.00  0.00    +0.000 A 
ATOM     19  C   UNL     1      -3.921  11.966  19.275  0.00  0.00    +0.000 A 
ATOM     20  C   UNL     1      -6.234  12.997  19.789  0.00  0.00    +0.000 C 
ATOM     21  C   UNL     1      -7.454  12.728  18.910  0.00  0.00    +0.000 C 
ATOM     22  O   UNL     1      -7.017  12.553  17.540  0.00  0.00    +0.000 OA
ENDBRANCH  12  14
ENDBRANCH   3   6
BRANCH   1  24
ATOM     23  O   UNL     1       2.185   6.096  18.448  0.00  0.00    +0.000 OA
ATOM     24  C   UNL     1       2.695   7.219  18.488  0.00  0.00    +0.000 C 
ATOM     25  N   UNL     1       3.980   7.527  18.080  0.00  0.00    +0.000 N 
ATOM     26  H   UNL     1       4.324   8.443  18.354  0.00  0.00    +0.000 HD
BRANCH  25  27
ATOM     27  C   UNL     1       4.877   6.594  17.511  0.00  0.00    +0.000 A 
ATOM     28  C   UNL     1       5.715   5.783  18.307  0.00  0.00    +0.000 A 
ATOM     29  C   UNL     1       6.667   4.936  17.741  0.00  0.00    +0.000 A 
ATOM     30  C   UNL     1       6.752   4.912  16.371  0.00  0.00    +0.000 A 
ATOM     31  C   UNL     1       5.910   5.660  15.581  0.00  0.00    +0.000 A 
ATOM     32  C   UNL     1       4.945   6.495  16.116  0.00  0.00    +0.000 A 
ATOM     33  O   UNL     1       6.171   5.487  14.257  0.00  0.00    +0.000 OA
ATOM     34  C   UNL     1       7.316   4.608  14.316  0.00  0.00    +0.000 C 
ATOM     35  O   UNL     1       7.643   4.181  15.651  0.00  0.00    +0.000 OA
ENDBRANCH  25  27
ENDBRANCH   1  24
TORSDOF 4
ENDMDL
MODEL 4
REMARK VINA RESULT:      -8.3      1.199      1.267
REMARK  Name = 
REMARK  4 active torsions:
REMARK  status: ('A' for Active; 'I' for Inactive)
REMARK    1  A    between atoms: C_2  and  C_13
REMARK    2  A    between atoms: N_3  and  C_4
REMARK    3  A    between atoms: C_15  and  C_16
REMARK    4  A    between atoms: C_22  and  C_24
REMARK                            x       y       z     vdW  Elec       q    Type
REMARK                         _______ _______ _______ _____ _____    ______ ____
ROOT
ATOM      1  C   UNL     1       1.847   9.002  18.959  0.00  0.00    +0.000 A 
ATOM      2  C   UNL     1       1.243   9.912  19.854  0.00  0.00    +0.000 A 
ATOM      3  C   UNL     1       1.194  11.093  19.170  0.00  0.00    +0.000 A 
ATOM      4  O   UNL     1       1.752  10.922  17.939  0.00  0.00    +0.000 OA
ATOM      5  N   UNL     1       2.180   9.601  17.804  0.00  0.00    +0.000 NA
ENDROOT
BRANCH   3   6
ATOM      6  C   UNL     1       0.573  12.402  19.507  0.00  0.00    +0.000 C 
ATOM      7  C   UNL     1       0.918  12.755  20.968  0.00  0.00    +0.000 C 
ATOM      8  C   UNL     1       0.335  14.093  21.413  0.00  0.00    +0.000 C 
ATOM      9  C   UNL     1      -1.147  14.185  21.059  0.00  0.00    +0.000 C 
ATOM     10  C   UNL     1      -1.333  13.924  19.568  0.00  0.00    +0.000 C 
ATOM     11  N   UNL     1      -0.877  12.562  19.255  0.00  0.00    +0.000 N 
ATOM     12  C   UNL     1      -1.636  11.611  18.556  0.00  0.00    +0.000 C 
ATOM     13  O   UNL     1      -1.154  10.616  18.018  0.00  0.00    +0.000 OA
BRANCH  12  14
ATOM     14  C   UNL     1      -3.115  11.751  18.407  0.00  0.00    +0.000 A 
ATOM     15  C   UNL     1      -3.680  11.443  17.145  0.00  0.00    +0.000 A 
ATOM     16  C   UNL     1      -5.055  11.564  16.919  0.00  0.00    +0.000 A 
ATOM     17  C   UNL     1      -5.837  12.004  17.964  0.00  0.00    +0.000 A 
ATOM     18  C   UNL     1      -5.302  12.282  19.210  0.00  0.00    +0.000 A 
ATOM     19  C   UNL     1      -3.955  12.111  19.467  0.00  0.00    +0.000 A 
ATOM     20  C   UNL     1      -6.361  12.823  20.088  0.00  0.00    +0.000 C 
ATOM     21  C   UNL     1      -7.575  12.360  19.285  0.00  0.00    +0.000 C 
ATOM     22  O   UNL     1      -7.191  12.209  17.896  0.00  0.00    +0.000 OA
ENDBRANCH  12  14
ENDBRANCH   3   6
BRANCH   1  24
ATOM     23  O   UNL     1       1.769   7.162  20.369  0.00  0.00    +0.000 OA
ATOM     24  C   UNL     1       2.024   7.582  19.236  0.00  0.00    +0.000 C 
ATOM     25  N   UNL     1       2.500   6.815  18.189  0.00  0.00    +0.000 N 
ATOM     26  H   UNL     1       2.847   7.330  17.385  0.00  0.00    +0.000 HD
BRANCH  25  27
ATOM     27  C   UNL     1       2.717   5.420  18.261  0.00  0.00    +0.000 A 
ATOM     28  C   UNL     1       1.798   4.493  17.725  0.00  0.00    +0.000 A 
ATOM     29  C   UNL     1       1.965   3.118  17.885  0.00  0.00    +0.000 A 
ATOM     30  C   UNL     1       3.072   2.696  18.579  0.00  0.00    +0.000 A 
ATOM     31  C   UNL     1       4.002   3.585  19.065  0.00  0.00    +0.000 A 
ATOM     32  C   UNL     1       3.869   4.953  18.905  0.00  0.00    +0.000 A 
ATOM     33  O   UNL     1       5.013   2.953  19.722  0.00  0.00    +0.000 OA
ATOM     34  C   UNL     1       4.568   1.581  19.653  0.00  0.00    +0.000 C 
ATOM     35  O   UNL     1       3.375   1.403  18.865  0.00  0.00    +0.000 OA
ENDBRANCH  25  27
ENDBRANCH   1  24
TORSDOF 4
ENDMDL
MODEL 5
REMARK VINA RESULT:      -8.3      1.017      1.031
REMARK  Name = 
REMARK  4 active torsions:
REMARK  status: ('A' for Active; 'I' for Inactive)
REMARK    1  A    between atoms: C_2  and  C_13
REMARK    2  A    between atoms: N_3  and  C_4
REMARK    3  A    between atoms: C_15  and  C_16
REMARK    4  A    between atoms: C_22  and  C_24
REMARK                            x       y       z     vdW  Elec       q    Type
REMARK                         _______ _______ _______ _____ _____    ______ ____
ROOT
ATOM      1  C   UNL     1       1.379   8.313  20.483  0.00  0.00    +0.000 A 
ATOM      2  C   UNL     1       1.080   9.172  19.403  0.00  0.00    +0.000 A 
ATOM      3  C   UNL     1       0.930  10.405  19.969  0.00  0.00    +0.000 A 
ATOM      4  O   UNL     1       1.106  10.304  21.317  0.00  0.00    +0.000 OA
ATOM      5  N   UNL     1       1.378   8.977  21.651  0.00  0.00    +0.000 NA
ENDROOT
BRANCH   3   6
ATOM      6  C   UNL     1       0.726  11.749  19.365  0.00  0.00    +0.000 C 
ATOM      7  C   UNL     1       1.229  12.820  20.354  0.00  0.00    +0.000 C 
ATOM      8  C   UNL     1       1.074  14.243  19.824  0.00  0.00    +0.000 C 
ATOM      9  C   UNL     1      -0.335  14.472  19.285  0.00  0.00    +0.000 C 
ATOM     10  C   UNL     1      -0.661  13.410  18.239  0.00  0.00    +0.000 C 
ATOM     11  N   UNL     1      -0.629  12.084  18.871  0.00  0.00    +0.000 N 
ATOM     12  C   UNL     1      -1.661  11.137  18.784  0.00  0.00    +0.000 C 
ATOM     13  O   UNL     1      -1.510   9.940  19.022  0.00  0.00    +0.000 OA
BRANCH  12  14
ATOM     14  C   UNL     1      -3.044  11.527  18.379  0.00  0.00    +0.000 A 
ATOM     15  C   UNL     1      -3.441  11.249  17.048  0.00  0.00    +0.000 A 
ATOM     16  C   UNL     1      -4.714  11.597  16.585  0.00  0.00    +0.000 A 
ATOM     17  C   UNL     1      -5.563  12.229  17.467  0.00  0.00    +0.000 A 
ATOM     18  C   UNL     1      -5.198  12.482  18.778  0.00  0.00    +0.000 A 
ATOM     19  C   UNL     1      -3.966  12.091  19.268  0.00  0.00    +0.000 A 
ATOM     20  C   UNL     1      -6.268  13.252  19.445  0.00  0.00    +0.000 C 
ATOM     21  C   UNL     1      -7.399  12.964  18.459  0.00  0.00    +0.000 C 
ATOM     22  O   UNL     1      -6.826  12.666  17.162  0.00  0.00    +0.000 OA
ENDBRANCH  12  14
ENDBRANCH   3   6
BRANCH   1  24
ATOM     23  O   UNL     1       1.413   6.123  21.247  0.00  0.00    +0.000 OA
ATOM     24  C   UNL     1       1.708   6.901  20.335  0.00  0.00    +0.000 C 
ATOM     25  N   UNL     1       2.365   6.551  19.170  0.00  0.00    +0.000 N 
ATOM     26  H   UNL     1       2.712   7.322  18.608  0.00  0.00    +0.000 HD
BRANCH  25  27
ATOM     27  C   UNL     1       2.749   5.230  18.841  0.00  0.00    +0.000 A 
ATOM     28  C   UNL     1       2.160   4.527  17.768  0.00  0.00    +0.000 A 
ATOM     29  C   UNL     1       2.469   3.192  17.509  0.00  0.00    +0.000 A 
ATOM     30  C   UNL     1       3.382   2.587  18.335  0.00  0.00    +0.000 A 
ATOM     31  C   UNL     1       4.001   3.272  19.355  0.00  0.00    +0.000 A 
ATOM     32  C   UNL     1       3.725   4.601  19.622  0.00  0.00    +0.000 A 
ATOM     33  O   UNL     1       4.864   2.480  20.047  0.00  0.00    +0.000 OA
ATOM     34  C   UNL     1       4.656   1.210  19.393  0.00  0.00    +0.000 C 
ATOM     35  O   UNL     1       3.773   1.287  18.258  0.00  0.00    +0.000 OA
ENDBRANCH  25  27
ENDBRANCH   1  24
TORSDOF 4
ENDMDL
MODEL 6
REMARK VINA RESULT:      -8.2      2.248      2.591
REMARK  Name = 
REMARK  4 active torsions:
REMARK  status: ('A' for Active; 'I' for Inactive)
REMARK    1  A    between atoms: C_2  and  C_13
REMARK    2  A    between atoms: N_3  and  C_4
REMARK    3  A    between atoms: C_15  and  C_16
REMARK    4  A    between atoms: C_22  and  C_24
REMARK                            x       y       z     vdW  Elec       q    Type
REMARK                         _______ _______ _______ _____ _____    ______ ____
ROOT
ATOM      1  C   UNL     1       1.456   8.793  19.320  0.00  0.00    +0.000 A 
ATOM      2  C   UNL     1       0.944  10.096  19.140  0.00  0.00    +0.000 A 
ATOM      3  C   UNL     1       0.331  10.396  20.322  0.00  0.00    +0.000 A 
ATOM      4  O   UNL     1       0.443   9.334  21.168  0.00  0.00    +0.000 OA
ATOM      5  N   UNL     1       1.144   8.308  20.534  0.00  0.00    +0.000 NA
ENDROOT
BRANCH   3   6
ATOM      6  C   UNL     1      -0.296  11.652  20.816  0.00  0.00    +0.000 C 
ATOM      7  C   UNL     1      -0.393  11.588  22.354  0.00  0.00    +0.000 C 
ATOM      8  C   UNL     1      -1.015  12.838  22.966  0.00  0.00    +0.000 C 
ATOM      9  C   UNL     1      -2.313  13.206  22.252  0.00  0.00    +0.000 C 
ATOM     10  C   UNL     1      -2.051  13.345  20.756  0.00  0.00    +0.000 C 
ATOM     11  N   UNL     1      -1.592  12.054  20.224  0.00  0.00    +0.000 N 
ATOM     12  C   UNL     1      -2.150  11.411  19.109  0.00  0.00    +0.000 C 
ATOM     13  O   UNL     1      -1.578  10.525  18.477  0.00  0.00    +0.000 OA
BRANCH  12  14
ATOM     14  C   UNL     1      -3.505  11.773  18.597  0.00  0.00    +0.000 A 
ATOM     15  C   UNL     1      -3.795  11.482  17.242  0.00  0.00    +0.000 A 
ATOM     16  C   UNL     1      -5.035  11.805  16.682  0.00  0.00    +0.000 A 
ATOM     17  C   UNL     1      -5.960  12.425  17.493  0.00  0.00    +0.000 A 
ATOM     18  C   UNL     1      -5.700  12.689  18.827  0.00  0.00    +0.000 A 
ATOM     19  C   UNL     1      -4.502  12.323  19.410  0.00  0.00    +0.000 A 
ATOM     20  C   UNL     1      -6.832  13.442  19.406  0.00  0.00    +0.000 C 
ATOM     21  C   UNL     1      -7.879  13.129  18.338  0.00  0.00    +0.000 C 
ATOM     22  O   UNL     1      -7.204  12.836  17.090  0.00  0.00    +0.000 OA
ENDBRANCH  12  14
ENDBRANCH   3   6
BRANCH   1  24
ATOM     23  O   UNL     1       2.550   8.667  17.279  0.00  0.00    +0.000 OA
ATOM     24  C   UNL     1       2.273   8.093  18.336  0.00  0.00    +0.000 C 
ATOM     25  N   UNL     1       2.652   6.805  18.668  0.00  0.00    +0.000 N 
ATOM     26  H   UNL     1       2.189   6.402  19.477  0.00  0.00    +0.000 HD
BRANCH  25  27
ATOM     27  C   UNL     1       3.458   5.980  17.851  0.00  0.00    +0.000 A 
ATOM     28  C   UNL     1       3.177   4.609  17.666  0.00  0.00    +0.000 A 
ATOM     29  C   UNL     1       4.029   3.777  16.940  0.00  0.00    +0.000 A 
ATOM     30  C   UNL     1       5.153   4.348  16.399  0.00  0.00    +0.000 A 
ATOM     31  C   UNL     1       5.416   5.692  16.528  0.00  0.00    +0.000 A 
ATOM     32  C   UNL     1       4.579   6.543  17.228  0.00  0.00    +0.000 A 
ATOM     33  O   UNL     1       6.581   6.042  15.918  0.00  0.00    +0.000 OA
ATOM     34  C   UNL     1       7.049   4.755  15.462  0.00  0.00    +0.000 C 
ATOM     35  O   UNL     1       6.112   3.687  15.698  0.00  0.00    +0.000 OA
ENDBRANCH  25  27
ENDBRANCH   1  24
TORSDOF 4
ENDMDL
MODEL 7
REMARK VINA RESULT:      -8.2      0.695      1.226
REMARK  Name = 
REMARK  4 active torsions:
REMARK  status: ('A' for Active; 'I' for Inactive)
REMARK    1  A    between atoms: C_2  and  C_13
REMARK    2  A    between atoms: N_3  and  C_4
REMARK    3  A    between atoms: C_15  and  C_16
REMARK    4  A    between atoms: C_22  and  C_24
REMARK                            x       y       z     vdW  Elec       q    Type
REMARK                         _______ _______ _______ _____ _____    ______ ____
ROOT
ATOM      1  C   UNL     1       1.857   8.485  19.185  0.00  0.00    +0.000 A 
ATOM      2  C   UNL     1       1.616   9.621  18.384  0.00  0.00    +0.000 A 
ATOM      3  C   UNL     1       1.170  10.573  19.254  0.00  0.00    +0.000 A 
ATOM      4  O   UNL     1       1.121  10.046  20.510  0.00  0.00    +0.000 OA
ATOM      5  N   UNL     1       1.544   8.717  20.471  0.00  0.00    +0.000 NA
ENDROOT
BRANCH   3   6
ATOM      6  C   UNL     1       0.858  12.015  19.063  0.00  0.00    +0.000 C 
ATOM      7  C   UNL     1       1.669  12.840  20.083  0.00  0.00    +0.000 C 
ATOM      8  C   UNL     1       1.429  14.342  19.965  0.00  0.00    +0.000 C 
ATOM      9  C   UNL     1      -0.064  14.652  19.926  0.00  0.00    +0.000 C 
ATOM     10  C   UNL     1      -0.723  13.856  18.804  0.00  0.00    +0.000 C 
ATOM     11  N   UNL     1      -0.567  12.419  19.075  0.00  0.00    +0.000 N 
ATOM     12  C   UNL     1      -1.619  11.492  19.075  0.00  0.00    +0.000 C 
ATOM     13  O   UNL     1      -1.457  10.277  18.976  0.00  0.00    +0.000 OA
BRANCH  12  14
ATOM     14  C   UNL     1      -3.042  11.928  19.190  0.00  0.00    +0.000 A 
ATOM     15  C   UNL     1      -3.392  12.742  20.294  0.00  0.00    +0.000 A 
ATOM     16  C   UNL     1      -4.708  13.180  20.483  0.00  0.00    +0.000 A 
ATOM     17  C   UNL     1      -5.651  12.780  19.562  0.00  0.00    +0.000 A 
ATOM     18  C   UNL     1      -5.318  12.007  18.463  0.00  0.00    +0.000 A 
ATOM     19  C   UNL     1      -4.012  11.617  18.230  0.00  0.00    +0.000 A 
ATOM     20  C   UNL     1      -6.545  11.660  17.718  0.00  0.00    +0.000 C 
ATOM     21  C   UNL     1      -7.474  12.718  18.310  0.00  0.00    +0.000 C 
ATOM     22  O   UNL     1      -6.985  13.092  19.622  0.00  0.00    +0.000 OA
ENDBRANCH  12  14
ENDBRANCH   3   6
BRANCH   1  24
ATOM     23  O   UNL     1       3.227   7.293  17.742  0.00  0.00    +0.000 OA
ATOM     24  C   UNL     1       2.434   7.242  18.687  0.00  0.00    +0.000 C 
ATOM     25  N   UNL     1       2.011   6.084  19.312  0.00  0.00    +0.000 N 
ATOM     26  H   UNL     1       1.216   6.182  19.936  0.00  0.00    +0.000 HD
BRANCH  25  27
ATOM     27  C   UNL     1       2.472   4.789  18.980  0.00  0.00    +0.000 A 
ATOM     28  C   UNL     1       1.928   4.056  17.903  0.00  0.00    +0.000 A 
ATOM     29  C   UNL     1       2.316   2.742  17.641  0.00  0.00    +0.000 A 
ATOM     30  C   UNL     1       3.262   2.190  18.466  0.00  0.00    +0.000 A 
ATOM     31  C   UNL     1       3.837   2.907  19.489  0.00  0.00    +0.000 A 
ATOM     32  C   UNL     1       3.483   4.217  19.761  0.00  0.00    +0.000 A 
ATOM     33  O   UNL     1       4.745   2.165  20.181  0.00  0.00    +0.000 OA
ATOM     34  C   UNL     1       4.613   0.887  19.522  0.00  0.00    +0.000 C 
ATOM     35  O   UNL     1       3.729   0.916  18.386  0.00  0.00    +0.000 OA
ENDBRANCH  25  27
ENDBRANCH   1  24
TORSDOF 4
ENDMDL
MODEL 8
REMARK VINA RESULT:      -8.1      1.562      1.734
REMARK  Name = 
REMARK  4 active torsions:
REMARK  status: ('A' for Active; 'I' for Inactive)
REMARK    1  A    between atoms: C_2  and  C_13
REMARK    2  A    between atoms: N_3  and  C_4
REMARK    3  A    between atoms: C_15  and  C_16
REMARK    4  A    between atoms: C_22  and  C_24
REMARK                            x       y       z     vdW  Elec       q    Type
REMARK                         _______ _______ _______ _____ _____    ______ ____
ROOT
ATOM      1  C   UNL     1       1.916   9.145  18.724  0.00  0.00    +0.000 A 
ATOM      2  C   UNL     1       1.113   9.339  19.869  0.00  0.00    +0.000 A 
ATOM      3  C   UNL     1       0.840  10.676  19.880  0.00  0.00    +0.000 A 
ATOM      4  O   UNL     1       1.455  11.269  18.819  0.00  0.00    +0.000 OA
ATOM      5  N   UNL     1       2.150  10.305  18.089  0.00  0.00    +0.000 NA
ENDROOT
BRANCH   3   6
ATOM      6  C   UNL     1      -0.047  11.494  20.751  0.00  0.00    +0.000 C 
ATOM      7  C   UNL     1      -0.112  10.843  22.147  0.00  0.00    +0.000 C 
ATOM      8  C   UNL     1      -0.992  11.613  23.126  0.00  0.00    +0.000 C 
ATOM      9  C   UNL     1      -2.346  11.936  22.501  0.00  0.00    +0.000 C 
ATOM     10  C   UNL     1      -2.138  12.675  21.183  0.00  0.00    +0.000 C 
ATOM     11  N   UNL     1      -1.406  11.804  20.252  0.00  0.00    +0.000 N 
ATOM     12  C   UNL     1      -1.817  11.520  18.941  0.00  0.00    +0.000 C 
ATOM     13  O   UNL     1      -1.068  11.075  18.073  0.00  0.00    +0.000 OA
BRANCH  12  14
ATOM     14  C   UNL     1      -3.224  11.751  18.498  0.00  0.00    +0.000 A 
ATOM     15  C   UNL     1      -3.567  11.373  17.177  0.00  0.00    +0.000 A 
ATOM     16  C   UNL     1      -4.859  11.571  16.680  0.00  0.00    +0.000 A 
ATOM     17  C   UNL     1      -5.783  12.156  17.518  0.00  0.00    +0.000 A 
ATOM     18  C   UNL     1      -5.469  12.504  18.821  0.00  0.00    +0.000 A 
ATOM     19  C   UNL     1      -4.214  12.261  19.346  0.00  0.00    +0.000 A 
ATOM     20  C   UNL     1      -6.622  13.194  19.435  0.00  0.00    +0.000 C 
ATOM     21  C   UNL     1      -7.700  12.750  18.448  0.00  0.00    +0.000 C 
ATOM     22  O   UNL     1      -7.077  12.450  17.175  0.00  0.00    +0.000 OA
ENDBRANCH  12  14
ENDBRANCH   3   6
BRANCH   1  24
ATOM     23  O   UNL     1       2.948   7.766  17.170  0.00  0.00    +0.000 OA
ATOM     24  C   UNL     1       2.375   7.841  18.261  0.00  0.00    +0.000 C 
ATOM     25  N   UNL     1       2.096   6.770  19.091  0.00  0.00    +0.000 N 
ATOM     26  H   UNL     1       1.452   6.957  19.854  0.00  0.00    +0.000 HD
BRANCH  25  27
ATOM     27  C   UNL     1       2.478   5.436  18.821  0.00  0.00    +0.000 A 
ATOM     28  C   UNL     1       1.773   4.631  17.900  0.00  0.00    +0.000 A 
ATOM     29  C   UNL     1       2.091   3.286  17.709  0.00  0.00    +0.000 A 
ATOM     30  C   UNL     1       3.130   2.775  18.446  0.00  0.00    +0.000 A 
ATOM     31  C   UNL     1       3.857   3.560  19.311  0.00  0.00    +0.000 A 
ATOM     32  C   UNL     1       3.574   4.900  19.506  0.00  0.00    +0.000 A 
ATOM     33  O   UNL     1       4.835   2.850  19.938  0.00  0.00    +0.000 OA
ATOM     34  C   UNL     1       4.584   1.525  19.424  0.00  0.00    +0.000 C 
ATOM     35  O   UNL     1       3.552   1.484  18.421  0.00  0.00    +0.000 OA
ENDBRANCH  25  27
ENDBRANCH   1  24
TORSDOF 4
ENDMDL
MODEL 9
REMARK VINA RESULT:      -8.0      2.192      2.767
REMARK  Name = 
REMARK  4 active torsions:
REMARK  status: ('A' for Active; 'I' for Inactive)
REMARK    1  A    between atoms: C_2  and  C_13
REMARK    2  A    between atoms: N_3  and  C_4
REMARK    3  A    between atoms: C_15  and  C_16
REMARK    4  A    between atoms: C_22  and  C_24
REMARK                            x       y       z     vdW  Elec       q    Type
REMARK                         _______ _______ _______ _____ _____    ______ ____
ROOT
ATOM      1  C   UNL     1       1.789   8.508  19.379  0.00  0.00    +0.000 A 
ATOM      2  C   UNL     1       1.604   9.681  18.617  0.00  0.00    +0.000 A 
ATOM      3  C   UNL     1       1.105  10.595  19.499  0.00  0.00    +0.000 A 
ATOM      4  O   UNL     1       0.973  10.011  20.724  0.00  0.00    +0.000 OA
ATOM      5  N   UNL     1       1.393   8.683  20.651  0.00  0.00    +0.000 NA
ENDROOT
BRANCH   3   6
ATOM      6  C   UNL     1       0.810  12.046  19.355  0.00  0.00    +0.000 C 
ATOM      7  C   UNL     1       1.587  12.822  20.438  0.00  0.00    +0.000 C 
ATOM      8  C   UNL     1       1.362  14.330  20.371  0.00  0.00    +0.000 C 
ATOM      9  C   UNL     1      -0.127  14.654  20.287  0.00  0.00    +0.000 C 
ATOM     10  C   UNL     1      -0.747  13.909  19.110  0.00  0.00    +0.000 C 
ATOM     11  N   UNL     1      -0.611  12.461  19.329  0.00  0.00    +0.000 N 
ATOM     12  C   UNL     1      -1.669  11.543  19.250  0.00  0.00    +0.000 C 
ATOM     13  O   UNL     1      -1.511  10.332  19.109  0.00  0.00    +0.000 OA
BRANCH  12  14
ATOM     14  C   UNL     1      -3.092  11.986  19.328  0.00  0.00    +0.000 A 
ATOM     15  C   UNL     1      -3.483  12.744  20.458  0.00  0.00    +0.000 A 
ATOM     16  C   UNL     1      -4.802  13.184  20.614  0.00  0.00    +0.000 A 
ATOM     17  C   UNL     1      -5.708  12.843  19.635  0.00  0.00    +0.000 A 
ATOM     18  C   UNL     1      -5.334  12.127  18.511  0.00  0.00    +0.000 A 
ATOM     19  C   UNL     1      -4.023  11.737  18.313  0.00  0.00    +0.000 A 
ATOM     20  C   UNL     1      -6.531  11.831  17.697  0.00  0.00    +0.000 C 
ATOM     21  C   UNL     1      -7.476  12.866  18.305  0.00  0.00    +0.000 C 
ATOM     22  O   UNL     1      -7.041  13.164  19.655  0.00  0.00    +0.000 OA
ENDBRANCH  12  14
ENDBRANCH   3   6
BRANCH   1  24
ATOM     23  O   UNL     1       2.117   6.212  19.404  0.00  0.00    +0.000 OA
ATOM     24  C   UNL     1       2.393   7.286  18.862  0.00  0.00    +0.000 C 
ATOM     25  N   UNL     1       3.267   7.444  17.802  0.00  0.00    +0.000 N 
ATOM     26  H   UNL     1       3.543   8.398  17.594  0.00  0.00    +0.000 HD
BRANCH  25  27
ATOM     27  C   UNL     1       3.933   6.376  17.157  0.00  0.00    +0.000 A 
ATOM     28  C   UNL     1       3.685   5.028  17.497  0.00  0.00    +0.000 A 
ATOM     29  C   UNL     1       4.415   3.984  16.930  0.00  0.00    +0.000 A 
ATOM     30  C   UNL     1       5.381   4.317  16.013  0.00  0.00    +0.000 A 
ATOM     31  C   UNL     1       5.600   5.621  15.636  0.00  0.00    +0.000 A 
ATOM     32  C   UNL     1       4.880   6.674  16.170  0.00  0.00    +0.000 A 
ATOM     33  O   UNL     1       6.603   5.722  14.722  0.00  0.00    +0.000 OA
ATOM     34  C   UNL     1       7.031   4.346  14.631  0.00  0.00    +0.000 C 
ATOM     35  O   UNL     1       6.211   3.439  15.391  0.00  0.00    +0.000 OA
ENDBRANCH  25  27
ENDBRANCH   1  24
TORSDOF 4
ENDMDL
