MODEL 1
REMARK VINA RESULT:      -6.2      0.000      0.000
REMARK  Name = 
REMARK  18 active torsions:
REMARK  status: ('A' for Active; 'I' for Inactive)
REMARK    1  A    between atoms: C_1  and  S_2
REMARK    2  A    between atoms: S_2  and  C_3
REMARK    3  A    between atoms: C_3  and  C_4
REMARK    4  A    between atoms: C_4  and  C_5
REMARK    5  A    between atoms: C_5  and  N_6
REMARK    6  A    between atoms: C_5  and  C_14
REMARK    7  A    between atoms: C_7  and  O_9
REMARK    8  A    between atoms: O_9  and  C_10
REMARK    9  A    between atoms: C_10  and  C_11
REMARK   10  A    between atoms: C_10  and  C_12
REMARK   11  A    between atoms: C_10  and  C_13
REMARK   12  A    between atoms: N_16  and  O_17
REMARK   13  A    between atoms: O_17  and  C_18
REMARK   14  A    between atoms: C_18  and  O_20
REMARK   15  A    between atoms: O_20  and  C_21
REMARK   16  A    between atoms: C_21  and  C_22
REMARK   17  A    between atoms: C_21  and  C_23
REMARK   18  A    between atoms: C_21  and  C_24
REMARK                            x       y       z     vdW  Elec       q    Type
REMARK                         _______ _______ _______ _____ _____    ______ ____
ROOT
ATOM      1  C   UNL     1       2.607   5.255  19.968  0.00  0.00    +0.000 C 
ENDROOT
BRANCH   1   2
ATOM      2  N   UNL     1       4.065   5.143  19.932  0.00  0.00    +0.000 N 
ATOM      3  C   UNL     1       4.683   4.675  18.814  0.00  0.00    +0.000 C 
ATOM      4  O   UNL     1       4.062   4.349  17.807  0.00  0.00    +0.000 OA
ATOM      5  H   UNL     1       4.646   5.575  20.641  0.00  0.00    +0.000 HD
BRANCH   3   6
ATOM      6  O   UNL     1       6.026   4.613  18.972  0.00  0.00    +0.000 OA
BRANCH   6   7
ATOM      7  C   UNL     1       6.863   5.482  18.155  0.00  0.00    +0.000 C 
ATOM      8  C   UNL     1       8.008   6.082  18.984  0.00  0.00    +0.000 C 
ATOM      9  C   UNL     1       7.478   4.600  17.056  0.00  0.00    +0.000 C 
ATOM     10  C   UNL     1       6.026   6.569  17.463  0.00  0.00    +0.000 C 
ENDBRANCH   6   7
ENDBRANCH   3   6
ENDBRANCH   1   2
BRANCH   1  11
ATOM     11  C   UNL     1       2.207   6.744  19.927  0.00  0.00    +0.000 C 
ATOM     12  O   UNL     1       2.324   7.422  18.906  0.00  0.00    +0.000 OA
ATOM     13  N   UNL     1       1.632   7.199  21.090  0.00  0.00    +0.000 N 
ATOM     14  H   UNL     1       1.773   6.733  21.989  0.00  0.00    +0.000 HD
BRANCH  13  15
ATOM     15  O   UNL     1       1.339   8.591  21.134  0.00  0.00    +0.000 OA
BRANCH  15  16
ATOM     16  C   UNL     1      -0.010   8.834  21.197  0.00  0.00    +0.000 C 
ATOM     17  O   UNL     1      -0.780   8.202  21.909  0.00  0.00    +0.000 OA
BRANCH  16  18
ATOM     18  O   UNL     1      -0.328   9.843  20.344  0.00  0.00    +0.000 OA
BRANCH  18  19
ATOM     19  C   UNL     1      -0.375  11.215  20.820  0.00  0.00    +0.000 C 
ATOM     20  C   UNL     1       0.895  11.978  20.424  0.00  0.00    +0.000 C 
ATOM     21  C   UNL     1      -1.573  11.876  20.114  0.00  0.00    +0.000 C 
ATOM     22  C   UNL     1      -0.633  11.275  22.331  0.00  0.00    +0.000 C 
ENDBRANCH  18  19
ENDBRANCH  16  18
ENDBRANCH  15  16
ENDBRANCH  13  15
ENDBRANCH   1  11
BRANCH   1  23
ATOM     23  C   UNL     1       2.042   4.533  21.201  0.00  0.00    +0.000 C 
BRANCH  23  24
ATOM     24  C   UNL     1       1.352   3.199  20.886  0.00  0.00    +0.000 C 
BRANCH  24  26
ATOM     25  C   UNL     1       2.215   1.733  18.697  0.00  0.00    +0.000 C 
ATOM     26  S   UNL     1       1.011   3.019  19.101  0.00  0.00    +0.000 S 
ENDBRANCH  24  26
ENDBRANCH  23  24
ENDBRANCH   1  23
TORSDOF 11
ENDMDL
MODEL 2
REMARK VINA RESULT:      -6.2      4.735      7.209
REMARK  Name = 
REMARK  18 active torsions:
REMARK  status: ('A' for Active; 'I' for Inactive)
REMARK    1  A    between atoms: C_1  and  S_2
REMARK    2  A    between atoms: S_2  and  C_3
REMARK    3  A    between atoms: C_3  and  C_4
REMARK    4  A    between atoms: C_4  and  C_5
REMARK    5  A    between atoms: C_5  and  N_6
REMARK    6  A    between atoms: C_5  and  C_14
REMARK    7  A    between atoms: C_7  and  O_9
REMARK    8  A    between atoms: O_9  and  C_10
REMARK    9  A    between atoms: C_10  and  C_11
REMARK   10  A    between atoms: C_10  and  C_12
REMARK   11  A    between atoms: C_10  and  C_13
REMARK   12  A    between atoms: N_16  and  O_17
REMARK   13  A    between atoms: O_17  and  C_18
REMARK   14  A    between atoms: C_18  and  O_20
REMARK   15  A    between atoms: O_20  and  C_21
REMARK   16  A    between atoms: C_21  and  C_22
REMARK   17  A    between atoms: C_21  and  C_23
REMARK   18  A    between atoms: C_21  and  C_24
REMARK                            x       y       z     vdW  Elec       q    Type
REMARK                         _______ _______ _______ _____ _____    ______ ____
ROOT
ATOM      1  C   UNL     1       6.508   4.605  18.205  0.00  0.00    +0.000 C 
ENDROOT
BRANCH   1   2
ATOM      2  N   UNL     1       5.098   4.769  18.553  0.00  0.00    +0.000 N 
ATOM      3  C   UNL     1       4.488   3.863  19.366  0.00  0.00    +0.000 C 
ATOM      4  O   UNL     1       5.083   2.902  19.841  0.00  0.00    +0.000 OA
ATOM      5  H   UNL     1       4.604   5.634  18.364  0.00  0.00    +0.000 HD
BRANCH   3   6
ATOM      6  O   UNL     1       3.181   4.160  19.555  0.00  0.00    +0.000 OA
BRANCH   6   7
ATOM      7  C   UNL     1       2.188   3.467  18.744  0.00  0.00    +0.000 C 
ATOM      8  C   UNL     1       0.994   3.019  19.600  0.00  0.00    +0.000 C 
ATOM      9  C   UNL     1       1.679   4.479  17.705  0.00  0.00    +0.000 C 
ATOM     10  C   UNL     1       2.817   2.293  17.978  0.00  0.00    +0.000 C 
ENDBRANCH   6   7
ENDBRANCH   3   6
ENDBRANCH   1   2
BRANCH   1  11
ATOM     11  C   UNL     1       7.343   5.683  18.926  0.00  0.00    +0.000 C 
ATOM     12  O   UNL     1       7.687   5.562  20.102  0.00  0.00    +0.000 OA
ATOM     13  N   UNL     1       7.734   6.721  18.113  0.00  0.00    +0.000 N 
ATOM     14  H   UNL     1       7.246   6.949  17.245  0.00  0.00    +0.000 HD
BRANCH  13  15
ATOM     15  O   UNL     1       8.420   7.788  18.758  0.00  0.00    +0.000 OA
BRANCH  15  16
ATOM     16  C   UNL     1       8.279   8.975  18.085  0.00  0.00    +0.000 C 
ATOM     17  O   UNL     1       7.238   9.328  17.545  0.00  0.00    +0.000 OA
BRANCH  16  18
ATOM     18  O   UNL     1       9.459   9.650  18.104  0.00  0.00    +0.000 OA
BRANCH  18  19
ATOM     19  C   UNL     1       9.534  10.975  18.694  0.00  0.00    +0.000 C 
ATOM     20  C   UNL     1       9.229  10.928  20.196  0.00  0.00    +0.000 C 
ATOM     21  C   UNL     1      10.989  11.447  18.513  0.00  0.00    +0.000 C 
ATOM     22  C   UNL     1       8.626  11.968  17.956  0.00  0.00    +0.000 C 
ENDBRANCH  18  19
ENDBRANCH  16  18
ENDBRANCH  15  16
ENDBRANCH  13  15
ENDBRANCH   1  11
BRANCH   1  23
ATOM     23  C   UNL     1       6.694   4.646  16.681  0.00  0.00    +0.000 C 
BRANCH  23  24
ATOM     24  C   UNL     1       5.421   4.334  15.883  0.00  0.00    +0.000 C 
BRANCH  24  26
ATOM     25  C   UNL     1       7.345   4.904  13.970  0.00  0.00    +0.000 C 
ATOM     26  S   UNL     1       5.790   3.998  14.126  0.00  0.00    +0.000 S 
ENDBRANCH  24  26
ENDBRANCH  23  24
ENDBRANCH   1  23
TORSDOF 11
ENDMDL
MODEL 3
REMARK VINA RESULT:      -6.2      0.884      1.262
REMARK  Name = 
REMARK  18 active torsions:
REMARK  status: ('A' for Active; 'I' for Inactive)
REMARK    1  A    between atoms: C_1  and  S_2
REMARK    2  A    between atoms: S_2  and  C_3
REMARK    3  A    between atoms: C_3  and  C_4
REMARK    4  A    between atoms: C_4  and  C_5
REMARK    5  A    between atoms: C_5  and  N_6
REMARK    6  A    between atoms: C_5  and  C_14
REMARK    7  A    between atoms: C_7  and  O_9
REMARK    8  A    between atoms: O_9  and  C_10
REMARK    9  A    between atoms: C_10  and  C_11
REMARK   10  A    between atoms: C_10  and  C_12
REMARK   11  A    between atoms: C_10  and  C_13
REMARK   12  A    between atoms: N_16  and  O_17
REMARK   13  A    between atoms: O_17  and  C_18
REMARK   14  A    between atoms: C_18  and  O_20
REMARK   15  A    between atoms: O_20  and  C_21
REMARK   16  A    between atoms: C_21  and  C_22
REMARK   17  A    between atoms: C_21  and  C_23
REMARK   18  A    between atoms: C_21  and  C_24
REMARK                            x       y       z     vdW  Elec       q    Type
REMARK                         _______ _______ _______ _____ _____    ______ ____
ROOT
ATOM      1  C   UNL     1       2.324   5.871  19.695  0.00  0.00    +0.000 C 
ENDROOT
BRANCH   1   2
ATOM      2  N   UNL     1       3.759   5.602  19.784  0.00  0.00    +0.000 N 
ATOM      3  C   UNL     1       4.436   5.153  18.692  0.00  0.00    +0.000 C 
ATOM      4  O   UNL     1       3.889   4.972  17.609  0.00  0.00    +0.000 OA
ATOM      5  H   UNL     1       4.307   5.915  20.577  0.00  0.00    +0.000 HD
BRANCH   3   6
ATOM      6  O   UNL     1       5.743   4.932  18.968  0.00  0.00    +0.000 OA
BRANCH   6   7
ATOM      7  C   UNL     1       6.748   5.612  18.162  0.00  0.00    +0.000 C 
ATOM      8  C   UNL     1       7.921   6.088  19.031  0.00  0.00    +0.000 C 
ATOM      9  C   UNL     1       7.284   4.579  17.157  0.00  0.00    +0.000 C 
ATOM     10  C   UNL     1       6.127   6.764  17.356  0.00  0.00    +0.000 C 
ENDBRANCH   6   7
ENDBRANCH   3   6
ENDBRANCH   1   2
BRANCH   1  11
ATOM     11  C   UNL     1       2.076   7.385  19.856  0.00  0.00    +0.000 C 
ATOM     12  O   UNL     1       2.189   8.168  18.912  0.00  0.00    +0.000 OA
ATOM     13  N   UNL     1       1.633   7.747  21.106  0.00  0.00    +0.000 N 
ATOM     14  H   UNL     1       1.790   7.165  21.931  0.00  0.00    +0.000 HD
BRANCH  13  15
ATOM     15  O   UNL     1       1.487   9.144  21.332  0.00  0.00    +0.000 OA
BRANCH  15  16
ATOM     16  C   UNL     1       0.329   9.442  22.003  0.00  0.00    +0.000 C 
ATOM     17  O   UNL     1      -0.573   8.635  22.189  0.00  0.00    +0.000 OA
BRANCH  16  18
ATOM     18  O   UNL     1       0.350  10.746  22.387  0.00  0.00    +0.000 OA
BRANCH  18  19
ATOM     19  C   UNL     1      -0.690  11.656  21.939  0.00  0.00    +0.000 C 
ATOM     20  C   UNL     1      -1.871  11.668  22.917  0.00  0.00    +0.000 C 
ATOM     21  C   UNL     1      -0.059  13.061  21.929  0.00  0.00    +0.000 C 
ATOM     22  C   UNL     1      -1.135  11.335  20.506  0.00  0.00    +0.000 C 
ENDBRANCH  18  19
ENDBRANCH  16  18
ENDBRANCH  15  16
ENDBRANCH  13  15
ENDBRANCH   1  11
BRANCH   1  23
ATOM     23  C   UNL     1       1.555   5.040  20.732  0.00  0.00    +0.000 C 
BRANCH  23  24
ATOM     24  C   UNL     1       1.898   3.545  20.719  0.00  0.00    +0.000 C 
BRANCH  24  26
ATOM     25  C   UNL     1       2.729   1.836  18.700  0.00  0.00    +0.000 C 
ATOM     26  S   UNL     1       1.242   2.714  19.230  0.00  0.00    +0.000 S 
ENDBRANCH  24  26
ENDBRANCH  23  24
ENDBRANCH   1  23
TORSDOF 11
ENDMDL
MODEL 4
REMARK VINA RESULT:      -6.1      0.940      1.554
REMARK  Name = 
REMARK  18 active torsions:
REMARK  status: ('A' for Active; 'I' for Inactive)
REMARK    1  A    between atoms: C_1  and  S_2
REMARK    2  A    between atoms: S_2  and  C_3
REMARK    3  A    between atoms: C_3  and  C_4
REMARK    4  A    between atoms: C_4  and  C_5
REMARK    5  A    between atoms: C_5  and  N_6
REMARK    6  A    between atoms: C_5  and  C_14
REMARK    7  A    between atoms: C_7  and  O_9
REMARK    8  A    between atoms: O_9  and  C_10
REMARK    9  A    between atoms: C_10  and  C_11
REMARK   10  A    between atoms: C_10  and  C_12
REMARK   11  A    between atoms: C_10  and  C_13
REMARK   12  A    between atoms: N_16  and  O_17
REMARK   13  A    between atoms: O_17  and  C_18
REMARK   14  A    between atoms: C_18  and  O_20
REMARK   15  A    between atoms: O_20  and  C_21
REMARK   16  A    between atoms: C_21  and  C_22
REMARK   17  A    between atoms: C_21  and  C_23
REMARK   18  A    between atoms: C_21  and  C_24
REMARK                            x       y       z     vdW  Elec       q    Type
REMARK                         _______ _______ _______ _____ _____    ______ ____
ROOT
ATOM      1  C   UNL     1       2.561   5.884  19.611  0.00  0.00    +0.000 C 
ENDROOT
BRANCH   1   2
ATOM      2  N   UNL     1       4.007   5.700  19.727  0.00  0.00    +0.000 N 
ATOM      3  C   UNL     1       4.665   4.900  18.844  0.00  0.00    +0.000 C 
ATOM      4  O   UNL     1       4.090   4.324  17.926  0.00  0.00    +0.000 OA
ATOM      5  H   UNL     1       4.568   6.293  20.328  0.00  0.00    +0.000 HD
BRANCH   3   6
ATOM      6  O   UNL     1       5.987   4.826  19.123  0.00  0.00    +0.000 OA
BRANCH   6   7
ATOM      7  C   UNL     1       6.922   5.513  18.243  0.00  0.00    +0.000 C 
ATOM      8  C   UNL     1       6.240   6.683  17.520  0.00  0.00    +0.000 C 
ATOM      9  C   UNL     1       8.035   6.085  19.136  0.00  0.00    +0.000 C 
ATOM     10  C   UNL     1       7.578   4.533  17.256  0.00  0.00    +0.000 C 
ENDBRANCH   6   7
ENDBRANCH   3   6
ENDBRANCH   1   2
BRANCH   1  11
ATOM     11  C   UNL     1       2.241   7.390  19.531  0.00  0.00    +0.000 C 
ATOM     12  O   UNL     1       2.585   8.079  18.570  0.00  0.00    +0.000 OA
ATOM     13  N   UNL     1       1.470   7.852  20.571  0.00  0.00    +0.000 N 
ATOM     14  H   UNL     1       1.413   7.365  21.468  0.00  0.00    +0.000 HD
BRANCH  13  15
ATOM     15  O   UNL     1       1.234   9.255  20.593  0.00  0.00    +0.000 OA
BRANCH  15  16
ATOM     16  C   UNL     1       0.502   9.640  21.688  0.00  0.00    +0.000 C 
ATOM     17  O   UNL     1      -0.238   8.887  22.307  0.00  0.00    +0.000 OA
BRANCH  16  18
ATOM     18  O   UNL     1       0.717  10.959  21.935  0.00  0.00    +0.000 OA
BRANCH  18  19
ATOM     19  C   UNL     1      -0.333  11.931  21.682  0.00  0.00    +0.000 C 
ATOM     20  C   UNL     1      -1.240  12.093  22.908  0.00  0.00    +0.000 C 
ATOM     21  C   UNL     1       0.374  13.274  21.425  0.00  0.00    +0.000 C 
ATOM     22  C   UNL     1      -1.132  11.576  20.421  0.00  0.00    +0.000 C 
ENDBRANCH  18  19
ENDBRANCH  16  18
ENDBRANCH  15  16
ENDBRANCH  13  15
ENDBRANCH   1  11
BRANCH   1  23
ATOM     23  C   UNL     1       1.835   5.194  20.775  0.00  0.00    +0.000 C 
BRANCH  23  24
ATOM     24  C   UNL     1       0.890   4.064  20.345  0.00  0.00    +0.000 C 
BRANCH  24  26
ATOM     25  C   UNL     1       1.718   2.039  18.641  0.00  0.00    +0.000 C 
ATOM     26  S   UNL     1       1.714   2.435  20.405  0.00  0.00    +0.000 S 
ENDBRANCH  24  26
ENDBRANCH  23  24
ENDBRANCH   1  23
TORSDOF 11
ENDMDL
MODEL 5
REMARK VINA RESULT:      -6.1      0.612      1.319
REMARK  Name = 
REMARK  18 active torsions:
REMARK  status: ('A' for Active; 'I' for Inactive)
REMARK    1  A    between atoms: C_1  and  S_2
REMARK    2  A    between atoms: S_2  and  C_3
REMARK    3  A    between atoms: C_3  and  C_4
REMARK    4  A    between atoms: C_4  and  C_5
REMARK    5  A    between atoms: C_5  and  N_6
REMARK    6  A    between atoms: C_5  and  C_14
REMARK    7  A    between atoms: C_7  and  O_9
REMARK    8  A    between atoms: O_9  and  C_10
REMARK    9  A    between atoms: C_10  and  C_11
REMARK   10  A    between atoms: C_10  and  C_12
REMARK   11  A    between atoms: C_10  and  C_13
REMARK   12  A    between atoms: N_16  and  O_17
REMARK   13  A    between atoms: O_17  and  C_18
REMARK   14  A    between atoms: C_18  and  O_20
REMARK   15  A    between atoms: O_20  and  C_21
REMARK   16  A    between atoms: C_21  and  C_22
REMARK   17  A    between atoms: C_21  and  C_23
REMARK   18  A    between atoms: C_21  and  C_24
REMARK                            x       y       z     vdW  Elec       q    Type
REMARK                         _______ _______ _______ _____ _____    ______ ____
ROOT
ATOM      1  C   UNL     1       2.639   5.239  19.855  0.00  0.00    +0.000 C 
ENDROOT
BRANCH   1   2
ATOM      2  N   UNL     1       4.089   5.055  19.863  0.00  0.00    +0.000 N 
ATOM      3  C   UNL     1       4.712   4.505  18.785  0.00  0.00    +0.000 C 
ATOM      4  O   UNL     1       4.100   4.160  17.779  0.00  0.00    +0.000 OA
ATOM      5  H   UNL     1       4.673   5.494  20.566  0.00  0.00    +0.000 HD
BRANCH   3   6
ATOM      6  O   UNL     1       6.046   4.387  18.983  0.00  0.00    +0.000 OA
BRANCH   6   7
ATOM      7  C   UNL     1       6.938   5.278  18.254  0.00  0.00    +0.000 C 
ATOM      8  C   UNL     1       7.567   4.563  17.049  0.00  0.00    +0.000 C 
ATOM      9  C   UNL     1       6.074   6.436  17.727  0.00  0.00    +0.000 C 
ATOM     10  C   UNL     1       8.003   5.881  19.184  0.00  0.00    +0.000 C 
ENDBRANCH   6   7
ENDBRANCH   3   6
ENDBRANCH   1   2
BRANCH   1  11
ATOM     11  C   UNL     1       2.313   6.734  19.665  0.00  0.00    +0.000 C 
ATOM     12  O   UNL     1       2.473   7.303  18.585  0.00  0.00    +0.000 OA
ATOM     13  N   UNL     1       1.748   7.326  20.770  0.00  0.00    +0.000 N 
ATOM     14  H   UNL     1       1.858   6.943  21.711  0.00  0.00    +0.000 HD
BRANCH  13  15
ATOM     15  O   UNL     1       1.523   8.728  20.675  0.00  0.00    +0.000 OA
BRANCH  15  16
ATOM     16  C   UNL     1       0.521   9.149  21.512  0.00  0.00    +0.000 C 
ATOM     17  O   UNL     1      -0.445   8.460  21.812  0.00  0.00    +0.000 OA
BRANCH  16  18
ATOM     18  O   UNL     1       0.771  10.425  21.911  0.00  0.00    +0.000 OA
BRANCH  18  19
ATOM     19  C   UNL     1      -0.027  11.522  21.391  0.00  0.00    +0.000 C 
ATOM     20  C   UNL     1      -0.884  11.065  20.203  0.00  0.00    +0.000 C 
ATOM     21  C   UNL     1      -0.972  11.946  22.530  0.00  0.00    +0.000 C 
ATOM     22  C   UNL     1       0.848  12.731  21.035  0.00  0.00    +0.000 C 
ENDBRANCH  18  19
ENDBRANCH  16  18
ENDBRANCH  15  16
ENDBRANCH  13  15
ENDBRANCH   1  11
BRANCH   1  23
ATOM     23  C   UNL     1       2.016   4.664  21.136  0.00  0.00    +0.000 C 
BRANCH  23  24
ATOM     24  C   UNL     1       1.345   3.296  20.950  0.00  0.00    +0.000 C 
BRANCH  24  26
ATOM     25  C   UNL     1       2.116   1.693  18.824  0.00  0.00    +0.000 C 
ATOM     26  S   UNL     1       0.913   2.987  19.203  0.00  0.00    +0.000 S 
ENDBRANCH  24  26
ENDBRANCH  23  24
ENDBRANCH   1  23
TORSDOF 11
ENDMDL
MODEL 6
REMARK VINA RESULT:      -6.1      4.491      7.426
REMARK  Name = 
REMARK  18 active torsions:
REMARK  status: ('A' for Active; 'I' for Inactive)
REMARK    1  A    between atoms: C_1  and  S_2
REMARK    2  A    between atoms: S_2  and  C_3
REMARK    3  A    between atoms: C_3  and  C_4
REMARK    4  A    between atoms: C_4  and  C_5
REMARK    5  A    between atoms: C_5  and  N_6
REMARK    6  A    between atoms: C_5  and  C_14
REMARK    7  A    between atoms: C_7  and  O_9
REMARK    8  A    between atoms: O_9  and  C_10
REMARK    9  A    between atoms: C_10  and  C_11
REMARK   10  A    between atoms: C_10  and  C_12
REMARK   11  A    between atoms: C_10  and  C_13
REMARK   12  A    between atoms: N_16  and  O_17
REMARK   13  A    between atoms: O_17  and  C_18
REMARK   14  A    between atoms: C_18  and  O_20
REMARK   15  A    between atoms: O_20  and  C_21
REMARK   16  A    between atoms: C_21  and  C_22
REMARK   17  A    between atoms: C_21  and  C_23
REMARK   18  A    between atoms: C_21  and  C_24
REMARK                            x       y       z     vdW  Elec       q    Type
REMARK                         _______ _______ _______ _____ _____    ______ ____
ROOT
ATOM      1  C   UNL     1       6.573   5.347  17.687  0.00  0.00    +0.000 C 
ENDROOT
BRANCH   1   2
ATOM      2  N   UNL     1       5.237   5.501  18.260  0.00  0.00    +0.000 N 
ATOM      3  C   UNL     1       4.766   4.582  19.147  0.00  0.00    +0.000 C 
ATOM      4  O   UNL     1       5.432   3.616  19.507  0.00  0.00    +0.000 OA
ATOM      5  H   UNL     1       4.717   6.366  18.164  0.00  0.00    +0.000 HD
BRANCH   3   6
ATOM      6  O   UNL     1       3.506   4.870  19.547  0.00  0.00    +0.000 OA
BRANCH   6   7
ATOM      7  C   UNL     1       2.414   4.042  19.052  0.00  0.00    +0.000 C 
ATOM      8  C   UNL     1       1.817   4.630  17.765  0.00  0.00    +0.000 C 
ATOM      9  C   UNL     1       3.015   2.667  18.718  0.00  0.00    +0.000 C 
ATOM     10  C   UNL     1       1.344   3.829  20.135  0.00  0.00    +0.000 C 
ENDBRANCH   6   7
ENDBRANCH   3   6
ENDBRANCH   1   2
BRANCH   1  11
ATOM     11  C   UNL     1       7.591   6.121  18.549  0.00  0.00    +0.000 C 
ATOM     12  O   UNL     1       8.127   5.616  19.535  0.00  0.00    +0.000 OA
ATOM     13  N   UNL     1       7.903   7.367  18.057  0.00  0.00    +0.000 N 
ATOM     14  H   UNL     1       7.288   7.872  17.418  0.00  0.00    +0.000 HD
BRANCH  13  15
ATOM     15  O   UNL     1       8.762   8.157  18.872  0.00  0.00    +0.000 OA
BRANCH  15  16
ATOM     16  C   UNL     1       8.651   9.496  18.595  0.00  0.00    +0.000 C 
ATOM     17  O   UNL     1       7.989   9.943  17.667  0.00  0.00    +0.000 OA
BRANCH  16  18
ATOM     18  O   UNL     1       9.396  10.206  19.483  0.00  0.00    +0.000 OA
BRANCH  18  19
ATOM     19  C   UNL     1      10.014  11.458  19.081  0.00  0.00    +0.000 C 
ATOM     20  C   UNL     1       8.986  12.595  19.051  0.00  0.00    +0.000 C 
ATOM     21  C   UNL     1      11.064  11.786  20.159  0.00  0.00    +0.000 C 
ATOM     22  C   UNL     1      10.750  11.315  17.742  0.00  0.00    +0.000 C 
ENDBRANCH  18  19
ENDBRANCH  16  18
ENDBRANCH  15  16
ENDBRANCH  13  15
ENDBRANCH   1  11
BRANCH   1  23
ATOM     23  C   UNL     1       6.586   5.800  16.220  0.00  0.00    +0.000 C 
BRANCH  23  24
ATOM     24  C   UNL     1       7.016   4.711  15.229  0.00  0.00    +0.000 C 
BRANCH  24  26
ATOM     25  C   UNL     1       6.440   3.688  12.717  0.00  0.00    +0.000 C 
ATOM     26  S   UNL     1       5.599   4.072  14.269  0.00  0.00    +0.000 S 
ENDBRANCH  24  26
ENDBRANCH  23  24
ENDBRANCH   1  23
TORSDOF 11
ENDMDL
MODEL 7
REMARK VINA RESULT:      -6.0      0.970      1.276
REMARK  Name = 
REMARK  18 active torsions:
REMARK  status: ('A' for Active; 'I' for Inactive)
REMARK    1  A    between atoms: C_1  and  S_2
REMARK    2  A    between atoms: S_2  and  C_3
REMARK    3  A    between atoms: C_3  and  C_4
REMARK    4  A    between atoms: C_4  and  C_5
REMARK    5  A    between atoms: C_5  and  N_6
REMARK    6  A    between atoms: C_5  and  C_14
REMARK    7  A    between atoms: C_7  and  O_9
REMARK    8  A    between atoms: O_9  and  C_10
REMARK    9  A    between atoms: C_10  and  C_11
REMARK   10  A    between atoms: C_10  and  C_12
REMARK   11  A    between atoms: C_10  and  C_13
REMARK   12  A    between atoms: N_16  and  O_17
REMARK   13  A    between atoms: O_17  and  C_18
REMARK   14  A    between atoms: C_18  and  O_20
REMARK   15  A    between atoms: O_20  and  C_21
REMARK   16  A    between atoms: C_21  and  C_22
REMARK   17  A    between atoms: C_21  and  C_23
REMARK   18  A    between atoms: C_21  and  C_24
REMARK                            x       y       z     vdW  Elec       q    Type
REMARK                         _______ _______ _______ _____ _____    ______ ____
ROOT
ATOM      1  C   UNL     1       2.619   5.608  19.682  0.00  0.00    +0.000 C 
ENDROOT
BRANCH   1   2
ATOM      2  N   UNL     1       4.010   5.479  19.251  0.00  0.00    +0.000 N 
ATOM      3  C   UNL     1       4.303   4.867  18.071  0.00  0.00    +0.000 C 
ATOM      4  O   UNL     1       3.434   4.421  17.329  0.00  0.00    +0.000 OA
ATOM      5  H   UNL     1       4.754   5.993  19.708  0.00  0.00    +0.000 HD
BRANCH   3   6
ATOM      6  O   UNL     1       5.638   4.814  17.852  0.00  0.00    +0.000 OA
BRANCH   6   7
ATOM      7  C   UNL     1       6.222   5.744  16.894  0.00  0.00    +0.000 C 
ATOM      8  C   UNL     1       7.297   6.615  17.558  0.00  0.00    +0.000 C 
ATOM      9  C   UNL     1       6.898   4.893  15.806  0.00  0.00    +0.000 C 
ATOM     10  C   UNL     1       5.137   6.592  16.211  0.00  0.00    +0.000 C 
ENDBRANCH   6   7
ENDBRANCH   3   6
ENDBRANCH   1   2
BRANCH   1  11
ATOM     11  C   UNL     1       2.246   7.102  19.769  0.00  0.00    +0.000 C 
ATOM     12  O   UNL     1       2.371   7.861  18.808  0.00  0.00    +0.000 OA
ATOM     13  N   UNL     1       1.682   7.466  20.969  0.00  0.00    +0.000 N 
ATOM     14  H   UNL     1       1.818   6.924  21.824  0.00  0.00    +0.000 HD
BRANCH  13  15
ATOM     15  O   UNL     1       1.414   8.855  21.131  0.00  0.00    +0.000 OA
BRANCH  15  16
ATOM     16  C   UNL     1       0.076   9.108  21.292  0.00  0.00    +0.000 C 
ATOM     17  O   UNL     1      -0.545   8.848  22.314  0.00  0.00    +0.000 OA
BRANCH  16  18
ATOM     18  O   UNL     1      -0.421   9.654  20.150  0.00  0.00    +0.000 OA
BRANCH  18  19
ATOM     19  C   UNL     1      -0.395  11.094  19.957  0.00  0.00    +0.000 C 
ATOM     20  C   UNL     1      -0.092  11.820  21.273  0.00  0.00    +0.000 C 
ATOM     21  C   UNL     1       0.756  11.378  18.975  0.00  0.00    +0.000 C 
ATOM     22  C   UNL     1      -1.693  11.596  19.312  0.00  0.00    +0.000 C 
ENDBRANCH  18  19
ENDBRANCH  16  18
ENDBRANCH  15  16
ENDBRANCH  13  15
ENDBRANCH   1  11
BRANCH   1  23
ATOM     23  C   UNL     1       2.397   4.873  21.012  0.00  0.00    +0.000 C 
BRANCH  23  24
ATOM     24  C   UNL     1       1.382   3.724  20.935  0.00  0.00    +0.000 C 
BRANCH  24  26
ATOM     25  C   UNL     1       0.791   2.323  18.617  0.00  0.00    +0.000 C 
ATOM     26  S   UNL     1       2.017   2.327  19.944  0.00  0.00    +0.000 S 
ENDBRANCH  24  26
ENDBRANCH  23  24
ENDBRANCH   1  23
TORSDOF 11
ENDMDL
MODEL 8
REMARK VINA RESULT:      -6.0      4.733      7.205
REMARK  Name = 
REMARK  18 active torsions:
REMARK  status: ('A' for Active; 'I' for Inactive)
REMARK    1  A    between atoms: C_1  and  S_2
REMARK    2  A    between atoms: S_2  and  C_3
REMARK    3  A    between atoms: C_3  and  C_4
REMARK    4  A    between atoms: C_4  and  C_5
REMARK    5  A    between atoms: C_5  and  N_6
REMARK    6  A    between atoms: C_5  and  C_14
REMARK    7  A    between atoms: C_7  and  O_9
REMARK    8  A    between atoms: O_9  and  C_10
REMARK    9  A    between atoms: C_10  and  C_11
REMARK   10  A    between atoms: C_10  and  C_12
REMARK   11  A    between atoms: C_10  and  C_13
REMARK   12  A    between atoms: N_16  and  O_17
REMARK   13  A    between atoms: O_17  and  C_18
REMARK   14  A    between atoms: C_18  and  O_20
REMARK   15  A    between atoms: O_20  and  C_21
REMARK   16  A    between atoms: C_21  and  C_22
REMARK   17  A    between atoms: C_21  and  C_23
REMARK   18  A    between atoms: C_21  and  C_24
REMARK                            x       y       z     vdW  Elec       q    Type
REMARK                         _______ _______ _______ _____ _____    ______ ____
ROOT
ATOM      1  C   UNL     1       6.594   4.601  18.081  0.00  0.00    +0.000 C 
ENDROOT
BRANCH   1   2
ATOM      2  N   UNL     1       5.196   4.796  18.461  0.00  0.00    +0.000 N 
ATOM      3  C   UNL     1       4.593   3.919  19.310  0.00  0.00    +0.000 C 
ATOM      4  O   UNL     1       5.186   2.959  19.791  0.00  0.00    +0.000 OA
ATOM      5  H   UNL     1       4.711   5.665  18.265  0.00  0.00    +0.000 HD
BRANCH   3   6
ATOM      6  O   UNL     1       3.296   4.241  19.525  0.00  0.00    +0.000 OA
BRANCH   6   7
ATOM      7  C   UNL     1       2.273   3.566  18.737  0.00  0.00    +0.000 C 
ATOM      8  C   UNL     1       2.797   2.235  18.179  0.00  0.00    +0.000 C 
ATOM      9  C   UNL     1       1.108   3.259  19.693  0.00  0.00    +0.000 C 
ATOM     10  C   UNL     1       1.733   4.481  17.627  0.00  0.00    +0.000 C 
ENDBRANCH   6   7
ENDBRANCH   3   6
ENDBRANCH   1   2
BRANCH   1  11
ATOM     11  C   UNL     1       7.480   5.600  18.853  0.00  0.00    +0.000 C 
ATOM     12  O   UNL     1       7.940   5.337  19.965  0.00  0.00    +0.000 OA
ATOM     13  N   UNL     1       7.774   6.744  18.150  0.00  0.00    +0.000 N 
ATOM     14  H   UNL     1       7.199   7.069  17.370  0.00  0.00    +0.000 HD
BRANCH  13  15
ATOM     15  O   UNL     1       8.504   7.738  18.861  0.00  0.00    +0.000 OA
BRANCH  15  16
ATOM     16  C   UNL     1       8.413   8.971  18.267  0.00  0.00    +0.000 C 
ATOM     17  O   UNL     1       7.924   9.155  17.159  0.00  0.00    +0.000 OA
BRANCH  16  18
ATOM     18  O   UNL     1       8.962   9.909  19.083  0.00  0.00    +0.000 OA
BRANCH  18  19
ATOM     19  C   UNL     1       9.295  11.224  18.564  0.00  0.00    +0.000 C 
ATOM     20  C   UNL     1       8.153  11.783  17.707  0.00  0.00    +0.000 C 
ATOM     21  C   UNL     1       9.470  12.140  19.790  0.00  0.00    +0.000 C 
ATOM     22  C   UNL     1      10.627  11.205  17.803  0.00  0.00    +0.000 C 
ENDBRANCH  18  19
ENDBRANCH  16  18
ENDBRANCH  15  16
ENDBRANCH  13  15
ENDBRANCH   1  11
BRANCH   1  23
ATOM     23  C   UNL     1       6.761   4.730  16.559  0.00  0.00    +0.000 C 
BRANCH  23  24
ATOM     24  C   UNL     1       5.518   4.327  15.754  0.00  0.00    +0.000 C 
BRANCH  24  26
ATOM     25  C   UNL     1       7.392   4.997  13.823  0.00  0.00    +0.000 C 
ATOM     26  S   UNL     1       5.933   3.949  14.016  0.00  0.00    +0.000 S 
ENDBRANCH  24  26
ENDBRANCH  23  24
ENDBRANCH   1  23
TORSDOF 11
ENDMDL
MODEL 9
REMARK VINA RESULT:      -5.9      4.906      7.254
REMARK  Name = 
REMARK  18 active torsions:
REMARK  status: ('A' for Active; 'I' for Inactive)
REMARK    1  A    between atoms: C_1  and  S_2
REMARK    2  A    between atoms: S_2  and  C_3
REMARK    3  A    between atoms: C_3  and  C_4
REMARK    4  A    between atoms: C_4  and  C_5
REMARK    5  A    between atoms: C_5  and  N_6
REMARK    6  A    between atoms: C_5  and  C_14
REMARK    7  A    between atoms: C_7  and  O_9
REMARK    8  A    between atoms: O_9  and  C_10
REMARK    9  A    between atoms: C_10  and  C_11
REMARK   10  A    between atoms: C_10  and  C_12
REMARK   11  A    between atoms: C_10  and  C_13
REMARK   12  A    between atoms: N_16  and  O_17
REMARK   13  A    between atoms: O_17  and  C_18
REMARK   14  A    between atoms: C_18  and  O_20
REMARK   15  A    between atoms: O_20  and  C_21
REMARK   16  A    between atoms: C_21  and  C_22
REMARK   17  A    between atoms: C_21  and  C_23
REMARK   18  A    between atoms: C_21  and  C_24
REMARK                            x       y       z     vdW  Elec       q    Type
REMARK                         _______ _______ _______ _____ _____    ______ ____
ROOT
ATOM      1  C   UNL     1       6.623   5.608  17.972  0.00  0.00    +0.000 C 
ENDROOT
BRANCH   1   2
ATOM      2  N   UNL     1       5.198   5.441  18.252  0.00  0.00    +0.000 N 
ATOM      3  C   UNL     1       4.784   4.486  19.130  0.00  0.00    +0.000 C 
ATOM      4  O   UNL     1       5.570   3.752  19.720  0.00  0.00    +0.000 OA
ATOM      5  H   UNL     1       4.517   6.132  17.959  0.00  0.00    +0.000 HD
BRANCH   3   6
ATOM      6  O   UNL     1       3.435   4.458  19.241  0.00  0.00    +0.000 OA
BRANCH   6   7
ATOM      7  C   UNL     1       2.712   3.343  18.645  0.00  0.00    +0.000 C 
ATOM      8  C   UNL     1       2.011   2.503  19.721  0.00  0.00    +0.000 C 
ATOM      9  C   UNL     1       1.634   3.950  17.732  0.00  0.00    +0.000 C 
ATOM     10  C   UNL     1       3.638   2.489  17.763  0.00  0.00    +0.000 C 
ENDBRANCH   6   7
ENDBRANCH   3   6
ENDBRANCH   1   2
BRANCH   1  11
ATOM     11  C   UNL     1       6.871   7.021  17.405  0.00  0.00    +0.000 C 
ATOM     12  O   UNL     1       6.152   7.508  16.532  0.00  0.00    +0.000 OA
ATOM     13  N   UNL     1       7.892   7.700  18.027  0.00  0.00    +0.000 N 
ATOM     14  H   UNL     1       8.631   7.220  18.545  0.00  0.00    +0.000 HD
BRANCH  13  15
ATOM     15  O   UNL     1       8.223   8.967  17.471  0.00  0.00    +0.000 OA
BRANCH  15  16
ATOM     16  C   UNL     1       8.770   9.813  18.401  0.00  0.00    +0.000 C 
ATOM     17  O   UNL     1       9.190   9.443  19.490  0.00  0.00    +0.000 OA
BRANCH  16  18
ATOM     18  O   UNL     1       8.742  11.087  17.927  0.00  0.00    +0.000 OA
BRANCH  18  19
ATOM     19  C   UNL     1       9.656  12.085  18.457  0.00  0.00    +0.000 C 
ATOM     20  C   UNL     1      11.114  11.668  18.234  0.00  0.00    +0.000 C 
ATOM     21  C   UNL     1       9.396  13.375  17.657  0.00  0.00    +0.000 C 
ATOM     22  C   UNL     1       9.363  12.384  19.933  0.00  0.00    +0.000 C 
ENDBRANCH  18  19
ENDBRANCH  16  18
ENDBRANCH  15  16
ENDBRANCH  13  15
ENDBRANCH   1  11
BRANCH   1  23
ATOM     23  C   UNL     1       7.119   4.504  17.026  0.00  0.00    +0.000 C 
BRANCH  23  24
ATOM     24  C   UNL     1       6.188   4.229  15.838  0.00  0.00    +0.000 C 
BRANCH  24  26
ATOM     25  C   UNL     1       6.022   3.672  13.127  0.00  0.00    +0.000 C 
ATOM     26  S   UNL     1       6.941   4.743  14.256  0.00  0.00    +0.000 S 
ENDBRANCH  24  26
ENDBRANCH  23  24
ENDBRANCH   1  23
TORSDOF 11
ENDMDL
