MODEL 1
REMARK VINA RESULT:      -7.4      0.000      0.000
REMARK  Name = 
REMARK  12 active torsions:
REMARK  status: ('A' for Active; 'I' for Inactive)
REMARK    1  A    between atoms: C_1  and  C_2
REMARK    2  A    between atoms: C_2  and  C_3
REMARK    3  A    between atoms: C_3  and  C_4
REMARK    4  A    between atoms: C_4  and  C_5
REMARK    5  A    between atoms: C_5  and  S_6
REMARK    6  A    between atoms: S_6  and  C_7
REMARK    7  A    between atoms: C_9  and  C_10
REMARK    8  A    between atoms: C_17  and  C_18
REMARK    9  A    between atoms: C_18  and  O_20
REMARK   10  A    between atoms: O_20  and  C_21
REMARK   11  A    between atoms: C_21  and  C_22
REMARK   12  A    between atoms: C_23  and  C_24
REMARK                            x       y       z     vdW  Elec       q    Type
REMARK                         _______ _______ _______ _____ _____    ______ ____
ROOT
ATOM      1  C   UNL     1       4.607   3.632  19.152  0.00  0.00    +0.000 C 
ATOM      2  N   UNL     1       3.784   4.086  18.276  0.00  0.00    +0.000 NA
ATOM      3  C   UNL     1       4.196   5.350  17.593  0.00  0.00    +0.000 C 
ATOM      4  C   UNL     1       5.683   5.686  17.673  0.00  0.00    +0.000 C 
ATOM      5  C   UNL     1       6.434   5.124  18.648  0.00  0.00    +0.000 C 
ATOM      6  C   UNL     1       7.876   5.403  18.985  0.00  0.00    +0.000 C 
ATOM      7  N   UNL     1       5.828   4.164  19.442  0.00  0.00    +0.000 N 
ATOM      8  H   UNL     1       6.384   3.705  20.153  0.00  0.00    +0.000 HD
ENDROOT
BRANCH   3   9
ATOM      9  C   UNL     1       3.352   6.510  18.132  0.00  0.00    +0.000 A 
ATOM     10  C   UNL     1       3.041   7.615  17.314  0.00  0.00    +0.000 A 
ATOM     11  C   UNL     1       2.241   8.658  17.787  0.00  0.00    +0.000 A 
ATOM     12  C   UNL     1       1.753   8.600  19.085  0.00  0.00    +0.000 A 
ATOM     13  F   UNL     1       0.978   9.594  19.540  0.00  0.00    +0.000 F 
ATOM     14  C   UNL     1       2.051   7.528  19.916  0.00  0.00    +0.000 A 
ATOM     15  C   UNL     1       2.850   6.483  19.443  0.00  0.00    +0.000 A 
ENDBRANCH   3   9
BRANCH   4  16
ATOM     16  C   UNL     1       6.230   6.694  16.728  0.00  0.00    +0.000 C 
ATOM     17  O   UNL     1       6.759   7.741  17.066  0.00  0.00    +0.000 OA
BRANCH  16  18
ATOM     18  O   UNL     1       6.093   6.296  15.434  0.00  0.00    +0.000 OA
BRANCH  18  19
ATOM     19  C   UNL     1       6.888   5.154  15.072  0.00  0.00    +0.000 C 
ATOM     20  C   UNL     1       6.057   4.123  14.322  0.00  0.00    +0.000 C 
ENDBRANCH  18  19
ENDBRANCH  16  18
ENDBRANCH   4  16
BRANCH   1  21
ATOM     21  S   UNL     1       4.198   2.228  20.116  0.00  0.00    +0.000 S 
BRANCH  21  22
ATOM     22  C   UNL     1       3.099   2.971  21.361  0.00  0.00    +0.000 C 
BRANCH  22  23
ATOM     23  C   UNL     1       1.646   2.559  21.107  0.00  0.00    +0.000 C 
BRANCH  23  24
ATOM     24  C   UNL     1       0.845   3.705  20.476  0.00  0.00    +0.000 C 
BRANCH  24  26
ATOM     25  C   UNL     1       0.719   2.067  18.556  0.00  0.00    +0.000 C 
ATOM     26  C   UNL     1       0.699   3.533  18.961  0.00  0.00    +0.000 C 
ENDBRANCH  24  26
ENDBRANCH  23  24
ENDBRANCH  22  23
ENDBRANCH  21  22
ENDBRANCH   1  21
TORSDOF 9
ENDMDL
MODEL 2
REMARK VINA RESULT:      -7.0      3.020      6.035
REMARK  Name = 
REMARK  12 active torsions:
REMARK  status: ('A' for Active; 'I' for Inactive)
REMARK    1  A    between atoms: C_1  and  C_2
REMARK    2  A    between atoms: C_2  and  C_3
REMARK    3  A    between atoms: C_3  and  C_4
REMARK    4  A    between atoms: C_4  and  C_5
REMARK    5  A    between atoms: C_5  and  S_6
REMARK    6  A    between atoms: S_6  and  C_7
REMARK    7  A    between atoms: C_9  and  C_10
REMARK    8  A    between atoms: C_17  and  C_18
REMARK    9  A    between atoms: C_18  and  O_20
REMARK   10  A    between atoms: O_20  and  C_21
REMARK   11  A    between atoms: C_21  and  C_22
REMARK   12  A    between atoms: C_23  and  C_24
REMARK                            x       y       z     vdW  Elec       q    Type
REMARK                         _______ _______ _______ _____ _____    ______ ____
ROOT
ATOM      1  C   UNL     1       5.900   5.375  18.725  0.00  0.00    +0.000 C 
ATOM      2  N   UNL     1       5.075   5.639  19.673  0.00  0.00    +0.000 NA
ATOM      3  C   UNL     1       3.638   5.346  19.383  0.00  0.00    +0.000 C 
ATOM      4  C   UNL     1       3.383   4.384  18.227  0.00  0.00    +0.000 C 
ATOM      5  C   UNL     1       4.352   4.197  17.300  0.00  0.00    +0.000 C 
ATOM      6  C   UNL     1       4.273   3.397  16.025  0.00  0.00    +0.000 C 
ATOM      7  N   UNL     1       5.578   4.797  17.533  0.00  0.00    +0.000 N 
ATOM      8  H   UNL     1       6.327   4.638  16.871  0.00  0.00    +0.000 HD
ENDROOT
BRANCH   3   9
ATOM      9  C   UNL     1       2.893   6.667  19.159  0.00  0.00    +0.000 A 
ATOM     10  C   UNL     1       2.095   7.226  20.177  0.00  0.00    +0.000 A 
ATOM     11  C   UNL     1       1.444   8.447  19.992  0.00  0.00    +0.000 A 
ATOM     12  C   UNL     1       1.585   9.113  18.782  0.00  0.00    +0.000 A 
ATOM     13  F   UNL     1       0.969  10.289  18.605  0.00  0.00    +0.000 F 
ATOM     14  C   UNL     1       2.358   8.582  17.758  0.00  0.00    +0.000 A 
ATOM     15  C   UNL     1       3.012   7.360  17.942  0.00  0.00    +0.000 A 
ENDBRANCH   3   9
BRANCH   4  16
ATOM     16  C   UNL     1       2.041   3.757  18.113  0.00  0.00    +0.000 C 
ATOM     17  O   UNL     1       1.170   4.127  17.343  0.00  0.00    +0.000 OA
BRANCH  16  18
ATOM     18  O   UNL     1       1.908   2.699  18.957  0.00  0.00    +0.000 OA
BRANCH  18  19
ATOM     19  C   UNL     1       0.959   2.897  20.019  0.00  0.00    +0.000 C 
ATOM     20  C   UNL     1       1.634   2.816  21.380  0.00  0.00    +0.000 C 
ENDBRANCH  18  19
ENDBRANCH  16  18
ENDBRANCH   4  16
BRANCH   1  21
ATOM     21  S   UNL     1       7.597   5.781  18.881  0.00  0.00    +0.000 S 
BRANCH  21  22
ATOM     22  C   UNL     1       7.665   7.347  17.959  0.00  0.00    +0.000 C 
BRANCH  22  23
ATOM     23  C   UNL     1       8.512   8.377  18.715  0.00  0.00    +0.000 C 
BRANCH  23  24
ATOM     24  C   UNL     1       8.525   9.728  17.987  0.00  0.00    +0.000 C 
BRANCH  24  26
ATOM     25  C   UNL     1      10.261  11.556  17.830  0.00  0.00    +0.000 C 
ATOM     26  C   UNL     1       9.332  10.781  18.752  0.00  0.00    +0.000 C 
ENDBRANCH  24  26
ENDBRANCH  23  24
ENDBRANCH  22  23
ENDBRANCH  21  22
ENDBRANCH   1  21
TORSDOF 9
ENDMDL
MODEL 3
REMARK VINA RESULT:      -7.0      0.663      1.246
REMARK  Name = 
REMARK  12 active torsions:
REMARK  status: ('A' for Active; 'I' for Inactive)
REMARK    1  A    between atoms: C_1  and  C_2
REMARK    2  A    between atoms: C_2  and  C_3
REMARK    3  A    between atoms: C_3  and  C_4
REMARK    4  A    between atoms: C_4  and  C_5
REMARK    5  A    between atoms: C_5  and  S_6
REMARK    6  A    between atoms: S_6  and  C_7
REMARK    7  A    between atoms: C_9  and  C_10
REMARK    8  A    between atoms: C_17  and  C_18
REMARK    9  A    between atoms: C_18  and  O_20
REMARK   10  A    between atoms: O_20  and  C_21
REMARK   11  A    between atoms: C_21  and  C_22
REMARK   12  A    between atoms: C_23  and  C_24
REMARK                            x       y       z     vdW  Elec       q    Type
REMARK                         _______ _______ _______ _____ _____    ______ ____
ROOT
ATOM      1  C   UNL     1       4.322   3.304  18.432  0.00  0.00    +0.000 C 
ATOM      2  N   UNL     1       3.547   3.957  17.643  0.00  0.00    +0.000 NA
ATOM      3  C   UNL     1       4.079   5.262  17.145  0.00  0.00    +0.000 C 
ATOM      4  C   UNL     1       5.591   5.441  17.254  0.00  0.00    +0.000 C 
ATOM      5  C   UNL     1       6.284   4.673  18.127  0.00  0.00    +0.000 C 
ATOM      6  C   UNL     1       7.746   4.761  18.483  0.00  0.00    +0.000 C 
ATOM      7  N   UNL     1       5.588   3.670  18.781  0.00  0.00    +0.000 N 
ATOM      8  H   UNL     1       6.096   3.060  19.410  0.00  0.00    +0.000 HD
ENDROOT
BRANCH   3   9
ATOM      9  C   UNL     1       3.349   6.406  17.858  0.00  0.00    +0.000 A 
ATOM     10  C   UNL     1       3.010   7.586  17.166  0.00  0.00    +0.000 A 
ATOM     11  C   UNL     1       2.312   8.616  17.799  0.00  0.00    +0.000 A 
ATOM     12  C   UNL     1       1.956   8.471  19.133  0.00  0.00    +0.000 A 
ATOM     13  F   UNL     1       1.278   9.454  19.741  0.00  0.00    +0.000 F 
ATOM     14  C   UNL     1       2.285   7.323  19.842  0.00  0.00    +0.000 A 
ATOM     15  C   UNL     1       2.982   6.291  19.209  0.00  0.00    +0.000 A 
ENDBRANCH   3   9
BRANCH   4  16
ATOM     16  C   UNL     1       6.234   6.518  16.459  0.00  0.00    +0.000 C 
ATOM     17  O   UNL     1       6.688   7.547  16.932  0.00  0.00    +0.000 OA
BRANCH  16  18
ATOM     18  O   UNL     1       6.277   6.209  15.134  0.00  0.00    +0.000 OA
BRANCH  18  19
ATOM     19  C   UNL     1       6.949   4.975  14.830  0.00  0.00    +0.000 C 
ATOM     20  C   UNL     1       6.100   4.097  13.922  0.00  0.00    +0.000 C 
ENDBRANCH  18  19
ENDBRANCH  16  18
ENDBRANCH   4  16
BRANCH   1  21
ATOM     21  S   UNL     1       3.779   1.819  19.187  0.00  0.00    +0.000 S 
BRANCH  21  22
ATOM     22  C   UNL     1       2.154   1.604  18.397  0.00  0.00    +0.000 C 
BRANCH  22  23
ATOM     23  C   UNL     1       1.030   1.834  19.413  0.00  0.00    +0.000 C 
BRANCH  23  24
ATOM     24  C   UNL     1       0.741   3.329  19.592  0.00  0.00    +0.000 C 
BRANCH  24  26
ATOM     25  C   UNL     1       1.570   2.744  21.906  0.00  0.00    +0.000 C 
ATOM     26  C   UNL     1       1.297   3.865  20.914  0.00  0.00    +0.000 C 
ENDBRANCH  24  26
ENDBRANCH  23  24
ENDBRANCH  22  23
ENDBRANCH  21  22
ENDBRANCH   1  21
TORSDOF 9
ENDMDL
MODEL 4
REMARK VINA RESULT:      -6.9      3.428      5.850
REMARK  Name = 
REMARK  12 active torsions:
REMARK  status: ('A' for Active; 'I' for Inactive)
REMARK    1  A    between atoms: C_1  and  C_2
REMARK    2  A    between atoms: C_2  and  C_3
REMARK    3  A    between atoms: C_3  and  C_4
REMARK    4  A    between atoms: C_4  and  C_5
REMARK    5  A    between atoms: C_5  and  S_6
REMARK    6  A    between atoms: S_6  and  C_7
REMARK    7  A    between atoms: C_9  and  C_10
REMARK    8  A    between atoms: C_17  and  C_18
REMARK    9  A    between atoms: C_18  and  O_20
REMARK   10  A    between atoms: O_20  and  C_21
REMARK   11  A    between atoms: C_21  and  C_22
REMARK   12  A    between atoms: C_23  and  C_24
REMARK                            x       y       z     vdW  Elec       q    Type
REMARK                         _______ _______ _______ _____ _____    ______ ____
ROOT
ATOM      1  C   UNL     1       1.753   7.212  20.314  0.00  0.00    +0.000 C 
ATOM      2  N   UNL     1       2.152   7.398  19.108  0.00  0.00    +0.000 NA
ATOM      3  C   UNL     1       2.588   6.172  18.373  0.00  0.00    +0.000 C 
ATOM      4  C   UNL     1       2.094   4.848  18.950  0.00  0.00    +0.000 C 
ATOM      5  C   UNL     1       1.693   4.802  20.242  0.00  0.00    +0.000 C 
ATOM      6  C   UNL     1       1.287   3.592  21.044  0.00  0.00    +0.000 C 
ATOM      7  N   UNL     1       1.631   6.002  20.930  0.00  0.00    +0.000 N 
ATOM      8  H   UNL     1       1.297   5.993  21.887  0.00  0.00    +0.000 HD
ENDROOT
BRANCH   3   9
ATOM      9  C   UNL     1       4.117   6.172  18.258  0.00  0.00    +0.000 A 
ATOM     10  C   UNL     1       4.915   5.595  19.266  0.00  0.00    +0.000 A 
ATOM     11  C   UNL     1       6.306   5.559  19.150  0.00  0.00    +0.000 A 
ATOM     12  C   UNL     1       6.905   6.106  18.024  0.00  0.00    +0.000 A 
ATOM     13  F   UNL     1       8.239   6.065  17.905  0.00  0.00    +0.000 F 
ATOM     14  C   UNL     1       6.144   6.689  17.019  0.00  0.00    +0.000 A 
ATOM     15  C   UNL     1       4.751   6.725  17.133  0.00  0.00    +0.000 A 
ENDBRANCH   3   9
BRANCH   4  16
ATOM     16  C   UNL     1       2.159   3.636  18.093  0.00  0.00    +0.000 C 
ATOM     17  O   UNL     1       1.207   3.162  17.495  0.00  0.00    +0.000 OA
BRANCH  16  18
ATOM     18  O   UNL     1       3.420   3.129  18.036  0.00  0.00    +0.000 OA
BRANCH  18  19
ATOM     19  C   UNL     1       3.592   1.874  18.716  0.00  0.00    +0.000 C 
ATOM     20  C   UNL     1       4.419   2.044  19.981  0.00  0.00    +0.000 C 
ENDBRANCH  18  19
ENDBRANCH  16  18
ENDBRANCH   4  16
BRANCH   1  21
ATOM     21  S   UNL     1       1.329   8.573  21.333  0.00  0.00    +0.000 S 
BRANCH  21  22
ATOM     22  C   UNL     1       0.858   9.808  20.082  0.00  0.00    +0.000 C 
BRANCH  22  23
ATOM     23  C   UNL     1      -0.509  10.414  20.417  0.00  0.00    +0.000 C 
BRANCH  23  24
ATOM     24  C   UNL     1      -1.227  10.898  19.151  0.00  0.00    +0.000 C 
BRANCH  24  26
ATOM     25  C   UNL     1      -2.057   9.964  16.954  0.00  0.00    +0.000 C 
ATOM     26  C   UNL     1      -0.897  10.024  17.937  0.00  0.00    +0.000 C 
ENDBRANCH  24  26
ENDBRANCH  23  24
ENDBRANCH  22  23
ENDBRANCH  21  22
ENDBRANCH   1  21
TORSDOF 9
ENDMDL
MODEL 5
REMARK VINA RESULT:      -6.8      3.265      5.417
REMARK  Name = 
REMARK  12 active torsions:
REMARK  status: ('A' for Active; 'I' for Inactive)
REMARK    1  A    between atoms: C_1  and  C_2
REMARK    2  A    between atoms: C_2  and  C_3
REMARK    3  A    between atoms: C_3  and  C_4
REMARK    4  A    between atoms: C_4  and  C_5
REMARK    5  A    between atoms: C_5  and  S_6
REMARK    6  A    between atoms: S_6  and  C_7
REMARK    7  A    between atoms: C_9  and  C_10
REMARK    8  A    between atoms: C_17  and  C_18
REMARK    9  A    between atoms: C_18  and  O_20
REMARK   10  A    between atoms: O_20  and  C_21
REMARK   11  A    between atoms: C_21  and  C_22
REMARK   12  A    between atoms: C_23  and  C_24
REMARK                            x       y       z     vdW  Elec       q    Type
REMARK                         _______ _______ _______ _____ _____    ______ ____
ROOT
ATOM      1  C   UNL     1       2.650   7.914  18.392  0.00  0.00    +0.000 C 
ATOM      2  N   UNL     1       2.522   7.245  19.481  0.00  0.00    +0.000 NA
ATOM      3  C   UNL     1       3.376   6.024  19.596  0.00  0.00    +0.000 C 
ATOM      4  C   UNL     1       4.580   5.973  18.659  0.00  0.00    +0.000 C 
ATOM      5  C   UNL     1       4.582   6.744  17.547  0.00  0.00    +0.000 C 
ATOM      6  C   UNL     1       5.597   6.763  16.433  0.00  0.00    +0.000 C 
ATOM      7  N   UNL     1       3.537   7.640  17.394  0.00  0.00    +0.000 N 
ATOM      8  H   UNL     1       3.540   8.253  16.588  0.00  0.00    +0.000 HD
ENDROOT
BRANCH   3   9
ATOM      9  C   UNL     1       2.500   4.779  19.416  0.00  0.00    +0.000 A 
ATOM     10  C   UNL     1       1.915   4.143  20.530  0.00  0.00    +0.000 A 
ATOM     11  C   UNL     1       1.087   3.031  20.369  0.00  0.00    +0.000 A 
ATOM     12  C   UNL     1       0.843   2.548  19.091  0.00  0.00    +0.000 A 
ATOM     13  F   UNL     1       0.040   1.486  18.933  0.00  0.00    +0.000 F 
ATOM     14  C   UNL     1       1.413   3.149  17.977  0.00  0.00    +0.000 A 
ATOM     15  C   UNL     1       2.242   4.263  18.136  0.00  0.00    +0.000 A 
ENDBRANCH   3   9
BRANCH   4  16
ATOM     16  C   UNL     1       5.667   5.006  18.959  0.00  0.00    +0.000 C 
ATOM     17  O   UNL     1       5.746   3.886  18.480  0.00  0.00    +0.000 OA
BRANCH  16  18
ATOM     18  O   UNL     1       6.583   5.530  19.818  0.00  0.00    +0.000 OA
BRANCH  18  19
ATOM     19  C   UNL     1       7.903   5.677  19.268  0.00  0.00    +0.000 C 
ATOM     20  C   UNL     1       8.116   7.083  18.724  0.00  0.00    +0.000 C 
ENDBRANCH  18  19
ENDBRANCH  16  18
ENDBRANCH   4  16
BRANCH   1  21
ATOM     21  S   UNL     1       1.624   9.297  18.070  0.00  0.00    +0.000 S 
BRANCH  21  22
ATOM     22  C   UNL     1       1.199   9.815  19.761  0.00  0.00    +0.000 C 
BRANCH  22  23
ATOM     23  C   UNL     1      -0.231   9.388  20.108  0.00  0.00    +0.000 C 
BRANCH  23  24
ATOM     24  C   UNL     1      -0.326   8.888  21.556  0.00  0.00    +0.000 C 
BRANCH  24  26
ATOM     25  C   UNL     1      -1.133  10.588  23.242  0.00  0.00    +0.000 C 
ATOM     26  C   UNL     1       0.079   9.970  22.561  0.00  0.00    +0.000 C 
ENDBRANCH  24  26
ENDBRANCH  23  24
ENDBRANCH  22  23
ENDBRANCH  21  22
ENDBRANCH   1  21
TORSDOF 9
ENDMDL
MODEL 6
REMARK VINA RESULT:      -6.8      2.851      5.840
REMARK  Name = 
REMARK  12 active torsions:
REMARK  status: ('A' for Active; 'I' for Inactive)
REMARK    1  A    between atoms: C_1  and  C_2
REMARK    2  A    between atoms: C_2  and  C_3
REMARK    3  A    between atoms: C_3  and  C_4
REMARK    4  A    between atoms: C_4  and  C_5
REMARK    5  A    between atoms: C_5  and  S_6
REMARK    6  A    between atoms: S_6  and  C_7
REMARK    7  A    between atoms: C_9  and  C_10
REMARK    8  A    between atoms: C_17  and  C_18
REMARK    9  A    between atoms: C_18  and  O_20
REMARK   10  A    between atoms: O_20  and  C_21
REMARK   11  A    between atoms: C_21  and  C_22
REMARK   12  A    between atoms: C_23  and  C_24
REMARK                            x       y       z     vdW  Elec       q    Type
REMARK                         _______ _______ _______ _____ _____    ______ ____
ROOT
ATOM      1  C   UNL     1       5.691   4.661  18.583  0.00  0.00    +0.000 C 
ATOM      2  N   UNL     1       5.188   5.390  19.512  0.00  0.00    +0.000 NA
ATOM      3  C   UNL     1       3.705   5.304  19.674  0.00  0.00    +0.000 C 
ATOM      4  C   UNL     1       3.046   4.074  19.057  0.00  0.00    +0.000 C 
ATOM      5  C   UNL     1       3.700   3.393  18.087  0.00  0.00    +0.000 C 
ATOM      6  C   UNL     1       3.194   2.236  17.264  0.00  0.00    +0.000 C 
ATOM      7  N   UNL     1       4.998   3.783  17.803  0.00  0.00    +0.000 N 
ATOM      8  H   UNL     1       5.517   3.263  17.106  0.00  0.00    +0.000 HD
ENDROOT
BRANCH   3   9
ATOM      9  C   UNL     1       3.066   6.587  19.128  0.00  0.00    +0.000 A 
ATOM     10  C   UNL     1       2.159   7.329  19.911  0.00  0.00    +0.000 A 
ATOM     11  C   UNL     1       1.602   8.517  19.434  0.00  0.00    +0.000 A 
ATOM     12  C   UNL     1       1.949   8.966  18.168  0.00  0.00    +0.000 A 
ATOM     13  F   UNL     1       1.423  10.111  17.711  0.00  0.00    +0.000 F 
ATOM     14  C   UNL     1       2.834   8.252  17.371  0.00  0.00    +0.000 A 
ATOM     15  C   UNL     1       3.393   7.062  17.848  0.00  0.00    +0.000 A 
ENDBRANCH   3   9
BRANCH   4  16
ATOM     16  C   UNL     1       1.667   3.722  19.484  0.00  0.00    +0.000 C 
ATOM     17  O   UNL     1       0.822   3.234  18.752  0.00  0.00    +0.000 OA
BRANCH  16  18
ATOM     18  O   UNL     1       1.466   3.990  20.804  0.00  0.00    +0.000 OA
BRANCH  18  19
ATOM     19  C   UNL     1       1.443   2.829  21.652  0.00  0.00    +0.000 C 
ATOM     20  C   UNL     1       2.801   2.143  21.680  0.00  0.00    +0.000 C 
ENDBRANCH  18  19
ENDBRANCH  16  18
ENDBRANCH   4  16
BRANCH   1  21
ATOM     21  S   UNL     1       7.399   4.753  18.202  0.00  0.00    +0.000 S 
BRANCH  21  22
ATOM     22  C   UNL     1       7.744   6.499  18.581  0.00  0.00    +0.000 C 
BRANCH  22  23
ATOM     23  C   UNL     1       7.439   7.381  17.366  0.00  0.00    +0.000 C 
BRANCH  23  24
ATOM     24  C   UNL     1       7.794   8.848  17.641  0.00  0.00    +0.000 C 
BRANCH  24  26
ATOM     25  C   UNL     1       9.283  10.418  18.945  0.00  0.00    +0.000 C 
ATOM     26  C   UNL     1       8.783   8.988  18.802  0.00  0.00    +0.000 C 
ENDBRANCH  24  26
ENDBRANCH  23  24
ENDBRANCH  22  23
ENDBRANCH  21  22
ENDBRANCH   1  21
TORSDOF 9
ENDMDL
MODEL 7
REMARK VINA RESULT:      -6.7      3.283      5.391
REMARK  Name = 
REMARK  12 active torsions:
REMARK  status: ('A' for Active; 'I' for Inactive)
REMARK    1  A    between atoms: C_1  and  C_2
REMARK    2  A    between atoms: C_2  and  C_3
REMARK    3  A    between atoms: C_3  and  C_4
REMARK    4  A    between atoms: C_4  and  C_5
REMARK    5  A    between atoms: C_5  and  S_6
REMARK    6  A    between atoms: S_6  and  C_7
REMARK    7  A    between atoms: C_9  and  C_10
REMARK    8  A    between atoms: C_17  and  C_18
REMARK    9  A    between atoms: C_18  and  O_20
REMARK   10  A    between atoms: O_20  and  C_21
REMARK   11  A    between atoms: C_21  and  C_22
REMARK   12  A    between atoms: C_23  and  C_24
REMARK                            x       y       z     vdW  Elec       q    Type
REMARK                         _______ _______ _______ _____ _____    ______ ____
ROOT
ATOM      1  C   UNL     1       2.438   8.096  18.426  0.00  0.00    +0.000 C 
ATOM      2  N   UNL     1       2.346   7.384  19.491  0.00  0.00    +0.000 NA
ATOM      3  C   UNL     1       3.203   6.160  19.528  0.00  0.00    +0.000 C 
ATOM      4  C   UNL     1       4.374   6.147  18.550  0.00  0.00    +0.000 C 
ATOM      5  C   UNL     1       4.339   6.962  17.469  0.00  0.00    +0.000 C 
ATOM      6  C   UNL     1       5.316   7.026  16.324  0.00  0.00    +0.000 C 
ATOM      7  N   UNL     1       3.291   7.864  17.389  0.00  0.00    +0.000 N 
ATOM      8  H   UNL     1       3.267   8.508  16.608  0.00  0.00    +0.000 HD
ENDROOT
BRANCH   3   9
ATOM      9  C   UNL     1       2.320   4.923  19.328  0.00  0.00    +0.000 A 
ATOM     10  C   UNL     1       2.046   4.435  18.034  0.00  0.00    +0.000 A 
ATOM     11  C   UNL     1       1.272   3.288  17.847  0.00  0.00    +0.000 A 
ATOM     12  C   UNL     1       0.765   2.625  18.956  0.00  0.00    +0.000 A 
ATOM     13  F   UNL     1       0.031   1.518  18.780  0.00  0.00    +0.000 F 
ATOM     14  C   UNL     1       1.012   3.088  20.242  0.00  0.00    +0.000 A 
ATOM     15  C   UNL     1       1.787   4.236  20.431  0.00  0.00    +0.000 A 
ENDBRANCH   3   9
BRANCH   4  16
ATOM     16  C   UNL     1       5.469   5.169  18.773  0.00  0.00    +0.000 C 
ATOM     17  O   UNL     1       5.547   4.082  18.223  0.00  0.00    +0.000 OA
BRANCH  16  18
ATOM     18  O   UNL     1       6.395   5.643  19.650  0.00  0.00    +0.000 OA
BRANCH  18  19
ATOM     19  C   UNL     1       7.744   5.645  19.153  0.00  0.00    +0.000 C 
ATOM     20  C   UNL     1       8.106   6.997  18.555  0.00  0.00    +0.000 C 
ENDBRANCH  18  19
ENDBRANCH  16  18
ENDBRANCH   4  16
BRANCH   1  21
ATOM     21  S   UNL     1       1.403   9.491  18.195  0.00  0.00    +0.000 S 
BRANCH  21  22
ATOM     22  C   UNL     1       0.132   9.193  19.462  0.00  0.00    +0.000 C 
BRANCH  22  23
ATOM     23  C   UNL     1       0.451   9.982  20.736  0.00  0.00    +0.000 C 
BRANCH  23  24
ATOM     24  C   UNL     1       0.463   9.068  21.968  0.00  0.00    +0.000 C 
BRANCH  24  26
ATOM     25  C   UNL     1      -0.853  11.054  22.809  0.00  0.00    +0.000 C 
ATOM     26  C   UNL     1      -0.193   9.735  23.180  0.00  0.00    +0.000 C 
ENDBRANCH  24  26
ENDBRANCH  23  24
ENDBRANCH  22  23
ENDBRANCH  21  22
ENDBRANCH   1  21
TORSDOF 9
ENDMDL
MODEL 8
REMARK VINA RESULT:      -6.7      2.743      5.431
REMARK  Name = 
REMARK  12 active torsions:
REMARK  status: ('A' for Active; 'I' for Inactive)
REMARK    1  A    between atoms: C_1  and  C_2
REMARK    2  A    between atoms: C_2  and  C_3
REMARK    3  A    between atoms: C_3  and  C_4
REMARK    4  A    between atoms: C_4  and  C_5
REMARK    5  A    between atoms: C_5  and  S_6
REMARK    6  A    between atoms: S_6  and  C_7
REMARK    7  A    between atoms: C_9  and  C_10
REMARK    8  A    between atoms: C_17  and  C_18
REMARK    9  A    between atoms: C_18  and  O_20
REMARK   10  A    between atoms: O_20  and  C_21
REMARK   11  A    between atoms: C_21  and  C_22
REMARK   12  A    between atoms: C_23  and  C_24
REMARK                            x       y       z     vdW  Elec       q    Type
REMARK                         _______ _______ _______ _____ _____    ______ ____
ROOT
ATOM      1  C   UNL     1       4.957   5.189  17.458  0.00  0.00    +0.000 C 
ATOM      2  N   UNL     1       4.935   5.941  18.498  0.00  0.00    +0.000 NA
ATOM      3  C   UNL     1       3.716   5.826  19.356  0.00  0.00    +0.000 C 
ATOM      4  C   UNL     1       2.891   4.558  19.160  0.00  0.00    +0.000 C 
ATOM      5  C   UNL     1       3.024   3.856  18.009  0.00  0.00    +0.000 C 
ATOM      6  C   UNL     1       2.231   2.657  17.557  0.00  0.00    +0.000 C 
ATOM      7  N   UNL     1       4.009   4.266  17.127  0.00  0.00    +0.000 N 
ATOM      8  H   UNL     1       4.150   3.731  16.279  0.00  0.00    +0.000 HD
ENDROOT
BRANCH   3   9
ATOM      9  C   UNL     1       2.844   7.072  19.157  0.00  0.00    +0.000 A 
ATOM     10  C   UNL     1       2.845   7.763  17.929  0.00  0.00    +0.000 A 
ATOM     11  C   UNL     1       2.026   8.876  17.730  0.00  0.00    +0.000 A 
ATOM     12  C   UNL     1       1.204   9.305  18.763  0.00  0.00    +0.000 A 
ATOM     13  F   UNL     1       0.410  10.367  18.572  0.00  0.00    +0.000 F 
ATOM     14  C   UNL     1       1.188   8.648  19.986  0.00  0.00    +0.000 A 
ATOM     15  C   UNL     1       2.007   7.533  20.187  0.00  0.00    +0.000 A 
ENDBRANCH   3   9
BRANCH   4  16
ATOM     16  C   UNL     1       1.901   4.190  20.205  0.00  0.00    +0.000 C 
ATOM     17  O   UNL     1       0.691   4.229  20.054  0.00  0.00    +0.000 OA
BRANCH  16  18
ATOM     18  O   UNL     1       2.510   3.779  21.351  0.00  0.00    +0.000 OA
BRANCH  18  19
ATOM     19  C   UNL     1       2.749   2.364  21.427  0.00  0.00    +0.000 C 
ATOM     20  C   UNL     1       4.143   2.016  20.927  0.00  0.00    +0.000 C 
ENDBRANCH  18  19
ENDBRANCH  16  18
ENDBRANCH   4  16
BRANCH   1  21
ATOM     21  S   UNL     1       6.267   5.307  16.300  0.00  0.00    +0.000 S 
BRANCH  21  22
ATOM     22  C   UNL     1       5.959   3.833  15.278  0.00  0.00    +0.000 C 
BRANCH  22  23
ATOM     23  C   UNL     1       5.492   4.241  13.877  0.00  0.00    +0.000 C 
BRANCH  23  24
ATOM     24  C   UNL     1       6.378   3.617  12.792  0.00  0.00    +0.000 C 
BRANCH  24  26
ATOM     25  C   UNL     1       4.252   3.284  11.468  0.00  0.00    +0.000 C 
ATOM     26  C   UNL     1       5.586   2.678  11.878  0.00  0.00    +0.000 C 
ENDBRANCH  24  26
ENDBRANCH  23  24
ENDBRANCH  22  23
ENDBRANCH  21  22
ENDBRANCH   1  21
TORSDOF 9
ENDMDL
MODEL 9
REMARK VINA RESULT:      -6.7      3.330      5.745
REMARK  Name = 
REMARK  12 active torsions:
REMARK  status: ('A' for Active; 'I' for Inactive)
REMARK    1  A    between atoms: C_1  and  C_2
REMARK    2  A    between atoms: C_2  and  C_3
REMARK    3  A    between atoms: C_3  and  C_4
REMARK    4  A    between atoms: C_4  and  C_5
REMARK    5  A    between atoms: C_5  and  S_6
REMARK    6  A    between atoms: S_6  and  C_7
REMARK    7  A    between atoms: C_9  and  C_10
REMARK    8  A    between atoms: C_17  and  C_18
REMARK    9  A    between atoms: C_18  and  O_20
REMARK   10  A    between atoms: O_20  and  C_21
REMARK   11  A    between atoms: C_21  and  C_22
REMARK   12  A    between atoms: C_23  and  C_24
REMARK                            x       y       z     vdW  Elec       q    Type
REMARK                         _______ _______ _______ _____ _____    ______ ____
ROOT
ATOM      1  C   UNL     1       2.478   8.030  18.308  0.00  0.00    +0.000 C 
ATOM      2  N   UNL     1       2.391   7.351  19.394  0.00  0.00    +0.000 NA
ATOM      3  C   UNL     1       3.253   6.132  19.468  0.00  0.00    +0.000 C 
ATOM      4  C   UNL     1       4.421   6.093  18.487  0.00  0.00    +0.000 C 
ATOM      5  C   UNL     1       4.380   6.874  17.382  0.00  0.00    +0.000 C 
ATOM      6  C   UNL     1       5.354   6.906  16.232  0.00  0.00    +0.000 C 
ATOM      7  N   UNL     1       3.329   7.768  17.276  0.00  0.00    +0.000 N 
ATOM      8  H   UNL     1       3.300   8.388  16.475  0.00  0.00    +0.000 HD
ENDROOT
BRANCH   3   9
ATOM      9  C   UNL     1       2.375   4.886  19.309  0.00  0.00    +0.000 A 
ATOM     10  C   UNL     1       2.103   4.354  18.032  0.00  0.00    +0.000 A 
ATOM     11  C   UNL     1       1.334   3.199  17.883  0.00  0.00    +0.000 A 
ATOM     12  C   UNL     1       0.829   2.572  19.014  0.00  0.00    +0.000 A 
ATOM     13  F   UNL     1       0.098   1.457  18.875  0.00  0.00    +0.000 F 
ATOM     14  C   UNL     1       1.073   3.079  20.284  0.00  0.00    +0.000 A 
ATOM     15  C   UNL     1       1.843   4.235  20.434  0.00  0.00    +0.000 A 
ENDBRANCH   3   9
BRANCH   4  16
ATOM     16  C   UNL     1       5.522   5.127  18.737  0.00  0.00    +0.000 C 
ATOM     17  O   UNL     1       5.645   4.057  18.163  0.00  0.00    +0.000 OA
BRANCH  16  18
ATOM     18  O   UNL     1       6.395   5.591  19.673  0.00  0.00    +0.000 OA
BRANCH  18  19
ATOM     19  C   UNL     1       7.762   5.660  19.233  0.00  0.00    +0.000 C 
ATOM     20  C   UNL     1       8.050   6.986  18.545  0.00  0.00    +0.000 C 
ENDBRANCH  18  19
ENDBRANCH  16  18
ENDBRANCH   4  16
BRANCH   1  21
ATOM     21  S   UNL     1       1.436   9.413  18.036  0.00  0.00    +0.000 S 
BRANCH  21  22
ATOM     22  C   UNL     1       0.741   9.655  19.699  0.00  0.00    +0.000 C 
BRANCH  22  23
ATOM     23  C   UNL     1      -0.630  10.334  19.612  0.00  0.00    +0.000 C 
BRANCH  23  24
ATOM     24  C   UNL     1      -0.623  11.694  20.321  0.00  0.00    +0.000 C 
BRANCH  24  26
ATOM     25  C   UNL     1      -0.464  13.158  18.268  0.00  0.00    +0.000 C 
ATOM     26  C   UNL     1       0.212  12.729  19.561  0.00  0.00    +0.000 C 
ENDBRANCH  24  26
ENDBRANCH  23  24
ENDBRANCH  22  23
ENDBRANCH  21  22
ENDBRANCH   1  21
TORSDOF 9
ENDMDL
