MODEL 1
REMARK VINA RESULT:      -6.6      0.000      0.000
REMARK  Name = 
REMARK  9 active torsions:
REMARK  status: ('A' for Active; 'I' for Inactive)
REMARK    1  A    between atoms: C_1  and  C_2
REMARK    2  A    between atoms: C_2  and  O_3
REMARK    3  A    between atoms: O_3  and  C_4
REMARK    4  A    between atoms: C_4  and  C_6
REMARK    5  A    between atoms: C_6  and  C_7
REMARK    6  A    between atoms: C_7  and  C_8
REMARK    7  A    between atoms: N_15  and  C_16
REMARK    8  A    between atoms: N_26  and  C_27
REMARK    9  A    between atoms: C_27  and  C_28
REMARK                            x       y       z     vdW  Elec       q    Type
REMARK                         _______ _______ _______ _____ _____    ______ ____
ROOT
ATOM      1  C   UNL     1      -2.525  13.042  21.431  0.00  0.00    +0.000 C 
ATOM      2  C   UNL     1      -2.732  13.034  19.868  0.00  0.00    +0.000 C 
ATOM      3  N   UNL     1      -3.619  11.947  19.389  0.00  0.00    +0.000 N 
ATOM      4  C   UNL     1      -4.991  11.995  19.979  0.00  0.00    +0.000 C 
ATOM      5  C   UNL     1      -5.000  12.458  21.404  0.00  0.00    +0.000 A 
ATOM      6  N   UNL     1      -6.055  12.381  22.253  0.00  0.00    +0.000 NA
ATOM      7  N   UNL     1      -5.635  12.782  23.447  0.00  0.00    +0.000 NA
ATOM      8  N   UNL     1      -4.336  13.167  23.348  0.00  0.00    +0.000 N 
ATOM      9  C   UNL     1      -3.892  12.950  22.067  0.00  0.00    +0.000 A 
ENDROOT
BRANCH   3  10
ATOM     10  C   UNL     1      -3.394  11.390  18.129  0.00  0.00    +0.000 A 
ATOM     11  C   UNL     1      -2.329  10.496  17.901  0.00  0.00    +0.000 A 
ATOM     12  C   UNL     1      -2.098   9.898  16.655  0.00  0.00    +0.000 A 
ATOM     13  C   UNL     1      -2.941  10.171  15.592  0.00  0.00    +0.000 A 
ATOM     14  C   UNL     1      -4.018  11.024  15.783  0.00  0.00    +0.000 A 
ATOM     15  C   UNL     1      -4.243  11.618  17.036  0.00  0.00    +0.000 A 
ENDBRANCH   3  10
BRANCH   1  16
ATOM     16  C   UNL     1      -1.882  14.414  21.678  0.00  0.00    +0.000 C 
ATOM     17  O   UNL     1      -2.214  15.465  21.147  0.00  0.00    +0.000 OA
BRANCH  16  18
ATOM     18  O   UNL     1      -0.808  14.292  22.516  0.00  0.00    +0.000 OA
BRANCH  18  20
ATOM     19  C   UNL     1       1.392  15.043  21.922  0.00  0.00    +0.000 C 
ATOM     20  C   UNL     1       0.077  15.423  22.582  0.00  0.00    +0.000 C 
ENDBRANCH  18  20
ENDBRANCH  16  18
ENDBRANCH   1  16
BRANCH   1  21
ATOM     21  C   UNL     1      -1.564  11.919  21.917  0.00  0.00    +0.000 C 
BRANCH  21  22
ATOM     22  C   UNL     1      -0.567  11.336  20.930  0.00  0.00    +0.000 A 
ATOM     23  C   UNL     1       0.148  12.160  20.048  0.00  0.00    +0.000 A 
ATOM     24  C   UNL     1       1.049  11.614  19.128  0.00  0.00    +0.000 A 
ATOM     25  C   UNL     1       1.256  10.237  19.080  0.00  0.00    +0.000 A 
ATOM     26  C   UNL     1       0.568   9.409  19.958  0.00  0.00    +0.000 A 
ATOM     27  C   UNL     1      -0.325   9.955  20.881  0.00  0.00    +0.000 A 
ENDBRANCH  21  22
ENDBRANCH   1  21
BRANCH   8  28
ATOM     28  C   UNL     1      -3.581  13.442  24.563  0.00  0.00    +0.000 C 
BRANCH  28  29
ATOM     29  C   UNL     1      -3.361  14.907  24.854  0.00  0.00    +0.000 A 
ATOM     30  C   UNL     1      -2.198  15.344  25.512  0.00  0.00    +0.000 A 
ATOM     31  C   UNL     1      -1.984  16.699  25.759  0.00  0.00    +0.000 A 
ATOM     32  C   UNL     1      -2.918  17.640  25.336  0.00  0.00    +0.000 A 
ATOM     33  C   UNL     1      -4.067  17.225  24.666  0.00  0.00    +0.000 A 
ATOM     34  C   UNL     1      -4.288  15.868  24.426  0.00  0.00    +0.000 A 
ENDBRANCH  28  29
ENDBRANCH   8  28
TORSDOF 8
ENDMDL
MODEL 2
REMARK VINA RESULT:      -6.6      3.180      7.664
REMARK  Name = 
REMARK  9 active torsions:
REMARK  status: ('A' for Active; 'I' for Inactive)
REMARK    1  A    between atoms: C_1  and  C_2
REMARK    2  A    between atoms: C_2  and  O_3
REMARK    3  A    between atoms: O_3  and  C_4
REMARK    4  A    between atoms: C_4  and  C_6
REMARK    5  A    between atoms: C_6  and  C_7
REMARK    6  A    between atoms: C_7  and  C_8
REMARK    7  A    between atoms: N_15  and  C_16
REMARK    8  A    between atoms: N_26  and  C_27
REMARK    9  A    between atoms: C_27  and  C_28
REMARK                            x       y       z     vdW  Elec       q    Type
REMARK                         _______ _______ _______ _____ _____    ______ ____
ROOT
ATOM      1  C   UNL     1      -0.498  10.720  19.835  0.00  0.00    +0.000 C 
ATOM      2  C   UNL     1      -1.166  11.958  20.549  0.00  0.00    +0.000 C 
ATOM      3  N   UNL     1      -1.802  11.627  21.846  0.00  0.00    +0.000 N 
ATOM      4  C   UNL     1      -0.852  11.047  22.844  0.00  0.00    +0.000 C 
ATOM      5  C   UNL     1       0.187  10.166  22.220  0.00  0.00    +0.000 A 
ATOM      6  N   UNL     1       1.025   9.336  22.890  0.00  0.00    +0.000 NA
ATOM      7  N   UNL     1       1.709   8.646  21.985  0.00  0.00    +0.000 NA
ATOM      8  N   UNL     1       1.352   9.074  20.746  0.00  0.00    +0.000 N 
ATOM      9  C   UNL     1       0.367  10.024  20.857  0.00  0.00    +0.000 A 
ENDROOT
BRANCH   3  10
ATOM     10  C   UNL     1      -2.930  12.340  22.254  0.00  0.00    +0.000 A 
ATOM     11  C   UNL     1      -3.308  12.405  23.610  0.00  0.00    +0.000 A 
ATOM     12  C   UNL     1      -4.417  13.138  24.052  0.00  0.00    +0.000 A 
ATOM     13  C   UNL     1      -5.183  13.846  23.141  0.00  0.00    +0.000 A 
ATOM     14  C   UNL     1      -4.827  13.832  21.800  0.00  0.00    +0.000 A 
ATOM     15  C   UNL     1      -3.712  13.095  21.367  0.00  0.00    +0.000 A 
ENDBRANCH   3  10
BRANCH   1  16
ATOM     16  C   UNL     1       0.349  11.382  18.738  0.00  0.00    +0.000 C 
ATOM     17  O   UNL     1       1.156  10.811  18.018  0.00  0.00    +0.000 OA
BRANCH  16  18
ATOM     18  O   UNL     1       0.149  12.735  18.734  0.00  0.00    +0.000 OA
BRANCH  18  20
ATOM     19  C   UNL     1       1.268  14.746  19.410  0.00  0.00    +0.000 C 
ATOM     20  C   UNL     1       1.307  13.546  18.477  0.00  0.00    +0.000 C 
ENDBRANCH  18  20
ENDBRANCH  16  18
ENDBRANCH   1  16
BRANCH   1  21
ATOM     21  C   UNL     1      -1.541   9.765  19.185  0.00  0.00    +0.000 C 
BRANCH  21  22
ATOM     22  C   UNL     1      -2.340  10.263  17.992  0.00  0.00    +0.000 A 
ATOM     23  C   UNL     1      -3.420  11.142  18.156  0.00  0.00    +0.000 A 
ATOM     24  C   UNL     1      -4.163  11.580  17.055  0.00  0.00    +0.000 A 
ATOM     25  C   UNL     1      -3.833  11.152  15.771  0.00  0.00    +0.000 A 
ATOM     26  C   UNL     1      -2.755  10.294  15.589  0.00  0.00    +0.000 A 
ATOM     27  C   UNL     1      -2.009   9.865  16.689  0.00  0.00    +0.000 A 
ENDBRANCH  21  22
ENDBRANCH   1  21
BRANCH   8  28
ATOM     28  C   UNL     1       1.799   8.325  19.579  0.00  0.00    +0.000 C 
BRANCH  28  29
ATOM     29  C   UNL     1       2.170   6.887  19.853  0.00  0.00    +0.000 A 
ATOM     30  C   UNL     1       1.308   6.047  20.578  0.00  0.00    +0.000 A 
ATOM     31  C   UNL     1       1.640   4.713  20.810  0.00  0.00    +0.000 A 
ATOM     32  C   UNL     1       2.827   4.192  20.305  0.00  0.00    +0.000 A 
ATOM     33  C   UNL     1       3.683   5.006  19.567  0.00  0.00    +0.000 A 
ATOM     34  C   UNL     1       3.358   6.346  19.342  0.00  0.00    +0.000 A 
ENDBRANCH  28  29
ENDBRANCH   8  28
TORSDOF 8
ENDMDL
MODEL 3
REMARK VINA RESULT:      -6.6      0.747      1.605
REMARK  Name = 
REMARK  9 active torsions:
REMARK  status: ('A' for Active; 'I' for Inactive)
REMARK    1  A    between atoms: C_1  and  C_2
REMARK    2  A    between atoms: C_2  and  O_3
REMARK    3  A    between atoms: O_3  and  C_4
REMARK    4  A    between atoms: C_4  and  C_6
REMARK    5  A    between atoms: C_6  and  C_7
REMARK    6  A    between atoms: C_7  and  C_8
REMARK    7  A    between atoms: N_15  and  C_16
REMARK    8  A    between atoms: N_26  and  C_27
REMARK    9  A    between atoms: C_27  and  C_28
REMARK                            x       y       z     vdW  Elec       q    Type
REMARK                         _______ _______ _______ _____ _____    ______ ____
ROOT
ATOM      1  C   UNL     1      -2.551  12.966  21.287  0.00  0.00    +0.000 C 
ATOM      2  C   UNL     1      -2.737  12.958  19.721  0.00  0.00    +0.000 C 
ATOM      3  N   UNL     1      -3.624  11.877  19.230  0.00  0.00    +0.000 N 
ATOM      4  C   UNL     1      -5.004  11.935  19.802  0.00  0.00    +0.000 C 
ATOM      5  C   UNL     1      -5.029  12.400  21.226  0.00  0.00    +0.000 A 
ATOM      6  N   UNL     1      -6.096  12.332  22.061  0.00  0.00    +0.000 NA
ATOM      7  N   UNL     1      -5.690  12.731  23.260  0.00  0.00    +0.000 NA
ATOM      8  N   UNL     1      -4.387  13.106  23.178  0.00  0.00    +0.000 N 
ATOM      9  C   UNL     1      -3.927  12.885  21.904  0.00  0.00    +0.000 A 
ENDROOT
BRANCH   3  10
ATOM     10  C   UNL     1      -3.386  11.317  17.975  0.00  0.00    +0.000 A 
ATOM     11  C   UNL     1      -2.333  10.405  17.765  0.00  0.00    +0.000 A 
ATOM     12  C   UNL     1      -2.089   9.804  16.523  0.00  0.00    +0.000 A 
ATOM     13  C   UNL     1      -2.908  10.092  15.445  0.00  0.00    +0.000 A 
ATOM     14  C   UNL     1      -3.975  10.962  15.617  0.00  0.00    +0.000 A 
ATOM     15  C   UNL     1      -4.213  11.559  16.867  0.00  0.00    +0.000 A 
ENDBRANCH   3  10
BRANCH   1  16
ATOM     16  C   UNL     1      -1.901  14.334  21.541  0.00  0.00    +0.000 C 
ATOM     17  O   UNL     1      -0.889  14.532  22.200  0.00  0.00    +0.000 OA
BRANCH  16  18
ATOM     18  O   UNL     1      -2.667  15.332  21.004  0.00  0.00    +0.000 OA
BRANCH  18  20
ATOM     19  C   UNL     1      -2.342  17.625  21.629  0.00  0.00    +0.000 C 
ATOM     20  C   UNL     1      -1.973  16.535  20.636  0.00  0.00    +0.000 C 
ENDBRANCH  18  20
ENDBRANCH  16  18
ENDBRANCH   1  16
BRANCH   1  21
ATOM     21  C   UNL     1      -1.605  11.836  21.787  0.00  0.00    +0.000 C 
BRANCH  21  22
ATOM     22  C   UNL     1      -0.583  11.262  20.820  0.00  0.00    +0.000 A 
ATOM     23  C   UNL     1      -0.358   9.880  20.737  0.00  0.00    +0.000 A 
ATOM     24  C   UNL     1       0.598   9.361  19.858  0.00  0.00    +0.000 A 
ATOM     25  C   UNL     1       1.340  10.213  19.045  0.00  0.00    +0.000 A 
ATOM     26  C   UNL     1       1.118  11.584  19.102  0.00  0.00    +0.000 A 
ATOM     27  C   UNL     1       0.157  12.100  19.974  0.00  0.00    +0.000 A 
ENDBRANCH  21  22
ENDBRANCH   1  21
BRANCH   8  28
ATOM     28  C   UNL     1      -3.646  13.377  24.404  0.00  0.00    +0.000 C 
BRANCH  28  29
ATOM     29  C   UNL     1      -3.437  14.841  24.707  0.00  0.00    +0.000 A 
ATOM     30  C   UNL     1      -4.444  15.783  24.438  0.00  0.00    +0.000 A 
ATOM     31  C   UNL     1      -4.259  17.132  24.741  0.00  0.00    +0.000 A 
ATOM     32  C   UNL     1      -3.074  17.557  25.333  0.00  0.00    +0.000 A 
ATOM     33  C   UNL     1      -2.074  16.633  25.624  0.00  0.00    +0.000 A 
ATOM     34  C   UNL     1      -2.252  15.283  25.314  0.00  0.00    +0.000 A 
ENDBRANCH  28  29
ENDBRANCH   8  28
TORSDOF 8
ENDMDL
MODEL 4
REMARK VINA RESULT:      -6.5      0.745      1.720
REMARK  Name = 
REMARK  9 active torsions:
REMARK  status: ('A' for Active; 'I' for Inactive)
REMARK    1  A    between atoms: C_1  and  C_2
REMARK    2  A    between atoms: C_2  and  O_3
REMARK    3  A    between atoms: O_3  and  C_4
REMARK    4  A    between atoms: C_4  and  C_6
REMARK    5  A    between atoms: C_6  and  C_7
REMARK    6  A    between atoms: C_7  and  C_8
REMARK    7  A    between atoms: N_15  and  C_16
REMARK    8  A    between atoms: N_26  and  C_27
REMARK    9  A    between atoms: C_27  and  C_28
REMARK                            x       y       z     vdW  Elec       q    Type
REMARK                         _______ _______ _______ _____ _____    ______ ____
ROOT
ATOM      1  C   UNL     1      -2.430  13.065  21.430  0.00  0.00    +0.000 C 
ATOM      2  C   UNL     1      -2.613  12.994  19.865  0.00  0.00    +0.000 C 
ATOM      3  N   UNL     1      -3.552  11.936  19.422  0.00  0.00    +0.000 N 
ATOM      4  C   UNL     1      -4.929  12.090  19.984  0.00  0.00    +0.000 C 
ATOM      5  C   UNL     1      -4.934  12.621  21.385  0.00  0.00    +0.000 A 
ATOM      6  N   UNL     1      -6.004  12.646  22.218  0.00  0.00    +0.000 NA
ATOM      7  N   UNL     1      -5.580  13.080  23.399  0.00  0.00    +0.000 NA
ATOM      8  N   UNL     1      -4.260  13.385  23.305  0.00  0.00    +0.000 N 
ATOM      9  C   UNL     1      -3.810  13.082  22.044  0.00  0.00    +0.000 A 
ENDROOT
BRANCH   3  10
ATOM     10  C   UNL     1      -3.340  11.308  18.195  0.00  0.00    +0.000 A 
ATOM     11  C   UNL     1      -4.191  11.537  17.095  0.00  0.00    +0.000 A 
ATOM     12  C   UNL     1      -3.985  10.943  15.843  0.00  0.00    +0.000 A 
ATOM     13  C   UNL     1      -2.903  10.103  15.648  0.00  0.00    +0.000 A 
ATOM     14  C   UNL     1      -2.024   9.874  16.698  0.00  0.00    +0.000 A 
ATOM     15  C   UNL     1      -2.238  10.475  17.949  0.00  0.00    +0.000 A 
ENDBRANCH   3  10
BRANCH   1  16
ATOM     16  C   UNL     1      -1.713  14.409  21.624  0.00  0.00    +0.000 C 
ATOM     17  O   UNL     1      -0.789  14.621  22.398  0.00  0.00    +0.000 OA
BRANCH  16  18
ATOM     18  O   UNL     1      -2.314  15.381  20.873  0.00  0.00    +0.000 OA
BRANCH  18  20
ATOM     19  C   UNL     1      -3.977  17.081  21.192  0.00  0.00    +0.000 C 
ATOM     20  C   UNL     1      -2.567  16.631  21.537  0.00  0.00    +0.000 C 
ENDBRANCH  18  20
ENDBRANCH  16  18
ENDBRANCH   1  16
BRANCH   1  21
ATOM     21  C   UNL     1      -1.543  11.914  21.986  0.00  0.00    +0.000 C 
BRANCH  21  22
ATOM     22  C   UNL     1      -0.537  11.257  21.056  0.00  0.00    +0.000 A 
ATOM     23  C   UNL     1       0.263  12.020  20.193  0.00  0.00    +0.000 A 
ATOM     24  C   UNL     1       1.172  11.405  19.326  0.00  0.00    +0.000 A 
ATOM     25  C   UNL     1       1.301  10.019  19.313  0.00  0.00    +0.000 A 
ATOM     26  C   UNL     1       0.529   9.248  20.173  0.00  0.00    +0.000 A 
ATOM     27  C   UNL     1      -0.372   9.864  21.045  0.00  0.00    +0.000 A 
ENDBRANCH  21  22
ENDBRANCH   1  21
BRANCH   8  28
ATOM     28  C   UNL     1      -3.510  13.675  24.520  0.00  0.00    +0.000 C 
BRANCH  28  29
ATOM     29  C   UNL     1      -3.348  15.144  24.829  0.00  0.00    +0.000 A 
ATOM     30  C   UNL     1      -4.425  16.034  24.678  0.00  0.00    +0.000 A 
ATOM     31  C   UNL     1      -4.281  17.387  24.987  0.00  0.00    +0.000 A 
ATOM     32  C   UNL     1      -3.067  17.867  25.468  0.00  0.00    +0.000 A 
ATOM     33  C   UNL     1      -1.995  16.993  25.641  0.00  0.00    +0.000 A 
ATOM     34  C   UNL     1      -2.133  15.640  25.324  0.00  0.00    +0.000 A 
ENDBRANCH  28  29
ENDBRANCH   8  28
TORSDOF 8
ENDMDL
MODEL 5
REMARK VINA RESULT:      -6.4      0.240      1.219
REMARK  Name = 
REMARK  9 active torsions:
REMARK  status: ('A' for Active; 'I' for Inactive)
REMARK    1  A    between atoms: C_1  and  C_2
REMARK    2  A    between atoms: C_2  and  O_3
REMARK    3  A    between atoms: O_3  and  C_4
REMARK    4  A    between atoms: C_4  and  C_6
REMARK    5  A    between atoms: C_6  and  C_7
REMARK    6  A    between atoms: C_7  and  C_8
REMARK    7  A    between atoms: N_15  and  C_16
REMARK    8  A    between atoms: N_26  and  C_27
REMARK    9  A    between atoms: C_27  and  C_28
REMARK                            x       y       z     vdW  Elec       q    Type
REMARK                         _______ _______ _______ _____ _____    ______ ____
ROOT
ATOM      1  C   UNL     1      -2.587  13.061  21.425  0.00  0.00    +0.000 C 
ATOM      2  C   UNL     1      -2.786  13.009  19.861  0.00  0.00    +0.000 C 
ATOM      3  N   UNL     1      -3.663  11.903  19.408  0.00  0.00    +0.000 N 
ATOM      4  C   UNL     1      -5.038  11.957  19.991  0.00  0.00    +0.000 C 
ATOM      5  C   UNL     1      -5.057  12.459  21.402  0.00  0.00    +0.000 A 
ATOM      6  N   UNL     1      -6.116  12.398  22.249  0.00  0.00    +0.000 NA
ATOM      7  N   UNL     1      -5.704  12.834  23.433  0.00  0.00    +0.000 NA
ATOM      8  N   UNL     1      -4.407  13.225  23.329  0.00  0.00    +0.000 N 
ATOM      9  C   UNL     1      -3.956  12.977  22.056  0.00  0.00    +0.000 A 
ENDROOT
BRANCH   3  10
ATOM     10  C   UNL     1      -3.428  11.314  18.165  0.00  0.00    +0.000 A 
ATOM     11  C   UNL     1      -4.242  11.600  17.051  0.00  0.00    +0.000 A 
ATOM     12  C   UNL     1      -4.012  11.047  15.785  0.00  0.00    +0.000 A 
ATOM     13  C   UNL     1      -2.942  10.190  15.590  0.00  0.00    +0.000 A 
ATOM     14  C   UNL     1      -2.099   9.906  16.655  0.00  0.00    +0.000 A 
ATOM     15  C   UNL     1      -2.337  10.466  17.921  0.00  0.00    +0.000 A 
ENDBRANCH   3  10
BRANCH   1  16
ATOM     16  C   UNL     1      -1.954  14.444  21.637  0.00  0.00    +0.000 C 
ATOM     17  O   UNL     1      -2.290  15.477  21.074  0.00  0.00    +0.000 OA
BRANCH  16  18
ATOM     18  O   UNL     1      -0.885  14.353  22.485  0.00  0.00    +0.000 OA
BRANCH  18  20
ATOM     19  C   UNL     1       0.426  16.272  23.077  0.00  0.00    +0.000 C 
ATOM     20  C   UNL     1       0.283  15.104  22.116  0.00  0.00    +0.000 C 
ENDBRANCH  18  20
ENDBRANCH  16  18
ENDBRANCH   1  16
BRANCH   1  21
ATOM     21  C   UNL     1      -1.620  11.958  21.945  0.00  0.00    +0.000 C 
BRANCH  21  22
ATOM     22  C   UNL     1      -0.627  11.344  20.974  0.00  0.00    +0.000 A 
ATOM     23  C   UNL     1       0.091  12.138  20.069  0.00  0.00    +0.000 A 
ATOM     24  C   UNL     1       0.989  11.562  19.164  0.00  0.00    +0.000 A 
ATOM     25  C   UNL     1       1.190  10.184  19.155  0.00  0.00    +0.000 A 
ATOM     26  C   UNL     1       0.499   9.384  20.057  0.00  0.00    +0.000 A 
ATOM     27  C   UNL     1      -0.391   9.961  20.965  0.00  0.00    +0.000 A 
ENDBRANCH  21  22
ENDBRANCH   1  21
BRANCH   8  28
ATOM     28  C   UNL     1      -3.660  13.539  24.540  0.00  0.00    +0.000 C 
BRANCH  28  29
ATOM     29  C   UNL     1      -3.438  15.012  24.784  0.00  0.00    +0.000 A 
ATOM     30  C   UNL     1      -4.387  15.961  24.369  0.00  0.00    +0.000 A 
ATOM     31  C   UNL     1      -4.192  17.320  24.617  0.00  0.00    +0.000 A 
ATOM     32  C   UNL     1      -3.057  17.749  25.298  0.00  0.00    +0.000 A 
ATOM     33  C   UNL     1      -2.116  16.818  25.732  0.00  0.00    +0.000 A 
ATOM     34  C   UNL     1      -2.304  15.458  25.478  0.00  0.00    +0.000 A 
ENDBRANCH  28  29
ENDBRANCH   8  28
TORSDOF 8
ENDMDL
MODEL 6
REMARK VINA RESULT:      -6.4      3.116      5.678
REMARK  Name = 
REMARK  9 active torsions:
REMARK  status: ('A' for Active; 'I' for Inactive)
REMARK    1  A    between atoms: C_1  and  C_2
REMARK    2  A    between atoms: C_2  and  O_3
REMARK    3  A    between atoms: O_3  and  C_4
REMARK    4  A    between atoms: C_4  and  C_6
REMARK    5  A    between atoms: C_6  and  C_7
REMARK    6  A    between atoms: C_7  and  C_8
REMARK    7  A    between atoms: N_15  and  C_16
REMARK    8  A    between atoms: N_26  and  C_27
REMARK    9  A    between atoms: C_27  and  C_28
REMARK                            x       y       z     vdW  Elec       q    Type
REMARK                         _______ _______ _______ _____ _____    ______ ____
ROOT
ATOM      1  C   UNL     1       0.200  10.656  19.658  0.00  0.00    +0.000 C 
ATOM      2  C   UNL     1       0.474   9.216  19.074  0.00  0.00    +0.000 C 
ATOM      3  N   UNL     1       1.552   8.482  19.778  0.00  0.00    +0.000 N 
ATOM      4  C   UNL     1       1.284   8.285  21.235  0.00  0.00    +0.000 C 
ATOM      5  C   UNL     1       0.571   9.444  21.862  0.00  0.00    +0.000 A 
ATOM      6  N   UNL     1       0.405   9.643  23.193  0.00  0.00    +0.000 NA
ATOM      7  N   UNL     1      -0.169  10.830  23.350  0.00  0.00    +0.000 NA
ATOM      8  N   UNL     1      -0.420  11.360  22.124  0.00  0.00    +0.000 N 
ATOM      9  C   UNL     1       0.061  10.516  21.154  0.00  0.00    +0.000 A 
ENDROOT
BRANCH   3  10
ATOM     10  C   UNL     1       2.344   7.584  19.062  0.00  0.00    +0.000 A 
ATOM     11  C   UNL     1       3.030   7.977  17.896  0.00  0.00    +0.000 A 
ATOM     12  C   UNL     1       3.856   7.106  17.174  0.00  0.00    +0.000 A 
ATOM     13  C   UNL     1       4.032   5.804  17.609  0.00  0.00    +0.000 A 
ATOM     14  C   UNL     1       3.397   5.385  18.770  0.00  0.00    +0.000 A 
ATOM     15  C   UNL     1       2.572   6.266  19.487  0.00  0.00    +0.000 A 
ENDBRANCH   3  10
BRANCH   1  16
ATOM     16  C   UNL     1      -1.135  11.036  19.002  0.00  0.00    +0.000 C 
ATOM     17  O   UNL     1      -2.074  11.584  19.562  0.00  0.00    +0.000 OA
BRANCH  16  18
ATOM     18  O   UNL     1      -1.175  10.590  17.710  0.00  0.00    +0.000 OA
BRANCH  18  20
ATOM     19  C   UNL     1      -2.726   9.969  15.989  0.00  0.00    +0.000 C 
ATOM     20  C   UNL     1      -2.252  11.089  16.900  0.00  0.00    +0.000 C 
ENDBRANCH  18  20
ENDBRANCH  16  18
ENDBRANCH   1  16
BRANCH   1  21
ATOM     21  C   UNL     1       1.294  11.687  19.253  0.00  0.00    +0.000 C 
BRANCH  21  22
ATOM     22  C   UNL     1       1.003  13.166  19.438  0.00  0.00    +0.000 A 
ATOM     23  C   UNL     1       0.100  13.840  18.602  0.00  0.00    +0.000 A 
ATOM     24  C   UNL     1      -0.147  15.207  18.767  0.00  0.00    +0.000 A 
ATOM     25  C   UNL     1       0.498  15.921  19.774  0.00  0.00    +0.000 A 
ATOM     26  C   UNL     1       1.382  15.265  20.622  0.00  0.00    +0.000 A 
ATOM     27  C   UNL     1       1.622  13.899  20.462  0.00  0.00    +0.000 A 
ENDBRANCH  21  22
ENDBRANCH   1  21
BRANCH   8  28
ATOM     28  C   UNL     1      -0.846  12.750  22.024  0.00  0.00    +0.000 C 
BRANCH  28  29
ATOM     29  C   UNL     1      -1.862  13.176  23.056  0.00  0.00    +0.000 A 
ATOM     30  C   UNL     1      -1.639  14.305  23.863  0.00  0.00    +0.000 A 
ATOM     31  C   UNL     1      -2.589  14.712  24.799  0.00  0.00    +0.000 A 
ATOM     32  C   UNL     1      -3.783  14.010  24.931  0.00  0.00    +0.000 A 
ATOM     33  C   UNL     1      -4.028  12.901  24.125  0.00  0.00    +0.000 A 
ATOM     34  C   UNL     1      -3.075  12.485  23.193  0.00  0.00    +0.000 A 
ENDBRANCH  28  29
ENDBRANCH   8  28
TORSDOF 8
ENDMDL
MODEL 7
REMARK VINA RESULT:      -6.4      2.859      5.378
REMARK  Name = 
REMARK  9 active torsions:
REMARK  status: ('A' for Active; 'I' for Inactive)
REMARK    1  A    between atoms: C_1  and  C_2
REMARK    2  A    between atoms: C_2  and  O_3
REMARK    3  A    between atoms: O_3  and  C_4
REMARK    4  A    between atoms: C_4  and  C_6
REMARK    5  A    between atoms: C_6  and  C_7
REMARK    6  A    between atoms: C_7  and  C_8
REMARK    7  A    between atoms: N_15  and  C_16
REMARK    8  A    between atoms: N_26  and  C_27
REMARK    9  A    between atoms: C_27  and  C_28
REMARK                            x       y       z     vdW  Elec       q    Type
REMARK                         _______ _______ _______ _____ _____    ______ ____
ROOT
ATOM      1  C   UNL     1      -0.074  11.070  19.654  0.00  0.00    +0.000 C 
ATOM      2  C   UNL     1       0.230   9.619  19.116  0.00  0.00    +0.000 C 
ATOM      3  N   UNL     1       1.269   8.901  19.893  0.00  0.00    +0.000 N 
ATOM      4  C   UNL     1       0.922   8.734  21.337  0.00  0.00    +0.000 C 
ATOM      5  C   UNL     1       0.177   9.905  21.900  0.00  0.00    +0.000 A 
ATOM      6  N   UNL     1      -0.061  10.132  23.216  0.00  0.00    +0.000 NA
ATOM      7  N   UNL     1      -0.642  11.322  23.316  0.00  0.00    +0.000 NA
ATOM      8  N   UNL     1      -0.827  11.825  22.068  0.00  0.00    +0.000 N 
ATOM      9  C   UNL     1      -0.294  10.962  21.144  0.00  0.00    +0.000 A 
ENDROOT
BRANCH   3  10
ATOM     10  C   UNL     1       2.098   7.989  19.240  0.00  0.00    +0.000 A 
ATOM     11  C   UNL     1       2.344   6.707  19.771  0.00  0.00    +0.000 A 
ATOM     12  C   UNL     1       3.147   5.761  19.123  0.00  0.00    +0.000 A 
ATOM     13  C   UNL     1       3.727   6.067  17.904  0.00  0.00    +0.000 A 
ATOM     14  C   UNL     1       3.486   7.308  17.331  0.00  0.00    +0.000 A 
ATOM     15  C   UNL     1       2.677   8.250  17.988  0.00  0.00    +0.000 A 
ENDBRANCH   3  10
BRANCH   1  16
ATOM     16  C   UNL     1      -1.373  11.435  18.920  0.00  0.00    +0.000 C 
ATOM     17  O   UNL     1      -2.418  11.785  19.450  0.00  0.00    +0.000 OA
BRANCH  16  18
ATOM     18  O   UNL     1      -1.234  11.225  17.576  0.00  0.00    +0.000 OA
BRANCH  18  20
ATOM     19  C   UNL     1      -2.668   9.812  16.272  0.00  0.00    +0.000 C 
ATOM     20  C   UNL     1      -2.448  11.218  16.806  0.00  0.00    +0.000 C 
ENDBRANCH  18  20
ENDBRANCH  16  18
ENDBRANCH   1  16
BRANCH   1  21
ATOM     21  C   UNL     1       1.039  12.094  19.288  0.00  0.00    +0.000 C 
BRANCH  21  22
ATOM     22  C   UNL     1       0.785  13.569  19.546  0.00  0.00    +0.000 A 
ATOM     23  C   UNL     1       1.457  14.255  20.569  0.00  0.00    +0.000 A 
ATOM     24  C   UNL     1       1.202  15.608  20.813  0.00  0.00    +0.000 A 
ATOM     25  C   UNL     1       0.279  16.300  20.034  0.00  0.00    +0.000 A 
ATOM     26  C   UNL     1      -0.383  15.641  19.005  0.00  0.00    +0.000 A 
ATOM     27  C   UNL     1      -0.122  14.292  18.757  0.00  0.00    +0.000 A 
ENDBRANCH  21  22
ENDBRANCH   1  21
BRANCH   8  28
ATOM     28  C   UNL     1      -1.247  13.213  21.916  0.00  0.00    +0.000 C 
BRANCH  28  29
ATOM     29  C   UNL     1      -1.749  13.864  23.182  0.00  0.00    +0.000 A 
ATOM     30  C   UNL     1      -0.964  14.808  23.867  0.00  0.00    +0.000 A 
ATOM     31  C   UNL     1      -1.439  15.427  25.023  0.00  0.00    +0.000 A 
ATOM     32  C   UNL     1      -2.711  15.128  25.501  0.00  0.00    +0.000 A 
ATOM     33  C   UNL     1      -3.509  14.209  24.823  0.00  0.00    +0.000 A 
ATOM     34  C   UNL     1      -3.033  13.581  23.671  0.00  0.00    +0.000 A 
ENDBRANCH  28  29
ENDBRANCH   8  28
TORSDOF 8
ENDMDL
MODEL 8
REMARK VINA RESULT:      -6.4      3.054      5.679
REMARK  Name = 
REMARK  9 active torsions:
REMARK  status: ('A' for Active; 'I' for Inactive)
REMARK    1  A    between atoms: C_1  and  C_2
REMARK    2  A    between atoms: C_2  and  O_3
REMARK    3  A    between atoms: O_3  and  C_4
REMARK    4  A    between atoms: C_4  and  C_6
REMARK    5  A    between atoms: C_6  and  C_7
REMARK    6  A    between atoms: C_7  and  C_8
REMARK    7  A    between atoms: N_15  and  C_16
REMARK    8  A    between atoms: N_26  and  C_27
REMARK    9  A    between atoms: C_27  and  C_28
REMARK                            x       y       z     vdW  Elec       q    Type
REMARK                         _______ _______ _______ _____ _____    ______ ____
ROOT
ATOM      1  C   UNL     1       0.180  10.763  19.702  0.00  0.00    +0.000 C 
ATOM      2  C   UNL     1       0.445   9.324  19.112  0.00  0.00    +0.000 C 
ATOM      3  N   UNL     1       1.490   8.565  19.840  0.00  0.00    +0.000 N 
ATOM      4  C   UNL     1       1.176   8.359  21.286  0.00  0.00    +0.000 C 
ATOM      5  C   UNL     1       0.466   9.524  21.904  0.00  0.00    +0.000 A 
ATOM      6  N   UNL     1       0.264   9.713  23.232  0.00  0.00    +0.000 NA
ATOM      7  N   UNL     1      -0.294  10.909  23.383  0.00  0.00    +0.000 NA
ATOM      8  N   UNL     1      -0.500  11.454  22.156  0.00  0.00    +0.000 N 
ATOM      9  C   UNL     1      -0.005  10.611  21.193  0.00  0.00    +0.000 A 
ENDROOT
BRANCH   3  10
ATOM     10  C   UNL     1       2.287   7.660  19.138  0.00  0.00    +0.000 A 
ATOM     11  C   UNL     1       2.922   8.021  17.933  0.00  0.00    +0.000 A 
ATOM     12  C   UNL     1       3.752   7.144  17.223  0.00  0.00    +0.000 A 
ATOM     13  C   UNL     1       3.984   5.869  17.710  0.00  0.00    +0.000 A 
ATOM     14  C   UNL     1       3.401   5.484  18.909  0.00  0.00    +0.000 A 
ATOM     15  C   UNL     1       2.572   6.371  19.614  0.00  0.00    +0.000 A 
ENDBRANCH   3  10
BRANCH   1  16
ATOM     16  C   UNL     1      -1.129  11.173  19.012  0.00  0.00    +0.000 C 
ATOM     17  O   UNL     1      -2.112  11.645  19.568  0.00  0.00    +0.000 OA
BRANCH  16  18
ATOM     18  O   UNL     1      -1.089  10.849  17.684  0.00  0.00    +0.000 OA
BRANCH  18  20
ATOM     19  C   UNL     1      -2.916   9.849  16.494  0.00  0.00    +0.000 C 
ATOM     20  C   UNL     1      -2.267  11.155  16.920  0.00  0.00    +0.000 C 
ENDBRANCH  18  20
ENDBRANCH  16  18
ENDBRANCH   1  16
BRANCH   1  21
ATOM     21  C   UNL     1       1.302  11.779  19.340  0.00  0.00    +0.000 C 
BRANCH  21  22
ATOM     22  C   UNL     1       1.022  13.262  19.506  0.00  0.00    +0.000 A 
ATOM     23  C   UNL     1       1.652  14.013  20.510  0.00  0.00    +0.000 A 
ATOM     24  C   UNL     1       1.374  15.374  20.669  0.00  0.00    +0.000 A 
ATOM     25  C   UNL     1       0.467  16.009  19.824  0.00  0.00    +0.000 A 
ATOM     26  C   UNL     1      -0.153  15.285  18.813  0.00  0.00    +0.000 A 
ATOM     27  C   UNL     1       0.132  13.927  18.650  0.00  0.00    +0.000 A 
ENDBRANCH  21  22
ENDBRANCH   1  21
BRANCH   8  28
ATOM     28  C   UNL     1      -0.899  12.853  22.058  0.00  0.00    +0.000 C 
BRANCH  28  29
ATOM     29  C   UNL     1      -2.102  13.227  22.889  0.00  0.00    +0.000 A 
ATOM     30  C   UNL     1      -3.335  12.578  22.706  0.00  0.00    +0.000 A 
ATOM     31  C   UNL     1      -4.440  12.908  23.491  0.00  0.00    +0.000 A 
ATOM     32  C   UNL     1      -4.325  13.877  24.483  0.00  0.00    +0.000 A 
ATOM     33  C   UNL     1      -3.105  14.516  24.691  0.00  0.00    +0.000 A 
ATOM     34  C   UNL     1      -1.999  14.194  23.900  0.00  0.00    +0.000 A 
ENDBRANCH  28  29
ENDBRANCH   8  28
TORSDOF 8
ENDMDL
MODEL 9
REMARK VINA RESULT:      -6.4      2.975      5.522
REMARK  Name = 
REMARK  9 active torsions:
REMARK  status: ('A' for Active; 'I' for Inactive)
REMARK    1  A    between atoms: C_1  and  C_2
REMARK    2  A    between atoms: C_2  and  O_3
REMARK    3  A    between atoms: O_3  and  C_4
REMARK    4  A    between atoms: C_4  and  C_6
REMARK    5  A    between atoms: C_6  and  C_7
REMARK    6  A    between atoms: C_7  and  C_8
REMARK    7  A    between atoms: N_15  and  C_16
REMARK    8  A    between atoms: N_26  and  C_27
REMARK    9  A    between atoms: C_27  and  C_28
REMARK                            x       y       z     vdW  Elec       q    Type
REMARK                         _______ _______ _______ _____ _____    ______ ____
ROOT
ATOM      1  C   UNL     1       0.044  10.891  19.637  0.00  0.00    +0.000 C 
ATOM      2  C   UNL     1       0.337   9.432  19.115  0.00  0.00    +0.000 C 
ATOM      3  N   UNL     1       1.389   8.724  19.882  0.00  0.00    +0.000 N 
ATOM      4  C   UNL     1       1.069   8.578  21.335  0.00  0.00    +0.000 C 
ATOM      5  C   UNL     1       0.336   9.758  21.895  0.00  0.00    +0.000 A 
ATOM      6  N   UNL     1       0.122  10.004  23.212  0.00  0.00    +0.000 NA
ATOM      7  N   UNL     1      -0.456  11.196  23.306  0.00  0.00    +0.000 NA
ATOM      8  N   UNL     1      -0.662  11.682  22.054  0.00  0.00    +0.000 N 
ATOM      9  C   UNL     1      -0.148  10.804  21.133  0.00  0.00    +0.000 A 
ENDROOT
BRANCH   3  10
ATOM     10  C   UNL     1       2.205   7.801  19.227  0.00  0.00    +0.000 A 
ATOM     11  C   UNL     1       2.415   6.508  19.744  0.00  0.00    +0.000 A 
ATOM     12  C   UNL     1       3.205   5.552  19.093  0.00  0.00    +0.000 A 
ATOM     13  C   UNL     1       3.805   5.860  17.885  0.00  0.00    +0.000 A 
ATOM     14  C   UNL     1       3.600   7.114  17.326  0.00  0.00    +0.000 A 
ATOM     15  C   UNL     1       2.805   8.066  17.986  0.00  0.00    +0.000 A 
ENDBRANCH   3  10
BRANCH   1  16
ATOM     16  C   UNL     1      -1.267  11.248  18.922  0.00  0.00    +0.000 C 
ATOM     17  O   UNL     1      -2.277  11.681  19.458  0.00  0.00    +0.000 OA
BRANCH  16  18
ATOM     18  O   UNL     1      -1.188  10.924  17.596  0.00  0.00    +0.000 OA
BRANCH  18  20
ATOM     19  C   UNL     1      -3.009   9.871  16.443  0.00  0.00    +0.000 C 
ATOM     20  C   UNL     1      -2.359  11.195  16.807  0.00  0.00    +0.000 C 
ENDBRANCH  18  20
ENDBRANCH  16  18
ENDBRANCH   1  16
BRANCH   1  21
ATOM     21  C   UNL     1       1.152  11.908  19.236  0.00  0.00    +0.000 C 
BRANCH  21  22
ATOM     22  C   UNL     1       0.885  13.391  19.431  0.00  0.00    +0.000 A 
ATOM     23  C   UNL     1      -0.051  14.071  18.637  0.00  0.00    +0.000 A 
ATOM     24  C   UNL     1      -0.277  15.441  18.810  0.00  0.00    +0.000 A 
ATOM     25  C   UNL     1       0.423  16.151  19.783  0.00  0.00    +0.000 A 
ATOM     26  C   UNL     1       1.340  15.489  20.589  0.00  0.00    +0.000 A 
ATOM     27  C   UNL     1       1.559  14.120  20.422  0.00  0.00    +0.000 A 
ENDBRANCH  21  22
ENDBRANCH   1  21
BRANCH   8  28
ATOM     28  C   UNL     1      -1.083  13.067  21.890  0.00  0.00    +0.000 C 
BRANCH  28  29
ATOM     29  C   UNL     1      -1.804  13.655  23.080  0.00  0.00    +0.000 A 
ATOM     30  C   UNL     1      -3.078  13.192  23.452  0.00  0.00    +0.000 A 
ATOM     31  C   UNL     1      -3.732  13.718  24.565  0.00  0.00    +0.000 A 
ATOM     32  C   UNL     1      -3.116  14.701  25.335  0.00  0.00    +0.000 A 
ATOM     33  C   UNL     1      -1.846  15.157  24.992  0.00  0.00    +0.000 A 
ATOM     34  C   UNL     1      -1.192  14.638  23.872  0.00  0.00    +0.000 A 
ENDBRANCH  28  29
ENDBRANCH   8  28
TORSDOF 8
ENDMDL
