MODEL 1
REMARK VINA RESULT:     -10.6      0.000      0.000
REMARK  Name = 
REMARK  5 active torsions:
REMARK  status: ('A' for Active; 'I' for Inactive)
REMARK    1  A    between atoms: C_1  and  C_2
REMARK    2  A    between atoms: C_6  and  C_7
REMARK    3  A    between atoms: C_7  and  O_8
REMARK    4  A    between atoms: O_8  and  C_9
REMARK    5  A    between atoms: C_12  and  C_13
REMARK                            x       y       z     vdW  Elec       q    Type
REMARK                         _______ _______ _______ _____ _____    ______ ____
ROOT
ATOM      1  C   UNL     1       3.011   6.189  18.996  0.00  0.00    +0.000 A 
ATOM      2  N   UNL     1       3.930   6.430  18.103  0.00  0.00    +0.000 NA
ATOM      3  N   UNL     1       4.722   5.291  17.860  0.00  0.00    +0.000 N 
ATOM      4  C   UNL     1       6.009   5.189  17.343  0.00  0.00    +0.000 A 
ATOM      5  N   UNL     1       6.736   4.643  18.314  0.00  0.00    +0.000 NA
ATOM      6  N   UNL     1       5.886   3.836  19.022  0.00  0.00    +0.000 NA
ATOM      7  C   UNL     1       4.664   4.155  18.655  0.00  0.00    +0.000 A 
ATOM      8  C   UNL     1       3.426   3.828  19.220  0.00  0.00    +0.000 A 
ATOM      9  C   UNL     1       2.650   4.871  19.571  0.00  0.00    +0.000 A 
ATOM     10  C   UNL     1       1.566   4.529  20.565  0.00  0.00    +0.000 C 
ATOM     11  C   UNL     1       0.616   3.548  19.856  0.00  0.00    +0.000 C 
ATOM     12  C   UNL     1       1.433   2.364  19.280  0.00  0.00    +0.000 C 
ATOM     13  C   UNL     1       2.927   2.480  19.693  0.00  0.00    +0.000 C 
ATOM     14  C   UNL     1       3.004   2.508  21.222  0.00  0.00    +0.000 C 
ATOM     15  C   UNL     1       2.238   3.750  21.744  0.00  0.00    +0.000 C 
ENDROOT
BRANCH   4  16
ATOM     16  C   UNL     1       6.424   4.885  15.995  0.00  0.00    +0.000 A 
ATOM     17  C   UNL     1       5.745   3.999  15.159  0.00  0.00    +0.000 A 
ATOM     18  C   UNL     1       6.326   4.070  13.884  0.00  0.00    +0.000 A 
ATOM     19  C   UNL     1       7.324   5.004  13.985  0.00  0.00    +0.000 A 
ATOM     20  O   UNL     1       7.397   5.507  15.254  0.00  0.00    +0.000 OA
ENDBRANCH   4  16
BRANCH   1  21
ATOM     21  O   UNL     1       2.195   7.132  19.530  0.00  0.00    +0.000 OA
BRANCH  21  22
ATOM     22  C   UNL     1       2.043   8.361  18.796  0.00  0.00    +0.000 C 
BRANCH  22  28
ATOM     23  C   UNL     1      -0.173   9.612  22.992  0.00  0.00    +0.000 C 
ATOM     24  C   UNL     1       0.034   9.891  21.531  0.00  0.00    +0.000 A 
ATOM     25  C   UNL     1      -0.614  10.957  20.917  0.00  0.00    +0.000 A 
ATOM     26  C   UNL     1      -0.403  11.170  19.559  0.00  0.00    +0.000 A 
ATOM     27  C   UNL     1       0.453  10.326  18.855  0.00  0.00    +0.000 A 
ATOM     28  C   UNL     1       1.079   9.279  19.530  0.00  0.00    +0.000 A 
ATOM     29  N   UNL     1       0.871   9.058  20.857  0.00  0.00    +0.000 NA
ENDBRANCH  22  28
ENDBRANCH  21  22
ENDBRANCH   1  21
TORSDOF 4
ENDMDL
MODEL 2
REMARK VINA RESULT:     -10.4      0.632      1.338
REMARK  Name = 
REMARK  5 active torsions:
REMARK  status: ('A' for Active; 'I' for Inactive)
REMARK    1  A    between atoms: C_1  and  C_2
REMARK    2  A    between atoms: C_6  and  C_7
REMARK    3  A    between atoms: C_7  and  O_8
REMARK    4  A    between atoms: O_8  and  C_9
REMARK    5  A    between atoms: C_12  and  C_13
REMARK                            x       y       z     vdW  Elec       q    Type
REMARK                         _______ _______ _______ _____ _____    ______ ____
ROOT
ATOM      1  C   UNL     1       3.029   6.223  18.901  0.00  0.00    +0.000 A 
ATOM      2  N   UNL     1       3.957   6.444  18.012  0.00  0.00    +0.000 NA
ATOM      3  N   UNL     1       4.746   5.298  17.796  0.00  0.00    +0.000 N 
ATOM      4  C   UNL     1       6.038   5.182  17.292  0.00  0.00    +0.000 A 
ATOM      5  N   UNL     1       6.755   4.652  18.280  0.00  0.00    +0.000 NA
ATOM      6  N   UNL     1       5.895   3.861  18.995  0.00  0.00    +0.000 NA
ATOM      7  C   UNL     1       4.678   4.177  18.612  0.00  0.00    +0.000 A 
ATOM      8  C   UNL     1       3.434   3.864  19.172  0.00  0.00    +0.000 A 
ATOM      9  C   UNL     1       2.659   4.917  19.497  0.00  0.00    +0.000 A 
ATOM     10  C   UNL     1       1.566   4.597  20.488  0.00  0.00    +0.000 C 
ATOM     11  C   UNL     1       0.618   3.606  19.789  0.00  0.00    +0.000 C 
ATOM     12  C   UNL     1       1.436   2.409  19.242  0.00  0.00    +0.000 C 
ATOM     13  C   UNL     1       2.926   2.528  19.665  0.00  0.00    +0.000 C 
ATOM     14  C   UNL     1       2.990   2.583  21.194  0.00  0.00    +0.000 C 
ATOM     15  C   UNL     1       2.224   3.837  21.687  0.00  0.00    +0.000 C 
ENDROOT
BRANCH   4  16
ATOM     16  C   UNL     1       6.463   4.852  15.954  0.00  0.00    +0.000 A 
ATOM     17  C   UNL     1       5.803   3.935  15.138  0.00  0.00    +0.000 A 
ATOM     18  C   UNL     1       6.388   3.984  13.864  0.00  0.00    +0.000 A 
ATOM     19  C   UNL     1       7.369   4.937  13.944  0.00  0.00    +0.000 A 
ATOM     20  O   UNL     1       7.429   5.472  15.201  0.00  0.00    +0.000 OA
ENDBRANCH   4  16
BRANCH   1  21
ATOM     21  O   UNL     1       2.212   7.178  19.411  0.00  0.00    +0.000 OA
BRANCH  21  22
ATOM     22  C   UNL     1       2.036   8.376  18.632  0.00  0.00    +0.000 C 
BRANCH  22  28
ATOM     23  C   UNL     1      -1.093  12.148  18.393  0.00  0.00    +0.000 C 
ATOM     24  C   UNL     1      -0.422  11.104  19.239  0.00  0.00    +0.000 A 
ATOM     25  C   UNL     1      -0.698  11.013  20.598  0.00  0.00    +0.000 A 
ATOM     26  C   UNL     1      -0.044  10.039  21.346  0.00  0.00    +0.000 A 
ATOM     27  C   UNL     1       0.856   9.180  20.719  0.00  0.00    +0.000 A 
ATOM     28  C   UNL     1       1.084   9.318  19.350  0.00  0.00    +0.000 A 
ATOM     29  N   UNL     1       0.454  10.274  18.613  0.00  0.00    +0.000 NA
ENDBRANCH  22  28
ENDBRANCH  21  22
ENDBRANCH   1  21
TORSDOF 4
ENDMDL
MODEL 3
REMARK VINA RESULT:      -9.3      1.357      1.651
REMARK  Name = 
REMARK  5 active torsions:
REMARK  status: ('A' for Active; 'I' for Inactive)
REMARK    1  A    between atoms: C_1  and  C_2
REMARK    2  A    between atoms: C_6  and  C_7
REMARK    3  A    between atoms: C_7  and  O_8
REMARK    4  A    between atoms: O_8  and  C_9
REMARK    5  A    between atoms: C_12  and  C_13
REMARK                            x       y       z     vdW  Elec       q    Type
REMARK                         _______ _______ _______ _____ _____    ______ ____
ROOT
ATOM      1  C   UNL     1       4.105   6.715  17.533  0.00  0.00    +0.000 A 
ATOM      2  N   UNL     1       4.962   6.796  16.553  0.00  0.00    +0.000 NA
ATOM      3  N   UNL     1       5.525   5.540  16.257  0.00  0.00    +0.000 N 
ATOM      4  C   UNL     1       6.721   5.222  15.622  0.00  0.00    +0.000 A 
ATOM      5  N   UNL     1       7.438   4.565  16.530  0.00  0.00    +0.000 NA
ATOM      6  N   UNL     1       6.537   3.913  17.331  0.00  0.00    +0.000 NA
ATOM      7  C   UNL     1       5.356   4.432  17.076  0.00  0.00    +0.000 A 
ATOM      8  C   UNL     1       4.141   4.318  17.762  0.00  0.00    +0.000 A 
ATOM      9  C   UNL     1       3.588   5.478  18.165  0.00  0.00    +0.000 A 
ATOM     10  C   UNL     1       2.563   5.324  19.264  0.00  0.00    +0.000 C 
ATOM     11  C   UNL     1       1.399   4.514  18.666  0.00  0.00    +0.000 C 
ATOM     12  C   UNL     1       1.948   3.209  18.038  0.00  0.00    +0.000 C 
ATOM     13  C   UNL     1       3.473   3.074  18.304  0.00  0.00    +0.000 C 
ATOM     14  C   UNL     1       3.701   3.092  19.818  0.00  0.00    +0.000 C 
ATOM     15  C   UNL     1       3.206   4.446  20.387  0.00  0.00    +0.000 C 
ENDROOT
BRANCH   4  16
ATOM     16  C   UNL     1       6.948   4.850  14.247  0.00  0.00    +0.000 A 
ATOM     17  C   UNL     1       6.224   3.858  13.587  0.00  0.00    +0.000 A 
ATOM     18  C   UNL     1       6.594   3.876  12.234  0.00  0.00    +0.000 A 
ATOM     19  C   UNL     1       7.514   4.884  12.116  0.00  0.00    +0.000 A 
ATOM     20  O   UNL     1       7.740   5.483  13.324  0.00  0.00    +0.000 OA
ENDBRANCH   4  16
BRANCH   1  21
ATOM     21  O   UNL     1       3.513   7.782  18.125  0.00  0.00    +0.000 OA
BRANCH  21  22
ATOM     22  C   UNL     1       2.247   8.211  17.591  0.00  0.00    +0.000 C 
BRANCH  22  28
ATOM     23  C   UNL     1       0.344   9.026  22.039  0.00  0.00    +0.000 C 
ATOM     24  C   UNL     1       0.691   9.574  20.685  0.00  0.00    +0.000 A 
ATOM     25  C   UNL     1       0.428  10.903  20.373  0.00  0.00    +0.000 A 
ATOM     26  C   UNL     1       0.754  11.364  19.102  0.00  0.00    +0.000 A 
ATOM     27  C   UNL     1       1.339  10.495  18.184  0.00  0.00    +0.000 A 
ATOM     28  C   UNL     1       1.582   9.174  18.560  0.00  0.00    +0.000 A 
ATOM     29  N   UNL     1       1.259   8.713  19.799  0.00  0.00    +0.000 NA
ENDBRANCH  22  28
ENDBRANCH  21  22
ENDBRANCH   1  21
TORSDOF 4
ENDMDL
MODEL 4
REMARK VINA RESULT:      -9.2      1.665      2.293
REMARK  Name = 
REMARK  5 active torsions:
REMARK  status: ('A' for Active; 'I' for Inactive)
REMARK    1  A    between atoms: C_1  and  C_2
REMARK    2  A    between atoms: C_6  and  C_7
REMARK    3  A    between atoms: C_7  and  O_8
REMARK    4  A    between atoms: O_8  and  C_9
REMARK    5  A    between atoms: C_12  and  C_13
REMARK                            x       y       z     vdW  Elec       q    Type
REMARK                         _______ _______ _______ _____ _____    ______ ____
ROOT
ATOM      1  C   UNL     1       4.111   6.750  17.484  0.00  0.00    +0.000 A 
ATOM      2  N   UNL     1       4.966   6.818  16.501  0.00  0.00    +0.000 NA
ATOM      3  N   UNL     1       5.523   5.557  16.216  0.00  0.00    +0.000 N 
ATOM      4  C   UNL     1       6.717   5.228  15.582  0.00  0.00    +0.000 A 
ATOM      5  N   UNL     1       7.431   4.575  16.495  0.00  0.00    +0.000 NA
ATOM      6  N   UNL     1       6.529   3.935  17.303  0.00  0.00    +0.000 NA
ATOM      7  C   UNL     1       5.349   4.457  17.045  0.00  0.00    +0.000 A 
ATOM      8  C   UNL     1       4.135   4.355  17.733  0.00  0.00    +0.000 A 
ATOM      9  C   UNL     1       3.588   5.521  18.127  0.00  0.00    +0.000 A 
ATOM     10  C   UNL     1       2.565   5.382  19.229  0.00  0.00    +0.000 C 
ATOM     11  C   UNL     1       1.396   4.573  18.640  0.00  0.00    +0.000 C 
ATOM     12  C   UNL     1       1.938   3.259  18.023  0.00  0.00    +0.000 C 
ATOM     13  C   UNL     1       3.462   3.120  18.288  0.00  0.00    +0.000 C 
ATOM     14  C   UNL     1       3.693   3.150  19.802  0.00  0.00    +0.000 C 
ATOM     15  C   UNL     1       3.206   4.511  20.360  0.00  0.00    +0.000 C 
ENDROOT
BRANCH   4  16
ATOM     16  C   UNL     1       6.939   4.842  14.210  0.00  0.00    +0.000 A 
ATOM     17  C   UNL     1       6.218   3.839  13.564  0.00  0.00    +0.000 A 
ATOM     18  C   UNL     1       6.582   3.844  12.209  0.00  0.00    +0.000 A 
ATOM     19  C   UNL     1       7.496   4.855  12.076  0.00  0.00    +0.000 A 
ATOM     20  O   UNL     1       7.724   5.469  13.277  0.00  0.00    +0.000 OA
ENDBRANCH   4  16
BRANCH   1  21
ATOM     21  O   UNL     1       3.525   7.825  18.067  0.00  0.00    +0.000 OA
BRANCH  21  22
ATOM     22  C   UNL     1       2.295   8.298  17.487  0.00  0.00    +0.000 C 
BRANCH  22  28
ATOM     23  C   UNL     1       2.232  13.160  18.143  0.00  0.00    +0.000 C 
ATOM     24  C   UNL     1       1.735  11.812  18.580  0.00  0.00    +0.000 A 
ATOM     25  C   UNL     1       0.836  11.698  19.634  0.00  0.00    +0.000 A 
ATOM     26  C   UNL     1       0.413  10.428  20.013  0.00  0.00    +0.000 A 
ATOM     27  C   UNL     1       0.888   9.312  19.327  0.00  0.00    +0.000 A 
ATOM     28  C   UNL     1       1.784   9.493  18.274  0.00  0.00    +0.000 A 
ATOM     29  N   UNL     1       2.209  10.732  17.902  0.00  0.00    +0.000 NA
ENDBRANCH  22  28
ENDBRANCH  21  22
ENDBRANCH   1  21
TORSDOF 4
ENDMDL
MODEL 5
REMARK VINA RESULT:      -8.4      1.696      6.966
REMARK  Name = 
REMARK  5 active torsions:
REMARK  status: ('A' for Active; 'I' for Inactive)
REMARK    1  A    between atoms: C_1  and  C_2
REMARK    2  A    between atoms: C_6  and  C_7
REMARK    3  A    between atoms: C_7  and  O_8
REMARK    4  A    between atoms: O_8  and  C_9
REMARK    5  A    between atoms: C_12  and  C_13
REMARK                            x       y       z     vdW  Elec       q    Type
REMARK                         _______ _______ _______ _____ _____    ______ ____
ROOT
ATOM      1  C   UNL     1       5.032   4.956  18.816  0.00  0.00    +0.000 A 
ATOM      2  N   UNL     1       4.699   6.207  18.655  0.00  0.00    +0.000 NA
ATOM      3  N   UNL     1       3.304   6.381  18.735  0.00  0.00    +0.000 N 
ATOM      4  C   UNL     1       2.499   7.399  18.232  0.00  0.00    +0.000 A 
ATOM      5  N   UNL     1       1.686   6.806  17.362  0.00  0.00    +0.000 NA
ATOM      6  N   UNL     1       1.499   5.529  17.820  0.00  0.00    +0.000 NA
ATOM      7  C   UNL     1       2.415   5.316  18.740  0.00  0.00    +0.000 A 
ATOM      8  C   UNL     1       2.835   4.130  19.353  0.00  0.00    +0.000 A 
ATOM      9  C   UNL     1       4.146   3.844  19.234  0.00  0.00    +0.000 A 
ATOM     10  C   UNL     1       4.487   2.394  19.483  0.00  0.00    +0.000 C 
ATOM     11  C   UNL     1       4.150   2.114  20.959  0.00  0.00    +0.000 C 
ATOM     12  C   UNL     1       2.691   2.545  21.246  0.00  0.00    +0.000 C 
ATOM     13  C   UNL     1       1.994   3.018  19.940  0.00  0.00    +0.000 C 
ATOM     14  C   UNL     1       2.038   1.870  18.928  0.00  0.00    +0.000 C 
ATOM     15  C   UNL     1       3.516   1.526  18.616  0.00  0.00    +0.000 C 
ENDROOT
BRANCH   4  16
ATOM     16  C   UNL     1       1.964   8.553  18.913  0.00  0.00    +0.000 A 
ATOM     17  C   UNL     1       1.662   9.754  18.273  0.00  0.00    +0.000 A 
ATOM     18  C   UNL     1       1.017  10.590  19.197  0.00  0.00    +0.000 A 
ATOM     19  C   UNL     1       0.935   9.865  20.356  0.00  0.00    +0.000 A 
ATOM     20  O   UNL     1       1.503   8.630  20.202  0.00  0.00    +0.000 OA
ENDBRANCH   4  16
BRANCH   1  21
ATOM     21  O   UNL     1       6.287   4.469  18.651  0.00  0.00    +0.000 OA
BRANCH  21  22
ATOM     22  C   UNL     1       7.154   5.181  17.749  0.00  0.00    +0.000 C 
BRANCH  22  28
ATOM     23  C   UNL     1       8.182   5.594  12.969  0.00  0.00    +0.000 C 
ATOM     24  C   UNL     1       7.335   4.964  14.037  0.00  0.00    +0.000 A 
ATOM     25  C   UNL     1       6.341   4.052  13.704  0.00  0.00    +0.000 A 
ATOM     26  C   UNL     1       5.572   3.504  14.725  0.00  0.00    +0.000 A 
ATOM     27  C   UNL     1       5.821   3.870  16.046  0.00  0.00    +0.000 A 
ATOM     28  C   UNL     1       6.838   4.785  16.316  0.00  0.00    +0.000 A 
ATOM     29  N   UNL     1       7.590   5.333  15.321  0.00  0.00    +0.000 NA
ENDBRANCH  22  28
ENDBRANCH  21  22
ENDBRANCH   1  21
TORSDOF 4
ENDMDL
MODEL 6
REMARK VINA RESULT:      -8.1      1.364      1.996
REMARK  Name = 
REMARK  5 active torsions:
REMARK  status: ('A' for Active; 'I' for Inactive)
REMARK    1  A    between atoms: C_1  and  C_2
REMARK    2  A    between atoms: C_6  and  C_7
REMARK    3  A    between atoms: C_7  and  O_8
REMARK    4  A    between atoms: O_8  and  C_9
REMARK    5  A    between atoms: C_12  and  C_13
REMARK                            x       y       z     vdW  Elec       q    Type
REMARK                         _______ _______ _______ _____ _____    ______ ____
ROOT
ATOM      1  C   UNL     1       3.296   5.999  17.613  0.00  0.00    +0.000 A 
ATOM      2  N   UNL     1       4.112   6.260  16.630  0.00  0.00    +0.000 NA
ATOM      3  N   UNL     1       4.950   5.164  16.353  0.00  0.00    +0.000 N 
ATOM      4  C   UNL     1       6.189   5.120  15.721  0.00  0.00    +0.000 A 
ATOM      5  N   UNL     1       7.036   4.659  16.637  0.00  0.00    +0.000 NA
ATOM      6  N   UNL     1       6.308   3.830  17.449  0.00  0.00    +0.000 NA
ATOM      7  C   UNL     1       5.039   4.058  17.187  0.00  0.00    +0.000 A 
ATOM      8  C   UNL     1       3.882   3.678  17.877  0.00  0.00    +0.000 A 
ATOM      9  C   UNL     1       3.075   4.685  18.264  0.00  0.00    +0.000 A 
ATOM     10  C   UNL     1       2.112   4.316  19.366  0.00  0.00    +0.000 C 
ATOM     11  C   UNL     1       1.167   3.250  18.782  0.00  0.00    +0.000 C 
ATOM     12  C   UNL     1       2.003   2.098  18.172  0.00  0.00    +0.000 C 
ATOM     13  C   UNL     1       3.517   2.322  18.438  0.00  0.00    +0.000 C 
ATOM     14  C   UNL     1       3.732   2.414  19.952  0.00  0.00    +0.000 C 
ATOM     15  C   UNL     1       2.937   3.626  20.502  0.00  0.00    +0.000 C 
ENDROOT
BRANCH   4  16
ATOM     16  C   UNL     1       6.498   4.790  14.351  0.00  0.00    +0.000 A 
ATOM     17  C   UNL     1       7.537   5.378  13.631  0.00  0.00    +0.000 A 
ATOM     18  C   UNL     1       7.649   4.709  12.402  0.00  0.00    +0.000 A 
ATOM     19  C   UNL     1       6.689   3.733  12.425  0.00  0.00    +0.000 A 
ATOM     20  O   UNL     1       5.984   3.767  13.596  0.00  0.00    +0.000 OA
ENDBRANCH   4  16
BRANCH   1  21
ATOM     21  O   UNL     1       2.472   6.909  18.190  0.00  0.00    +0.000 OA
BRANCH  21  22
ATOM     22  C   UNL     1       2.716   7.233  19.571  0.00  0.00    +0.000 C 
BRANCH  22  28
ATOM     23  C   UNL     1      -0.295  10.972  18.558  0.00  0.00    +0.000 C 
ATOM     24  C   UNL     1       0.222   9.995  19.575  0.00  0.00    +0.000 A 
ATOM     25  C   UNL     1      -0.267  10.007  20.876  0.00  0.00    +0.000 A 
ATOM     26  C   UNL     1       0.251   9.093  21.788  0.00  0.00    +0.000 A 
ATOM     27  C   UNL     1       1.229   8.190  21.378  0.00  0.00    +0.000 A 
ATOM     28  C   UNL     1       1.673   8.225  20.057  0.00  0.00    +0.000 A 
ATOM     29  N   UNL     1       1.177   9.122  19.159  0.00  0.00    +0.000 NA
ENDBRANCH  22  28
ENDBRANCH  21  22
ENDBRANCH   1  21
TORSDOF 4
ENDMDL
MODEL 7
REMARK VINA RESULT:      -7.8      8.427     10.624
REMARK  Name = 
REMARK  5 active torsions:
REMARK  status: ('A' for Active; 'I' for Inactive)
REMARK    1  A    between atoms: C_1  and  C_2
REMARK    2  A    between atoms: C_6  and  C_7
REMARK    3  A    between atoms: C_7  and  O_8
REMARK    4  A    between atoms: O_8  and  C_9
REMARK    5  A    between atoms: C_12  and  C_13
REMARK                            x       y       z     vdW  Elec       q    Type
REMARK                         _______ _______ _______ _____ _____    ______ ____
ROOT
ATOM      1  C   UNL     1       8.403  13.321  21.239  0.00  0.00    +0.000 A 
ATOM      2  N   UNL     1       7.482  14.226  21.058  0.00  0.00    +0.000 NA
ATOM      3  N   UNL     1       7.396  14.608  19.706  0.00  0.00    +0.000 N 
ATOM      4  C   UNL     1       6.892  15.773  19.135  0.00  0.00    +0.000 A 
ATOM      5  N   UNL     1       7.927  16.338  18.518  0.00  0.00    +0.000 NA
ATOM      6  N   UNL     1       8.744  15.312  18.121  0.00  0.00    +0.000 NA
ATOM      7  C   UNL     1       8.341  14.236  18.760  0.00  0.00    +0.000 A 
ATOM      8  C   UNL     1       8.951  12.986  18.918  0.00  0.00    +0.000 A 
ATOM      9  C   UNL     1       9.157  12.594  20.190  0.00  0.00    +0.000 A 
ATOM     10  C   UNL     1      10.194  11.506  20.341  0.00  0.00    +0.000 C 
ATOM     11  C   UNL     1       9.631  10.264  19.628  0.00  0.00    +0.000 C 
ATOM     12  C   UNL     1       9.221  10.641  18.182  0.00  0.00    +0.000 C 
ATOM     13  C   UNL     1       9.607  12.114  17.872  0.00  0.00    +0.000 C 
ATOM     14  C   UNL     1      11.118  12.268  18.072  0.00  0.00    +0.000 C 
ATOM     15  C   UNL     1      11.466  11.955  19.549  0.00  0.00    +0.000 C 
ENDROOT
BRANCH   4  16
ATOM     16  C   UNL     1       5.598  16.007  18.543  0.00  0.00    +0.000 A 
ATOM     17  C   UNL     1       4.900  15.049  17.809  0.00  0.00    +0.000 A 
ATOM     18  C   UNL     1       3.624  15.559  17.527  0.00  0.00    +0.000 A 
ATOM     19  C   UNL     1       3.585  16.798  18.111  0.00  0.00    +0.000 A 
ATOM     20  O   UNL     1       4.770  17.085  18.729  0.00  0.00    +0.000 OA
ENDBRANCH   4  16
BRANCH   1  21
ATOM     21  O   UNL     1       8.805  12.868  22.453  0.00  0.00    +0.000 OA
BRANCH  21  22
ATOM     22  C   UNL     1       8.172  11.675  22.951  0.00  0.00    +0.000 C 
BRANCH  22  28
ATOM     23  C   UNL     1       4.894  10.644  26.453  0.00  0.00    +0.000 C 
ATOM     24  C   UNL     1       6.117  11.414  26.043  0.00  0.00    +0.000 A 
ATOM     25  C   UNL     1       6.744  12.273  26.938  0.00  0.00    +0.000 A 
ATOM     26  C   UNL     1       7.865  12.976  26.510  0.00  0.00    +0.000 A 
ATOM     27  C   UNL     1       8.335  12.796  25.211  0.00  0.00    +0.000 A 
ATOM     28  C   UNL     1       7.665  11.915  24.363  0.00  0.00    +0.000 A 
ATOM     29  N   UNL     1       6.562  11.229  24.771  0.00  0.00    +0.000 NA
ENDBRANCH  22  28
ENDBRANCH  21  22
ENDBRANCH   1  21
TORSDOF 4
ENDMDL
