MODEL 1
REMARK VINA RESULT:      -7.1      0.000      0.000
REMARK  Name = 
REMARK  8 active torsions:
REMARK  status: ('A' for Active; 'I' for Inactive)
REMARK    1  A    between atoms: C_1  and  C_2
REMARK    2  A    between atoms: C_2  and  O_4
REMARK    3  A    between atoms: O_4  and  C_5
REMARK    4  A    between atoms: C_5  and  C_6
REMARK    5  A    between atoms: CA_7  and  C_8
REMARK    6  A    between atoms: CA_14  and  N_15
REMARK    7  A    between atoms: C_16  and  C_18
REMARK    8  A    between atoms: C_18  and  C_19
REMARK                            x       y       z     vdW  Elec       q    Type
REMARK                         _______ _______ _______ _____ _____    ______ ____
ROOT
ATOM      1  C   UNL     1       5.236   3.927  15.843  0.00  0.00    +0.000 C 
ATOM      2  CA  UNL     1       5.882   4.589  16.855  0.00  0.00    +0.000 C 
ATOM      3  N   UNL     1       5.164   4.930  17.966  0.00  0.00    +0.000 N 
ATOM      4  C   UNL     1       5.368   5.344  19.249  0.00  0.00    +0.000 C 
ATOM      5  O   UNL     1       6.348   5.582  19.912  0.00  0.00    +0.000 OA
ATOM      6  CA  UNL     1       3.834   5.212  19.539  0.00  0.00    +0.000 C 
ATOM      7  C   UNL     1       3.714   5.008  18.007  0.00  0.00    +0.000 C 
ATOM      8  S   UNL     1       3.053   3.394  17.517  0.00  0.00    +0.000 S 
ATOM      9  C   UNL     1       3.774   3.515  15.867  0.00  0.00    +0.000 C 
ENDROOT
BRANCH   6  10
ATOM     10  N   UNL     1       3.137   6.410  20.104  0.00  0.00    +0.000 N 
ATOM     11  C   UNL     1       1.834   6.338  20.545  0.00  0.00    +0.000 C 
ATOM     12  O   UNL     1       1.144   5.329  20.415  0.00  0.00    +0.000 OA
ATOM     13  H   UNL     1       3.652   7.280  20.197  0.00  0.00    +0.000 HD
BRANCH  11  14
ATOM     14  C   UNL     1       1.288   7.606  21.175  0.00  0.00    +0.000 C 
BRANCH  14  15
ATOM     15  C   UNL     1       1.257   8.699  20.152  0.00  0.00    +0.000 A 
ATOM     16  C   UNL     1       1.668   8.651  18.833  0.00  0.00    +0.000 A 
ATOM     17  C   UNL     1       1.506   9.901  18.170  0.00  0.00    +0.000 A 
ATOM     18  C   UNL     1       0.955  10.854  18.996  0.00  0.00    +0.000 A 
ATOM     19  S   UNL     1       0.641  10.243  20.561  0.00  0.00    +0.000 S 
ENDBRANCH  14  15
ENDBRANCH  11  14
ENDBRANCH   6  10
BRANCH   2  20
ATOM     20  C   UNL     1       7.389   4.967  16.736  0.00  0.00    +0.000 C 
ATOM     21  O   UNL     1       7.678   6.133  16.291  0.00  0.00    +0.000 OA
ATOM     22  OXT UNL     1       8.242   4.222  17.280  0.00  0.00    +0.000 OA
ENDBRANCH   2  20
BRANCH   1  23
ATOM     23  C   UNL     1       5.891   3.479  14.548  0.00  0.00    +0.000 C 
BRANCH  23  24
ATOM     24  O   UNL     1       5.167   3.952  13.405  0.00  0.00    +0.000 OA
BRANCH  24  26
ATOM     25  C   UNL     1       4.289   3.237  11.374  0.00  0.00    +0.000 C 
ATOM     26  C   UNL     1       5.515   3.388  12.215  0.00  0.00    +0.000 C 
ATOM     27  O   UNL     1       6.641   3.069  11.871  0.00  0.00    +0.000 OA
ENDBRANCH  24  26
ENDBRANCH  23  24
ENDBRANCH   1  23
TORSDOF 7
ENDMDL
MODEL 2
REMARK VINA RESULT:      -7.0      2.554      3.722
REMARK  Name = 
REMARK  8 active torsions:
REMARK  status: ('A' for Active; 'I' for Inactive)
REMARK    1  A    between atoms: C_1  and  C_2
REMARK    2  A    between atoms: C_2  and  O_4
REMARK    3  A    between atoms: O_4  and  C_5
REMARK    4  A    between atoms: C_5  and  C_6
REMARK    5  A    between atoms: CA_7  and  C_8
REMARK    6  A    between atoms: CA_14  and  N_15
REMARK    7  A    between atoms: C_16  and  C_18
REMARK    8  A    between atoms: C_18  and  C_19
REMARK                            x       y       z     vdW  Elec       q    Type
REMARK                         _______ _______ _______ _____ _____    ______ ____
ROOT
ATOM      1  C   UNL     1       4.654   4.525  17.652  0.00  0.00    +0.000 C 
ATOM      2  CA  UNL     1       3.932   4.080  18.729  0.00  0.00    +0.000 C 
ATOM      3  N   UNL     1       3.089   4.958  19.348  0.00  0.00    +0.000 N 
ATOM      4  C   UNL     1       2.053   4.954  20.234  0.00  0.00    +0.000 C 
ATOM      5  O   UNL     1       1.467   4.092  20.844  0.00  0.00    +0.000 OA
ATOM      6  CA  UNL     1       1.838   6.487  19.996  0.00  0.00    +0.000 C 
ATOM      7  C   UNL     1       3.179   6.402  19.222  0.00  0.00    +0.000 C 
ATOM      8  S   UNL     1       3.056   6.818  17.464  0.00  0.00    +0.000 S 
ATOM      9  C   UNL     1       4.572   5.925  17.068  0.00  0.00    +0.000 C 
ENDROOT
BRANCH   6  10
ATOM     10  N   UNL     1       1.825   7.374  21.201  0.00  0.00    +0.000 N 
ATOM     11  C   UNL     1       1.131   8.564  21.207  0.00  0.00    +0.000 C 
ATOM     12  O   UNL     1       0.570   9.010  20.208  0.00  0.00    +0.000 OA
ATOM     13  H   UNL     1       2.307   7.069  22.041  0.00  0.00    +0.000 HD
BRANCH  11  14
ATOM     14  C   UNL     1       1.133   9.314  22.526  0.00  0.00    +0.000 C 
BRANCH  14  15
ATOM     15  C   UNL     1       0.085  10.382  22.494  0.00  0.00    +0.000 A 
ATOM     16  C   UNL     1      -1.088  10.455  23.223  0.00  0.00    +0.000 A 
ATOM     17  C   UNL     1      -1.851  11.616  22.906  0.00  0.00    +0.000 A 
ATOM     18  C   UNL     1      -1.225  12.402  21.965  0.00  0.00    +0.000 A 
ATOM     19  S   UNL     1       0.270  11.739  21.466  0.00  0.00    +0.000 S 
ENDBRANCH  14  15
ENDBRANCH  11  14
ENDBRANCH   6  10
BRANCH   2  20
ATOM     20  C   UNL     1       4.086   2.620  19.253  0.00  0.00    +0.000 C 
ATOM     21  O   UNL     1       3.558   1.680  18.564  0.00  0.00    +0.000 OA
ATOM     22  OXT UNL     1       4.897   2.399  20.188  0.00  0.00    +0.000 OA
ENDBRANCH   2  20
BRANCH   1  23
ATOM     23  C   UNL     1       5.630   3.676  16.856  0.00  0.00    +0.000 C 
BRANCH  23  24
ATOM     24  O   UNL     1       6.843   4.390  16.584  0.00  0.00    +0.000 OA
BRANCH  24  26
ATOM     25  C   UNL     1       6.248   3.826  14.407  0.00  0.00    +0.000 C 
ATOM     26  C   UNL     1       7.035   4.746  15.283  0.00  0.00    +0.000 C 
ATOM     27  O   UNL     1       7.719   5.674  14.884  0.00  0.00    +0.000 OA
ENDBRANCH  24  26
ENDBRANCH  23  24
ENDBRANCH   1  23
TORSDOF 7
ENDMDL
MODEL 3
REMARK VINA RESULT:      -6.9      2.666      4.363
REMARK  Name = 
REMARK  8 active torsions:
REMARK  status: ('A' for Active; 'I' for Inactive)
REMARK    1  A    between atoms: C_1  and  C_2
REMARK    2  A    between atoms: C_2  and  O_4
REMARK    3  A    between atoms: O_4  and  C_5
REMARK    4  A    between atoms: C_5  and  C_6
REMARK    5  A    between atoms: CA_7  and  C_8
REMARK    6  A    between atoms: CA_14  and  N_15
REMARK    7  A    between atoms: C_16  and  C_18
REMARK    8  A    between atoms: C_18  and  C_19
REMARK                            x       y       z     vdW  Elec       q    Type
REMARK                         _______ _______ _______ _____ _____    ______ ____
ROOT
ATOM      1  C   UNL     1       4.544   5.188  17.640  0.00  0.00    +0.000 C 
ATOM      2  CA  UNL     1       3.904   4.656  18.729  0.00  0.00    +0.000 C 
ATOM      3  N   UNL     1       2.994   5.433  19.387  0.00  0.00    +0.000 N 
ATOM      4  C   UNL     1       1.991   5.310  20.301  0.00  0.00    +0.000 C 
ATOM      5  O   UNL     1       1.515   4.384  20.912  0.00  0.00    +0.000 OA
ATOM      6  CA  UNL     1       1.613   6.816  20.096  0.00  0.00    +0.000 C 
ATOM      7  C   UNL     1       2.933   6.880  19.283  0.00  0.00    +0.000 C 
ATOM      8  S   UNL     1       2.715   7.307  17.537  0.00  0.00    +0.000 S 
ATOM      9  C   UNL     1       4.302   6.580  17.082  0.00  0.00    +0.000 C 
ENDROOT
BRANCH   6  10
ATOM     10  N   UNL     1       1.546   7.680  21.317  0.00  0.00    +0.000 N 
ATOM     11  C   UNL     1       0.778   8.823  21.343  0.00  0.00    +0.000 C 
ATOM     12  O   UNL     1       0.188   9.250  20.352  0.00  0.00    +0.000 OA
ATOM     13  H   UNL     1       2.047   7.392  22.151  0.00  0.00    +0.000 HD
BRANCH  11  14
ATOM     14  C   UNL     1       0.734   9.549  22.675  0.00  0.00    +0.000 C 
BRANCH  14  15
ATOM     15  C   UNL     1      -0.256  10.670  22.600  0.00  0.00    +0.000 A 
ATOM     16  C   UNL     1      -1.473  10.783  23.245  0.00  0.00    +0.000 A 
ATOM     17  C   UNL     1      -2.153  11.990  22.909  0.00  0.00    +0.000 A 
ATOM     18  C   UNL     1      -1.422  12.766  22.039  0.00  0.00    +0.000 A 
ATOM     19  S   UNL     1       0.070  12.042  21.629  0.00  0.00    +0.000 S 
ENDBRANCH  14  15
ENDBRANCH  11  14
ENDBRANCH   6  10
BRANCH   2  20
ATOM     20  C   UNL     1       4.222   3.212  19.223  0.00  0.00    +0.000 C 
ATOM     21  O   UNL     1       3.583   2.243  18.685  0.00  0.00    +0.000 OA
ATOM     22  OXT UNL     1       5.232   3.034  19.951  0.00  0.00    +0.000 OA
ENDBRANCH   2  20
BRANCH   1  23
ATOM     23  C   UNL     1       5.578   4.455  16.802  0.00  0.00    +0.000 C 
BRANCH  23  24
ATOM     24  O   UNL     1       6.774   5.230  16.653  0.00  0.00    +0.000 OA
BRANCH  24  26
ATOM     25  C   UNL     1       7.782   6.826  18.011  0.00  0.00    +0.000 C 
ATOM     26  C   UNL     1       7.526   5.372  17.780  0.00  0.00    +0.000 C 
ATOM     27  O   UNL     1       7.917   4.471  18.504  0.00  0.00    +0.000 OA
ENDBRANCH  24  26
ENDBRANCH  23  24
ENDBRANCH   1  23
TORSDOF 7
ENDMDL
MODEL 4
REMARK VINA RESULT:      -6.9      2.529      3.595
REMARK  Name = 
REMARK  8 active torsions:
REMARK  status: ('A' for Active; 'I' for Inactive)
REMARK    1  A    between atoms: C_1  and  C_2
REMARK    2  A    between atoms: C_2  and  O_4
REMARK    3  A    between atoms: O_4  and  C_5
REMARK    4  A    between atoms: C_5  and  C_6
REMARK    5  A    between atoms: CA_7  and  C_8
REMARK    6  A    between atoms: CA_14  and  N_15
REMARK    7  A    between atoms: C_16  and  C_18
REMARK    8  A    between atoms: C_18  and  C_19
REMARK                            x       y       z     vdW  Elec       q    Type
REMARK                         _______ _______ _______ _____ _____    ______ ____
ROOT
ATOM      1  C   UNL     1       4.986   5.090  17.782  0.00  0.00    +0.000 C 
ATOM      2  CA  UNL     1       4.131   4.575  18.721  0.00  0.00    +0.000 C 
ATOM      3  N   UNL     1       3.198   5.407  19.271  0.00  0.00    +0.000 N 
ATOM      4  C   UNL     1       2.050   5.342  20.004  0.00  0.00    +0.000 C 
ATOM      5  O   UNL     1       1.399   4.440  20.473  0.00  0.00    +0.000 OA
ATOM      6  CA  UNL     1       1.848   6.886  19.832  0.00  0.00    +0.000 C 
ATOM      7  C   UNL     1       3.284   6.857  19.246  0.00  0.00    +0.000 C 
ATOM      8  S   UNL     1       3.396   7.381  17.516  0.00  0.00    +0.000 S 
ATOM      9  C   UNL     1       4.965   6.523  17.278  0.00  0.00    +0.000 C 
ENDROOT
BRANCH   6  10
ATOM     10  N   UNL     1       1.658   7.696  21.076  0.00  0.00    +0.000 N 
ATOM     11  C   UNL     1       0.755   8.735  21.122  0.00  0.00    +0.000 C 
ATOM     12  O   UNL     1       0.132   9.117  20.134  0.00  0.00    +0.000 OA
ATOM     13  H   UNL     1       2.179   7.445  21.911  0.00  0.00    +0.000 HD
BRANCH  11  14
ATOM     14  C   UNL     1       0.603   9.408  22.474  0.00  0.00    +0.000 C 
BRANCH  14  15
ATOM     15  C   UNL     1       0.005  10.768  22.290  0.00  0.00    +0.000 A 
ATOM     16  C   UNL     1       0.478  11.817  21.523  0.00  0.00    +0.000 A 
ATOM     17  C   UNL     1      -0.353  12.970  21.613  0.00  0.00    +0.000 A 
ATOM     18  C   UNL     1      -1.443  12.757  22.425  0.00  0.00    +0.000 A 
ATOM     19  S   UNL     1      -1.460  11.177  23.077  0.00  0.00    +0.000 S 
ENDBRANCH  14  15
ENDBRANCH  11  14
ENDBRANCH   6  10
BRANCH   2  20
ATOM     20  C   UNL     1       4.232   3.086  19.172  0.00  0.00    +0.000 C 
ATOM     21  O   UNL     1       3.577   2.214  18.502  0.00  0.00    +0.000 OA
ATOM     22  OXT UNL     1       5.111   2.771  20.013  0.00  0.00    +0.000 OA
ENDBRANCH   2  20
BRANCH   1  23
ATOM     23  C   UNL     1       6.074   4.298  17.078  0.00  0.00    +0.000 C 
BRANCH  23  24
ATOM     24  O   UNL     1       5.716   4.011  15.720  0.00  0.00    +0.000 OA
BRANCH  24  26
ATOM     25  C   UNL     1       6.227   3.846  13.457  0.00  0.00    +0.000 C 
ATOM     26  C   UNL     1       6.597   4.443  14.776  0.00  0.00    +0.000 C 
ATOM     27  O   UNL     1       7.530   5.208  14.958  0.00  0.00    +0.000 OA
ENDBRANCH  24  26
ENDBRANCH  23  24
ENDBRANCH   1  23
TORSDOF 7
ENDMDL
MODEL 5
REMARK VINA RESULT:      -6.8      4.265      9.538
REMARK  Name = 
REMARK  8 active torsions:
REMARK  status: ('A' for Active; 'I' for Inactive)
REMARK    1  A    between atoms: C_1  and  C_2
REMARK    2  A    between atoms: C_2  and  O_4
REMARK    3  A    between atoms: O_4  and  C_5
REMARK    4  A    between atoms: C_5  and  C_6
REMARK    5  A    between atoms: CA_7  and  C_8
REMARK    6  A    between atoms: CA_14  and  N_15
REMARK    7  A    between atoms: C_16  and  C_18
REMARK    8  A    between atoms: C_18  and  C_19
REMARK                            x       y       z     vdW  Elec       q    Type
REMARK                         _______ _______ _______ _____ _____    ______ ____
ROOT
ATOM      1  C   UNL     1      -1.053  11.398  19.982  0.00  0.00    +0.000 C 
ATOM      2  CA  UNL     1      -0.528  10.997  21.183  0.00  0.00    +0.000 C 
ATOM      3  N   UNL     1       0.316   9.923  21.192  0.00  0.00    +0.000 N 
ATOM      4  C   UNL     1       1.223   9.321  22.013  0.00  0.00    +0.000 C 
ATOM      5  O   UNL     1       1.631   9.544  23.127  0.00  0.00    +0.000 OA
ATOM      6  CA  UNL     1       1.627   8.344  20.857  0.00  0.00    +0.000 C 
ATOM      7  C   UNL     1       0.396   8.940  20.126  0.00  0.00    +0.000 C 
ATOM      8  S   UNL     1       0.789   9.812  18.589  0.00  0.00    +0.000 S 
ATOM      9  C   UNL     1      -0.749  10.754  18.640  0.00  0.00    +0.000 C 
ENDROOT
BRANCH   6  10
ATOM     10  N   UNL     1       1.577   6.877  21.149  0.00  0.00    +0.000 N 
ATOM     11  C   UNL     1       2.241   5.967  20.356  0.00  0.00    +0.000 C 
ATOM     12  O   UNL     1       2.825   6.287  19.323  0.00  0.00    +0.000 OA
ATOM     13  H   UNL     1       1.075   6.556  21.970  0.00  0.00    +0.000 HD
BRANCH  11  14
ATOM     14  C   UNL     1       2.176   4.524  20.824  0.00  0.00    +0.000 C 
BRANCH  14  15
ATOM     15  C   UNL     1       2.469   3.613  19.674  0.00  0.00    +0.000 A 
ATOM     16  C   UNL     1       1.674   3.330  18.579  0.00  0.00    +0.000 A 
ATOM     17  C   UNL     1       2.282   2.392  17.696  0.00  0.00    +0.000 A 
ATOM     18  C   UNL     1       3.529   2.008  18.133  0.00  0.00    +0.000 A 
ATOM     19  S   UNL     1       3.959   2.772  19.600  0.00  0.00    +0.000 S 
ENDBRANCH  14  15
ENDBRANCH  11  14
ENDBRANCH   6  10
BRANCH   2  20
ATOM     20  C   UNL     1      -0.901  11.726  22.509  0.00  0.00    +0.000 C 
ATOM     21  O   UNL     1      -1.814  11.205  23.240  0.00  0.00    +0.000 OA
ATOM     22  OXT UNL     1      -0.154  12.651  22.918  0.00  0.00    +0.000 OA
ENDBRANCH   2  20
BRANCH   1  23
ATOM     23  C   UNL     1      -2.002  12.571  19.804  0.00  0.00    +0.000 C 
BRANCH  23  24
ATOM     24  O   UNL     1      -3.347  12.212  20.146  0.00  0.00    +0.000 OA
BRANCH  24  26
ATOM     25  C   UNL     1      -5.534  12.735  19.554  0.00  0.00    +0.000 C 
ATOM     26  C   UNL     1      -4.226  12.168  19.107  0.00  0.00    +0.000 C 
ATOM     27  O   UNL     1      -3.993  11.752  17.983  0.00  0.00    +0.000 OA
ENDBRANCH  24  26
ENDBRANCH  23  24
ENDBRANCH   1  23
TORSDOF 7
ENDMDL
MODEL 6
REMARK VINA RESULT:      -6.7      4.653     10.094
REMARK  Name = 
REMARK  8 active torsions:
REMARK  status: ('A' for Active; 'I' for Inactive)
REMARK    1  A    between atoms: C_1  and  C_2
REMARK    2  A    between atoms: C_2  and  O_4
REMARK    3  A    between atoms: O_4  and  C_5
REMARK    4  A    between atoms: C_5  and  C_6
REMARK    5  A    between atoms: CA_7  and  C_8
REMARK    6  A    between atoms: CA_14  and  N_15
REMARK    7  A    between atoms: C_16  and  C_18
REMARK    8  A    between atoms: C_18  and  C_19
REMARK                            x       y       z     vdW  Elec       q    Type
REMARK                         _______ _______ _______ _____ _____    ______ ____
ROOT
ATOM      1  C   UNL     1      -1.122  11.966  20.305  0.00  0.00    +0.000 C 
ATOM      2  CA  UNL     1      -0.741  11.396  21.492  0.00  0.00    +0.000 C 
ATOM      3  N   UNL     1       0.079  10.305  21.452  0.00  0.00    +0.000 N 
ATOM      4  C   UNL     1       0.878   9.575  22.280  0.00  0.00    +0.000 C 
ATOM      5  O   UNL     1       1.161   9.639  23.452  0.00  0.00    +0.000 OA
ATOM      6  CA  UNL     1       1.395   8.745  21.057  0.00  0.00    +0.000 C 
ATOM      7  C   UNL     1       0.263   9.467  20.281  0.00  0.00    +0.000 C 
ATOM      8  S   UNL     1       0.841  10.519  18.924  0.00  0.00    +0.000 S 
ATOM      9  C   UNL     1      -0.678  11.492  18.931  0.00  0.00    +0.000 C 
ENDROOT
BRANCH   6  10
ATOM     10  N   UNL     1       1.289   7.254  21.144  0.00  0.00    +0.000 N 
ATOM     11  C   UNL     1       1.962   6.436  20.264  0.00  0.00    +0.000 C 
ATOM     12  O   UNL     1       2.602   6.872  19.309  0.00  0.00    +0.000 OA
ATOM     13  H   UNL     1       0.741   6.843  21.893  0.00  0.00    +0.000 HD
BRANCH  11  14
ATOM     14  C   UNL     1       1.834   4.947  20.529  0.00  0.00    +0.000 C 
BRANCH  14  15
ATOM     15  C   UNL     1       2.379   4.184  19.362  0.00  0.00    +0.000 A 
ATOM     16  C   UNL     1       1.727   3.812  18.201  0.00  0.00    +0.000 A 
ATOM     17  C   UNL     1       2.568   3.070  17.322  0.00  0.00    +0.000 A 
ATOM     18  C   UNL     1       3.838   2.921  17.830  0.00  0.00    +0.000 A 
ATOM     19  S   UNL     1       4.011   3.668  19.358  0.00  0.00    +0.000 S 
ENDBRANCH  14  15
ENDBRANCH  11  14
ENDBRANCH   6  10
BRANCH   2  20
ATOM     20  C   UNL     1      -1.251  11.958  22.854  0.00  0.00    +0.000 C 
ATOM     21  O   UNL     1      -0.598  12.925  23.382  0.00  0.00    +0.000 OA
ATOM     22  OXT UNL     1      -2.386  11.607  23.263  0.00  0.00    +0.000 OA
ENDBRANCH   2  20
BRANCH   1  23
ATOM     23  C   UNL     1      -2.026  13.180  20.179  0.00  0.00    +0.000 C 
BRANCH  23  24
ATOM     24  O   UNL     1      -1.265  14.386  20.038  0.00  0.00    +0.000 OA
BRANCH  24  26
ATOM     25  C   UNL     1      -2.853  15.186  21.537  0.00  0.00    +0.000 C 
ATOM     26  C   UNL     1      -1.462  15.322  21.007  0.00  0.00    +0.000 C 
ATOM     27  O   UNL     1      -0.641  16.134  21.403  0.00  0.00    +0.000 OA
ENDBRANCH  24  26
ENDBRANCH  23  24
ENDBRANCH   1  23
TORSDOF 7
ENDMDL
MODEL 7
REMARK VINA RESULT:      -6.6      4.561     10.003
REMARK  Name = 
REMARK  8 active torsions:
REMARK  status: ('A' for Active; 'I' for Inactive)
REMARK    1  A    between atoms: C_1  and  C_2
REMARK    2  A    between atoms: C_2  and  O_4
REMARK    3  A    between atoms: O_4  and  C_5
REMARK    4  A    between atoms: C_5  and  C_6
REMARK    5  A    between atoms: CA_7  and  C_8
REMARK    6  A    between atoms: CA_14  and  N_15
REMARK    7  A    between atoms: C_16  and  C_18
REMARK    8  A    between atoms: C_18  and  C_19
REMARK                            x       y       z     vdW  Elec       q    Type
REMARK                         _______ _______ _______ _____ _____    ______ ____
ROOT
ATOM      1  C   UNL     1      -1.256  11.623  20.258  0.00  0.00    +0.000 C 
ATOM      2  CA  UNL     1      -0.732  11.144  21.430  0.00  0.00    +0.000 C 
ATOM      3  N   UNL     1       0.124  10.082  21.369  0.00  0.00    +0.000 N 
ATOM      4  C   UNL     1       1.034   9.434  22.151  0.00  0.00    +0.000 C 
ATOM      5  O   UNL     1       1.433   9.583  23.280  0.00  0.00    +0.000 OA
ATOM      6  CA  UNL     1       1.454   8.545  20.931  0.00  0.00    +0.000 C 
ATOM      7  C   UNL     1       0.220   9.177  20.237  0.00  0.00    +0.000 C 
ATOM      8  S   UNL     1       0.611  10.160  18.767  0.00  0.00    +0.000 S 
ATOM      9  C   UNL     1      -0.939  11.078  18.876  0.00  0.00    +0.000 C 
ENDROOT
BRANCH   6  10
ATOM     10  N   UNL     1       1.420   7.061  21.119  0.00  0.00    +0.000 N 
ATOM     11  C   UNL     1       2.237   6.227  20.387  0.00  0.00    +0.000 C 
ATOM     12  O   UNL     1       2.962   6.636  19.482  0.00  0.00    +0.000 OA
ATOM     13  H   UNL     1       0.809   6.669  21.829  0.00  0.00    +0.000 HD
BRANCH  11  14
ATOM     14  C   UNL     1       2.159   4.755  20.748  0.00  0.00    +0.000 C 
BRANCH  14  15
ATOM     15  C   UNL     1       2.547   3.930  19.562  0.00  0.00    +0.000 A 
ATOM     16  C   UNL     1       3.718   3.223  19.354  0.00  0.00    +0.000 A 
ATOM     17  C   UNL     1       3.739   2.571  18.088  0.00  0.00    +0.000 A 
ATOM     18  C   UNL     1       2.577   2.781  17.382  0.00  0.00    +0.000 A 
ATOM     19  S   UNL     1       1.472   3.762  18.240  0.00  0.00    +0.000 S 
ENDBRANCH  14  15
ENDBRANCH  11  14
ENDBRANCH   6  10
BRANCH   2  20
ATOM     20  C   UNL     1      -1.120  11.775  22.802  0.00  0.00    +0.000 C 
ATOM     21  O   UNL     1      -0.571  12.885  23.125  0.00  0.00    +0.000 OA
ATOM     22  OXT UNL     1      -2.105  11.302  23.425  0.00  0.00    +0.000 OA
ENDBRANCH   2  20
BRANCH   1  23
ATOM     23  C   UNL     1      -2.218  12.795  20.156  0.00  0.00    +0.000 C 
BRANCH  23  24
ATOM     24  O   UNL     1      -3.575  12.349  20.044  0.00  0.00    +0.000 OA
BRANCH  24  26
ATOM     25  C   UNL     1      -4.683  12.836  22.029  0.00  0.00    +0.000 C 
ATOM     26  C   UNL     1      -4.512  13.176  20.584  0.00  0.00    +0.000 C 
ATOM     27  O   UNL     1      -5.109  14.067  20.001  0.00  0.00    +0.000 OA
ENDBRANCH  24  26
ENDBRANCH  23  24
ENDBRANCH   1  23
TORSDOF 7
ENDMDL
MODEL 8
REMARK VINA RESULT:      -6.4      4.216      9.561
REMARK  Name = 
REMARK  8 active torsions:
REMARK  status: ('A' for Active; 'I' for Inactive)
REMARK    1  A    between atoms: C_1  and  C_2
REMARK    2  A    between atoms: C_2  and  O_4
REMARK    3  A    between atoms: O_4  and  C_5
REMARK    4  A    between atoms: C_5  and  C_6
REMARK    5  A    between atoms: CA_7  and  C_8
REMARK    6  A    between atoms: CA_14  and  N_15
REMARK    7  A    between atoms: C_16  and  C_18
REMARK    8  A    between atoms: C_18  and  C_19
REMARK                            x       y       z     vdW  Elec       q    Type
REMARK                         _______ _______ _______ _____ _____    ______ ____
ROOT
ATOM      1  C   UNL     1       0.182  11.271  21.309  0.00  0.00    +0.000 C 
ATOM      2  CA  UNL     1       0.803  11.084  20.102  0.00  0.00    +0.000 C 
ATOM      3  N   UNL     1       1.208   9.822  19.772  0.00  0.00    +0.000 N 
ATOM      4  C   UNL     1       1.619   9.114  18.682  0.00  0.00    +0.000 C 
ATOM      5  O   UNL     1       1.790   9.382  17.518  0.00  0.00    +0.000 OA
ATOM      6  CA  UNL     1       1.606   7.796  19.529  0.00  0.00    +0.000 C 
ATOM      7  C   UNL     1       1.396   8.749  20.733  0.00  0.00    +0.000 C 
ATOM      8  S   UNL     1      -0.168   8.507  21.614  0.00  0.00    +0.000 S 
ATOM      9  C   UNL     1      -0.119  10.170  22.313  0.00  0.00    +0.000 C 
ENDROOT
BRANCH   6  10
ATOM     10  N   UNL     1       2.859   6.977  19.544  0.00  0.00    +0.000 N 
ATOM     11  C   UNL     1       2.951   5.796  18.841  0.00  0.00    +0.000 C 
ATOM     12  O   UNL     1       1.995   5.301  18.247  0.00  0.00    +0.000 OA
ATOM     13  H   UNL     1       3.667   7.324  20.051  0.00  0.00    +0.000 HD
BRANCH  11  14
ATOM     14  C   UNL     1       4.310   5.121  18.874  0.00  0.00    +0.000 C 
BRANCH  14  15
ATOM     15  C   UNL     1       4.837   4.991  17.479  0.00  0.00    +0.000 A 
ATOM     16  C   UNL     1       5.025   3.840  16.737  0.00  0.00    +0.000 A 
ATOM     17  C   UNL     1       5.571   4.110  15.449  0.00  0.00    +0.000 A 
ATOM     18  C   UNL     1       5.759   5.457  15.242  0.00  0.00    +0.000 A 
ATOM     19  S   UNL     1       5.284   6.387  16.595  0.00  0.00    +0.000 S 
ENDBRANCH  14  15
ENDBRANCH  11  14
ENDBRANCH   6  10
BRANCH   2  20
ATOM     20  C   UNL     1       1.066  12.281  19.139  0.00  0.00    +0.000 C 
ATOM     21  O   UNL     1       2.277  12.663  18.979  0.00  0.00    +0.000 OA
ATOM     22  OXT UNL     1       0.131  12.671  18.394  0.00  0.00    +0.000 OA
ENDBRANCH   2  20
BRANCH   1  23
ATOM     23  C   UNL     1      -0.328  12.607  21.821  0.00  0.00    +0.000 C 
BRANCH  23  24
ATOM     24  O   UNL     1      -0.705  12.528  23.201  0.00  0.00    +0.000 OA
BRANCH  24  26
ATOM     25  C   UNL     1      -3.018  12.432  23.432  0.00  0.00    +0.000 C 
ATOM     26  C   UNL     1      -1.788  13.273  23.558  0.00  0.00    +0.000 C 
ATOM     27  O   UNL     1      -1.772  14.433  23.936  0.00  0.00    +0.000 OA
ENDBRANCH  24  26
ENDBRANCH  23  24
ENDBRANCH   1  23
TORSDOF 7
ENDMDL
MODEL 9
REMARK VINA RESULT:      -6.4      4.379      9.679
REMARK  Name = 
REMARK  8 active torsions:
REMARK  status: ('A' for Active; 'I' for Inactive)
REMARK    1  A    between atoms: C_1  and  C_2
REMARK    2  A    between atoms: C_2  and  O_4
REMARK    3  A    between atoms: O_4  and  C_5
REMARK    4  A    between atoms: C_5  and  C_6
REMARK    5  A    between atoms: CA_7  and  C_8
REMARK    6  A    between atoms: CA_14  and  N_15
REMARK    7  A    between atoms: C_16  and  C_18
REMARK    8  A    between atoms: C_18  and  C_19
REMARK                            x       y       z     vdW  Elec       q    Type
REMARK                         _______ _______ _______ _____ _____    ______ ____
ROOT
ATOM      1  C   UNL     1      -0.734  11.860  20.076  0.00  0.00    +0.000 C 
ATOM      2  CA  UNL     1      -0.461  11.319  21.305  0.00  0.00    +0.000 C 
ATOM      3  N   UNL     1       0.265  10.163  21.355  0.00  0.00    +0.000 N 
ATOM      4  C   UNL     1       0.958   9.409  22.255  0.00  0.00    +0.000 C 
ATOM      5  O   UNL     1       1.189   9.506  23.436  0.00  0.00    +0.000 OA
ATOM      6  CA  UNL     1       1.460   8.481  21.097  0.00  0.00    +0.000 C 
ATOM      7  C   UNL     1       0.432   9.256  20.233  0.00  0.00    +0.000 C 
ATOM      8  S   UNL     1       1.162  10.191  18.863  0.00  0.00    +0.000 S 
ATOM      9  C   UNL     1      -0.268  11.286  18.749  0.00  0.00    +0.000 C 
ENDROOT
BRANCH   6  10
ATOM     10  N   UNL     1       1.223   7.010  21.245  0.00  0.00    +0.000 N 
ATOM     11  C   UNL     1       1.895   6.096  20.465  0.00  0.00    +0.000 C 
ATOM     12  O   UNL     1       2.644   6.428  19.548  0.00  0.00    +0.000 OA
ATOM     13  H   UNL     1       0.584   6.685  21.963  0.00  0.00    +0.000 HD
BRANCH  11  14
ATOM     14  C   UNL     1       1.622   4.638  20.787  0.00  0.00    +0.000 C 
BRANCH  14  15
ATOM     15  C   UNL     1       2.306   3.768  19.779  0.00  0.00    +0.000 A 
ATOM     16  C   UNL     1       3.598   3.276  19.805  0.00  0.00    +0.000 A 
ATOM     17  C   UNL     1       3.904   2.496  18.652  0.00  0.00    +0.000 A 
ATOM     18  C   UNL     1       2.830   2.400  17.797  0.00  0.00    +0.000 A 
ATOM     19  S   UNL     1       1.465   3.247  18.381  0.00  0.00    +0.000 S 
ENDBRANCH  14  15
ENDBRANCH  11  14
ENDBRANCH   6  10
BRANCH   2  20
ATOM     20  C   UNL     1      -0.984  11.986  22.613  0.00  0.00    +0.000 C 
ATOM     21  O   UNL     1      -0.282  12.925  23.127  0.00  0.00    +0.000 OA
ATOM     22  OXT UNL     1      -2.161  11.744  22.983  0.00  0.00    +0.000 OA
ENDBRANCH   2  20
BRANCH   1  23
ATOM     23  C   UNL     1      -1.525  13.138  19.851  0.00  0.00    +0.000 C 
BRANCH  23  24
ATOM     24  O   UNL     1      -0.785  14.077  19.062  0.00  0.00    +0.000 OA
BRANCH  24  26
ATOM     25  C   UNL     1       0.687  15.864  18.836  0.00  0.00    +0.000 C 
ATOM     26  C   UNL     1      -0.226  15.111  19.750  0.00  0.00    +0.000 C 
ATOM     27  O   UNL     1      -0.440  15.400  20.916  0.00  0.00    +0.000 OA
ENDBRANCH  24  26
ENDBRANCH  23  24
ENDBRANCH   1  23
TORSDOF 7
ENDMDL
