MODEL 1
REMARK VINA RESULT:      -7.1      0.000      0.000
REMARK  Name = 
REMARK  6 active torsions:
REMARK  status: ('A' for Active; 'I' for Inactive)
REMARK    1  A    between atoms: C_1  and  O_2
REMARK    2  A    between atoms: O_2  and  C_3
REMARK    3  A    between atoms: C_6  and  C_7
REMARK    4  A    between atoms: N_12  and  C_13
REMARK    5  A    between atoms: C_22  and  O_23
REMARK    6  A    between atoms: O_23  and  C_24
REMARK                            x       y       z     vdW  Elec       q    Type
REMARK                         _______ _______ _______ _____ _____    ______ ____
ROOT
ATOM      1  C   UNL     1       2.733   7.393  18.142  0.00  0.00    +0.000 C 
ATOM      2  C   UNL     1       2.055   8.230  18.928  0.00  0.00    +0.000 C 
ATOM      3  N   UNL     1       1.699   8.045  20.230  0.00  0.00    +0.000 N 
ATOM      4  C   UNL     1       1.031   9.168  20.705  0.00  0.00    +0.000 C 
ATOM      5  S   UNL     1       0.410   9.217  22.246  0.00  0.00    +0.000 S 
ATOM      6  N   UNL     1       0.959  10.089  19.659  0.00  0.00    +0.000 N 
ATOM      7  C   UNL     1       1.540   9.573  18.508  0.00  0.00    +0.000 C 
ATOM      8  O   UNL     1       1.667  10.055  17.397  0.00  0.00    +0.000 OA
ATOM      9  H   UNL     1       1.887   7.214  20.777  0.00  0.00    +0.000 HD
ENDROOT
BRANCH   1  13
ATOM     10  C   UNL     1       3.953   3.429  19.147  0.00  0.00    +0.000 A 
ATOM     11  C   UNL     1       2.595   3.776  19.095  0.00  0.00    +0.000 A 
ATOM     12  C   UNL     1       2.202   5.077  18.776  0.00  0.00    +0.000 A 
ATOM     13  C   UNL     1       3.163   6.056  18.545  0.00  0.00    +0.000 A 
ATOM     14  C   UNL     1       4.516   5.739  18.697  0.00  0.00    +0.000 A 
ATOM     15  C   UNL     1       4.926   4.429  19.002  0.00  0.00    +0.000 A 
BRANCH  10  17
ATOM     16  C   UNL     1       3.745   1.166  18.499  0.00  0.00    +0.000 C 
ATOM     17  O   UNL     1       4.330   2.128  19.368  0.00  0.00    +0.000 OA
ENDBRANCH  10  17
BRANCH  15  18
ATOM     18  O   UNL     1       6.289   4.326  19.090  0.00  0.00    +0.000 OA
ATOM     19  C   UNL     1       7.086   4.723  17.984  0.00  0.00    +0.000 C 
ENDBRANCH  15  18
ENDBRANCH   1  13
BRANCH   6  20
ATOM     20  C   UNL     1       0.415  11.388  19.714  0.00  0.00    +0.000 A 
ATOM     21  C   UNL     1       1.234  12.484  20.015  0.00  0.00    +0.000 A 
ATOM     22  C   UNL     1       0.697  13.772  20.059  0.00  0.00    +0.000 A 
ATOM     23  C   UNL     1      -0.670  13.966  19.857  0.00  0.00    +0.000 A 
ATOM     24  C   UNL     1      -1.497  12.876  19.595  0.00  0.00    +0.000 A 
ATOM     25  C   UNL     1      -0.955  11.593  19.508  0.00  0.00    +0.000 A 
ENDBRANCH   6  20
TORSDOF 4
ENDMDL
MODEL 2
REMARK VINA RESULT:      -7.1      0.368      1.052
REMARK  Name = 
REMARK  6 active torsions:
REMARK  status: ('A' for Active; 'I' for Inactive)
REMARK    1  A    between atoms: C_1  and  O_2
REMARK    2  A    between atoms: O_2  and  C_3
REMARK    3  A    between atoms: C_6  and  C_7
REMARK    4  A    between atoms: N_12  and  C_13
REMARK    5  A    between atoms: C_22  and  O_23
REMARK    6  A    between atoms: O_23  and  C_24
REMARK                            x       y       z     vdW  Elec       q    Type
REMARK                         _______ _______ _______ _____ _____    ______ ____
ROOT
ATOM      1  C   UNL     1       2.565   7.330  18.262  0.00  0.00    +0.000 C 
ATOM      2  C   UNL     1       1.951   8.196  19.069  0.00  0.00    +0.000 C 
ATOM      3  N   UNL     1       1.675   8.045  20.396  0.00  0.00    +0.000 N 
ATOM      4  C   UNL     1       1.057   9.188  20.886  0.00  0.00    +0.000 C 
ATOM      5  S   UNL     1       0.536   9.281  22.462  0.00  0.00    +0.000 S 
ATOM      6  N   UNL     1       0.933  10.089  19.826  0.00  0.00    +0.000 N 
ATOM      7  C   UNL     1       1.432   9.537  18.652  0.00  0.00    +0.000 C 
ATOM      8  O   UNL     1       1.495   9.994  17.525  0.00  0.00    +0.000 OA
ATOM      9  H   UNL     1       1.885   7.223  20.948  0.00  0.00    +0.000 HD
ENDROOT
BRANCH   1  13
ATOM     10  C   UNL     1       3.810   3.375  19.269  0.00  0.00    +0.000 A 
ATOM     11  C   UNL     1       2.451   3.690  19.124  0.00  0.00    +0.000 A 
ATOM     12  C   UNL     1       2.049   4.988  18.805  0.00  0.00    +0.000 A 
ATOM     13  C   UNL     1       2.998   5.995  18.666  0.00  0.00    +0.000 A 
ATOM     14  C   UNL     1       4.344   5.708  18.912  0.00  0.00    +0.000 A 
ATOM     15  C   UNL     1       4.765   4.402  19.218  0.00  0.00    +0.000 A 
BRANCH  10  17
ATOM     16  C   UNL     1       3.772   1.135  18.517  0.00  0.00    +0.000 C 
ATOM     17  O   UNL     1       4.203   2.079  19.489  0.00  0.00    +0.000 OA
ENDBRANCH  10  17
BRANCH  15  18
ATOM     18  O   UNL     1       6.120   4.330  19.405  0.00  0.00    +0.000 OA
ATOM     19  C   UNL     1       6.898   5.511  19.287  0.00  0.00    +0.000 C 
ENDBRANCH  15  18
ENDBRANCH   1  13
BRANCH   6  20
ATOM     20  C   UNL     1       0.414  11.397  19.887  0.00  0.00    +0.000 A 
ATOM     21  C   UNL     1      -0.942  11.632  19.624  0.00  0.00    +0.000 A 
ATOM     22  C   UNL     1      -1.458  12.928  19.695  0.00  0.00    +0.000 A 
ATOM     23  C   UNL     1      -0.613  14.001  19.976  0.00  0.00    +0.000 A 
ATOM     24  C   UNL     1       0.744  13.780  20.200  0.00  0.00    +0.000 A 
ATOM     25  C   UNL     1       1.254  12.480  20.172  0.00  0.00    +0.000 A 
ENDBRANCH   6  20
TORSDOF 4
ENDMDL
MODEL 3
REMARK VINA RESULT:      -7.1      2.912      3.875
REMARK  Name = 
REMARK  6 active torsions:
REMARK  status: ('A' for Active; 'I' for Inactive)
REMARK    1  A    between atoms: C_1  and  O_2
REMARK    2  A    between atoms: O_2  and  C_3
REMARK    3  A    between atoms: C_6  and  C_7
REMARK    4  A    between atoms: N_12  and  C_13
REMARK    5  A    between atoms: C_22  and  O_23
REMARK    6  A    between atoms: O_23  and  C_24
REMARK                            x       y       z     vdW  Elec       q    Type
REMARK                         _______ _______ _______ _____ _____    ______ ____
ROOT
ATOM      1  C   UNL     1       1.207   8.052  21.534  0.00  0.00    +0.000 C 
ATOM      2  C   UNL     1       0.485   9.162  21.376  0.00  0.00    +0.000 C 
ATOM      3  N   UNL     1      -0.005   9.677  20.213  0.00  0.00    +0.000 N 
ATOM      4  C   UNL     1      -0.739  10.828  20.474  0.00  0.00    +0.000 C 
ATOM      5  S   UNL     1      -1.408  11.724  19.244  0.00  0.00    +0.000 S 
ATOM      6  N   UNL     1      -0.701  11.048  21.852  0.00  0.00    +0.000 N 
ATOM      7  C   UNL     1       0.067  10.079  22.484  0.00  0.00    +0.000 C 
ATOM      8  O   UNL     1       0.347   9.929  23.660  0.00  0.00    +0.000 OA
ATOM      9  H   UNL     1       0.141   9.285  19.291  0.00  0.00    +0.000 HD
ENDROOT
BRANCH   1  13
ATOM     10  C   UNL     1       2.731   5.622  18.375  0.00  0.00    +0.000 A 
ATOM     11  C   UNL     1       2.723   7.021  18.271  0.00  0.00    +0.000 A 
ATOM     12  C   UNL     1       2.213   7.810  19.303  0.00  0.00    +0.000 A 
ATOM     13  C   UNL     1       1.669   7.210  20.434  0.00  0.00    +0.000 A 
ATOM     14  C   UNL     1       1.582   5.816  20.496  0.00  0.00    +0.000 A 
ATOM     15  C   UNL     1       2.106   5.008  19.471  0.00  0.00    +0.000 A 
BRANCH  10  17
ATOM     16  C   UNL     1       4.678   4.507  17.631  0.00  0.00    +0.000 C 
ATOM     17  O   UNL     1       3.318   4.856  17.399  0.00  0.00    +0.000 OA
ENDBRANCH  10  17
BRANCH  15  18
ATOM     18  O   UNL     1       1.934   3.674  19.730  0.00  0.00    +0.000 OA
ATOM     19  C   UNL     1       1.475   3.273  21.012  0.00  0.00    +0.000 C 
ENDBRANCH  15  18
ENDBRANCH   1  13
BRANCH   6  20
ATOM     20  C   UNL     1      -1.359  12.073  22.561  0.00  0.00    +0.000 A 
ATOM     21  C   UNL     1      -0.729  13.308  22.764  0.00  0.00    +0.000 A 
ATOM     22  C   UNL     1      -1.386  14.327  23.457  0.00  0.00    +0.000 A 
ATOM     23  C   UNL     1      -2.652  14.101  23.997  0.00  0.00    +0.000 A 
ATOM     24  C   UNL     1      -3.268  12.863  23.831  0.00  0.00    +0.000 A 
ATOM     25  C   UNL     1      -2.632  11.857  23.102  0.00  0.00    +0.000 A 
ENDBRANCH   6  20
TORSDOF 4
ENDMDL
MODEL 4
REMARK VINA RESULT:      -7.0      0.981      2.284
REMARK  Name = 
REMARK  6 active torsions:
REMARK  status: ('A' for Active; 'I' for Inactive)
REMARK    1  A    between atoms: C_1  and  O_2
REMARK    2  A    between atoms: O_2  and  C_3
REMARK    3  A    between atoms: C_6  and  C_7
REMARK    4  A    between atoms: N_12  and  C_13
REMARK    5  A    between atoms: C_22  and  O_23
REMARK    6  A    between atoms: O_23  and  C_24
REMARK                            x       y       z     vdW  Elec       q    Type
REMARK                         _______ _______ _______ _____ _____    ______ ____
ROOT
ATOM      1  C   UNL     1       2.929   7.361  17.860  0.00  0.00    +0.000 C 
ATOM      2  C   UNL     1       2.205   8.105  18.697  0.00  0.00    +0.000 C 
ATOM      3  N   UNL     1       1.749   7.762  19.934  0.00  0.00    +0.000 N 
ATOM      4  C   UNL     1       1.064   8.829  20.502  0.00  0.00    +0.000 C 
ATOM      5  S   UNL     1       0.329   8.693  21.987  0.00  0.00    +0.000 S 
ATOM      6  N   UNL     1       1.083   9.880  19.582  0.00  0.00    +0.000 N 
ATOM      7  C   UNL     1       1.742   9.503  18.419  0.00  0.00    +0.000 C 
ATOM      8  O   UNL     1       1.959  10.122  17.393  0.00  0.00    +0.000 OA
ATOM      9  H   UNL     1       1.884   6.863  20.380  0.00  0.00    +0.000 HD
ENDROOT
BRANCH   1  13
ATOM     10  C   UNL     1       4.018   3.340  18.785  0.00  0.00    +0.000 A 
ATOM     11  C   UNL     1       4.946   4.386  18.903  0.00  0.00    +0.000 A 
ATOM     12  C   UNL     1       4.588   5.697  18.589  0.00  0.00    +0.000 A 
ATOM     13  C   UNL     1       3.309   5.974  18.115  0.00  0.00    +0.000 A 
ATOM     14  C   UNL     1       2.415   4.921  17.899  0.00  0.00    +0.000 A 
ATOM     15  C   UNL     1       2.757   3.597  18.226  0.00  0.00    +0.000 A 
BRANCH  10  17
ATOM     16  C   UNL     1       4.449   1.877  20.591  0.00  0.00    +0.000 C 
ATOM     17  O   UNL     1       4.349   2.070  19.185  0.00  0.00    +0.000 OA
ENDBRANCH  10  17
BRANCH  15  18
ATOM     18  O   UNL     1       1.741   2.721  17.954  0.00  0.00    +0.000 OA
ATOM     19  C   UNL     1       0.738   2.500  18.935  0.00  0.00    +0.000 C 
ENDBRANCH  15  18
ENDBRANCH   1  13
BRANCH   6  20
ATOM     20  C   UNL     1       0.554  11.173  19.768  0.00  0.00    +0.000 A 
ATOM     21  C   UNL     1      -0.785  11.439  19.456  0.00  0.00    +0.000 A 
ATOM     22  C   UNL     1      -1.311  12.718  19.651  0.00  0.00    +0.000 A 
ATOM     23  C   UNL     1      -0.490  13.749  20.105  0.00  0.00    +0.000 A 
ATOM     24  C   UNL     1       0.853  13.501  20.380  0.00  0.00    +0.000 A 
ATOM     25  C   UNL     1       1.370  12.213  20.228  0.00  0.00    +0.000 A 
ENDBRANCH   6  20
TORSDOF 4
ENDMDL
MODEL 5
REMARK VINA RESULT:      -7.0      0.968      1.995
REMARK  Name = 
REMARK  6 active torsions:
REMARK  status: ('A' for Active; 'I' for Inactive)
REMARK    1  A    between atoms: C_1  and  O_2
REMARK    2  A    between atoms: O_2  and  C_3
REMARK    3  A    between atoms: C_6  and  C_7
REMARK    4  A    between atoms: N_12  and  C_13
REMARK    5  A    between atoms: C_22  and  O_23
REMARK    6  A    between atoms: O_23  and  C_24
REMARK                            x       y       z     vdW  Elec       q    Type
REMARK                         _______ _______ _______ _____ _____    ______ ____
ROOT
ATOM      1  C   UNL     1       3.004   7.342  17.912  0.00  0.00    +0.000 C 
ATOM      2  C   UNL     1       2.245   8.076  18.727  0.00  0.00    +0.000 C 
ATOM      3  N   UNL     1       1.834   7.764  19.988  0.00  0.00    +0.000 N 
ATOM      4  C   UNL     1       1.088   8.809  20.518  0.00  0.00    +0.000 C 
ATOM      5  S   UNL     1       0.389   8.697  22.022  0.00  0.00    +0.000 S 
ATOM      6  N   UNL     1       1.023   9.814  19.550  0.00  0.00    +0.000 N 
ATOM      7  C   UNL     1       1.686   9.425  18.393  0.00  0.00    +0.000 C 
ATOM      8  O   UNL     1       1.845  10.007  17.335  0.00  0.00    +0.000 OA
ATOM      9  H   UNL     1       2.036   6.898  20.472  0.00  0.00    +0.000 HD
ENDROOT
BRANCH   1  13
ATOM     10  C   UNL     1       4.357   3.444  19.002  0.00  0.00    +0.000 A 
ATOM     11  C   UNL     1       5.185   4.567  19.157  0.00  0.00    +0.000 A 
ATOM     12  C   UNL     1       4.741   5.838  18.789  0.00  0.00    +0.000 A 
ATOM     13  C   UNL     1       3.479   5.996  18.224  0.00  0.00    +0.000 A 
ATOM     14  C   UNL     1       2.693   4.868  17.973  0.00  0.00    +0.000 A 
ATOM     15  C   UNL     1       3.121   3.584  18.354  0.00  0.00    +0.000 A 
BRANCH  10  17
ATOM     16  C   UNL     1       4.413   1.907  20.797  0.00  0.00    +0.000 C 
ATOM     17  O   UNL     1       4.764   2.214  19.453  0.00  0.00    +0.000 OA
ENDBRANCH  10  17
BRANCH  15  18
ATOM     18  O   UNL     1       2.202   2.620  18.035  0.00  0.00    +0.000 OA
ATOM     19  C   UNL     1       1.034   2.487  18.832  0.00  0.00    +0.000 C 
ENDBRANCH  15  18
ENDBRANCH   1  13
BRANCH   6  20
ATOM     20  C   UNL     1       0.412  11.076  19.684  0.00  0.00    +0.000 A 
ATOM     21  C   UNL     1       1.108  12.136  20.281  0.00  0.00    +0.000 A 
ATOM     22  C   UNL     1       0.506  13.391  20.404  0.00  0.00    +0.000 A 
ATOM     23  C   UNL     1      -0.810  13.579  19.982  0.00  0.00    +0.000 A 
ATOM     24  C   UNL     1      -1.520  12.519  19.422  0.00  0.00    +0.000 A 
ATOM     25  C   UNL     1      -0.906  11.276  19.259  0.00  0.00    +0.000 A 
ENDBRANCH   6  20
TORSDOF 4
ENDMDL
MODEL 6
REMARK VINA RESULT:      -6.9      2.701      3.700
REMARK  Name = 
REMARK  6 active torsions:
REMARK  status: ('A' for Active; 'I' for Inactive)
REMARK    1  A    between atoms: C_1  and  O_2
REMARK    2  A    between atoms: O_2  and  C_3
REMARK    3  A    between atoms: C_6  and  C_7
REMARK    4  A    between atoms: N_12  and  C_13
REMARK    5  A    between atoms: C_22  and  O_23
REMARK    6  A    between atoms: O_23  and  C_24
REMARK                            x       y       z     vdW  Elec       q    Type
REMARK                         _______ _______ _______ _____ _____    ______ ____
ROOT
ATOM      1  C   UNL     1       1.513   7.766  21.279  0.00  0.00    +0.000 C 
ATOM      2  C   UNL     1       0.784   8.869  21.102  0.00  0.00    +0.000 C 
ATOM      3  N   UNL     1       0.192   9.299  19.952  0.00  0.00    +0.000 N 
ATOM      4  C   UNL     1      -0.510  10.474  20.190  0.00  0.00    +0.000 C 
ATOM      5  S   UNL     1      -1.285  11.282  18.961  0.00  0.00    +0.000 S 
ATOM      6  N   UNL     1      -0.347  10.798  21.538  0.00  0.00    +0.000 N 
ATOM      7  C   UNL     1       0.472   9.871  22.170  0.00  0.00    +0.000 C 
ATOM      8  O   UNL     1       0.857   9.808  23.324  0.00  0.00    +0.000 OA
ATOM      9  H   UNL     1       0.253   8.837  19.053  0.00  0.00    +0.000 HD
ENDROOT
BRANCH   1  13
ATOM     10  C   UNL     1       2.731   5.059  18.214  0.00  0.00    +0.000 A 
ATOM     11  C   UNL     1       2.946   6.440  18.086  0.00  0.00    +0.000 A 
ATOM     12  C   UNL     1       2.536   7.321  19.087  0.00  0.00    +0.000 A 
ATOM     13  C   UNL     1       1.870   6.838  20.209  0.00  0.00    +0.000 A 
ATOM     14  C   UNL     1       1.564   5.477  20.292  0.00  0.00    +0.000 A 
ATOM     15  C   UNL     1       1.985   4.575  19.299  0.00  0.00    +0.000 A 
BRANCH  10  17
ATOM     16  C   UNL     1       4.579   4.390  16.901  0.00  0.00    +0.000 C 
ATOM     17  O   UNL     1       3.221   4.190  17.272  0.00  0.00    +0.000 OA
ENDBRANCH  10  17
BRANCH  15  18
ATOM     18  O   UNL     1       1.599   3.290  19.575  0.00  0.00    +0.000 OA
ATOM     19  C   UNL     1       1.318   2.926  20.918  0.00  0.00    +0.000 C 
ENDBRANCH  15  18
ENDBRANCH   1  13
BRANCH   6  20
ATOM     20  C   UNL     1      -0.934  11.881  22.223  0.00  0.00    +0.000 A 
ATOM     21  C   UNL     1      -2.133  11.705  22.924  0.00  0.00    +0.000 A 
ATOM     22  C   UNL     1      -2.709  12.777  23.612  0.00  0.00    +0.000 A 
ATOM     23  C   UNL     1      -2.118  14.039  23.559  0.00  0.00    +0.000 A 
ATOM     24  C   UNL     1      -0.945  14.229  22.832  0.00  0.00    +0.000 A 
ATOM     25  C   UNL     1      -0.345  13.151  22.179  0.00  0.00    +0.000 A 
ENDBRANCH   6  20
TORSDOF 4
ENDMDL
MODEL 7
REMARK VINA RESULT:      -6.7      2.526      2.972
REMARK  Name = 
REMARK  6 active torsions:
REMARK  status: ('A' for Active; 'I' for Inactive)
REMARK    1  A    between atoms: C_1  and  O_2
REMARK    2  A    between atoms: O_2  and  C_3
REMARK    3  A    between atoms: C_6  and  C_7
REMARK    4  A    between atoms: N_12  and  C_13
REMARK    5  A    between atoms: C_22  and  O_23
REMARK    6  A    between atoms: O_23  and  C_24
REMARK                            x       y       z     vdW  Elec       q    Type
REMARK                         _______ _______ _______ _____ _____    ______ ____
ROOT
ATOM      1  C   UNL     1       1.643   7.377  21.298  0.00  0.00    +0.000 C 
ATOM      2  C   UNL     1       1.021   8.527  21.035  0.00  0.00    +0.000 C 
ATOM      3  N   UNL     1       0.420   8.900  19.870  0.00  0.00    +0.000 N 
ATOM      4  C   UNL     1      -0.147  10.161  20.010  0.00  0.00    +0.000 C 
ATOM      5  S   UNL     1      -0.896  10.918  18.733  0.00  0.00    +0.000 S 
ATOM      6  N   UNL     1       0.114  10.600  21.309  0.00  0.00    +0.000 N 
ATOM      7  C   UNL     1       0.865   9.659  22.003  0.00  0.00    +0.000 C 
ATOM      8  O   UNL     1       1.298   9.672  23.142  0.00  0.00    +0.000 OA
ATOM      9  H   UNL     1       0.390   8.347  19.023  0.00  0.00    +0.000 HD
ENDROOT
BRANCH   1  13
ATOM     10  C   UNL     1       2.087   4.310  18.365  0.00  0.00    +0.000 A 
ATOM     11  C   UNL     1       1.311   4.103  19.516  0.00  0.00    +0.000 A 
ATOM     12  C   UNL     1       1.178   5.107  20.477  0.00  0.00    +0.000 A 
ATOM     13  C   UNL     1       1.852   6.314  20.319  0.00  0.00    +0.000 A 
ATOM     14  C   UNL     1       2.707   6.485  19.226  0.00  0.00    +0.000 A 
ATOM     15  C   UNL     1       2.837   5.489  18.242  0.00  0.00    +0.000 A 
BRANCH  10  17
ATOM     16  C   UNL     1       2.813   2.153  17.727  0.00  0.00    +0.000 C 
ATOM     17  O   UNL     1       2.137   3.356  17.381  0.00  0.00    +0.000 OA
ENDBRANCH  10  17
BRANCH  15  18
ATOM     18  O   UNL     1       3.708   5.858  17.251  0.00  0.00    +0.000 OA
ATOM     19  C   UNL     1       5.043   5.374  17.289  0.00  0.00    +0.000 C 
ENDBRANCH  15  18
ENDBRANCH   1  13
BRANCH   6  20
ATOM     20  C   UNL     1      -0.326  11.801  21.899  0.00  0.00    +0.000 A 
ATOM     21  C   UNL     1      -1.428  11.801  22.762  0.00  0.00    +0.000 A 
ATOM     22  C   UNL     1      -1.857  12.991  23.354  0.00  0.00    +0.000 A 
ATOM     23  C   UNL     1      -1.221  14.194  23.046  0.00  0.00    +0.000 A 
ATOM     24  C   UNL     1      -0.148  14.206  22.159  0.00  0.00    +0.000 A 
ATOM     25  C   UNL     1       0.310  13.012  21.599  0.00  0.00    +0.000 A 
ENDBRANCH   6  20
TORSDOF 4
ENDMDL
MODEL 8
REMARK VINA RESULT:      -6.7      2.728      3.168
REMARK  Name = 
REMARK  6 active torsions:
REMARK  status: ('A' for Active; 'I' for Inactive)
REMARK    1  A    between atoms: C_1  and  O_2
REMARK    2  A    between atoms: O_2  and  C_3
REMARK    3  A    between atoms: C_6  and  C_7
REMARK    4  A    between atoms: N_12  and  C_13
REMARK    5  A    between atoms: C_22  and  O_23
REMARK    6  A    between atoms: O_23  and  C_24
REMARK                            x       y       z     vdW  Elec       q    Type
REMARK                         _______ _______ _______ _____ _____    ______ ____
ROOT
ATOM      1  C   UNL     1       1.401   7.650  21.432  0.00  0.00    +0.000 C 
ATOM      2  C   UNL     1       0.756   8.793  21.195  0.00  0.00    +0.000 C 
ATOM      3  N   UNL     1       0.301   9.259  19.998  0.00  0.00    +0.000 N 
ATOM      4  C   UNL     1      -0.352  10.472  20.177  0.00  0.00    +0.000 C 
ATOM      5  S   UNL     1      -0.960  11.325  18.886  0.00  0.00    +0.000 S 
ATOM      6  N   UNL     1      -0.299  10.783  21.537  0.00  0.00    +0.000 N 
ATOM      7  C   UNL     1       0.402   9.809  22.237  0.00  0.00    +0.000 C 
ATOM      8  O   UNL     1       0.671   9.721  23.421  0.00  0.00    +0.000 OA
ATOM      9  H   UNL     1       0.420   8.796  19.105  0.00  0.00    +0.000 HD
ENDROOT
BRANCH   1  13
ATOM     10  C   UNL     1       2.409   4.901  18.328  0.00  0.00    +0.000 A 
ATOM     11  C   UNL     1       1.691   4.483  19.459  0.00  0.00    +0.000 A 
ATOM     12  C   UNL     1       1.373   5.384  20.476  0.00  0.00    +0.000 A 
ATOM     13  C   UNL     1       1.804   6.705  20.394  0.00  0.00    +0.000 A 
ATOM     14  C   UNL     1       2.607   7.099  19.320  0.00  0.00    +0.000 A 
ATOM     15  C   UNL     1       2.921   6.206  18.280  0.00  0.00    +0.000 A 
BRANCH  10  17
ATOM     16  C   UNL     1       2.628   2.652  17.633  0.00  0.00    +0.000 C 
ATOM     17  O   UNL     1       2.636   4.033  17.290  0.00  0.00    +0.000 OA
ENDBRANCH  10  17
BRANCH  15  18
ATOM     18  O   UNL     1       3.702   6.791  17.319  0.00  0.00    +0.000 OA
ATOM     19  C   UNL     1       5.107   6.588  17.352  0.00  0.00    +0.000 C 
ENDBRANCH  15  18
ENDBRANCH   1  13
BRANCH   6  20
ATOM     20  C   UNL     1      -0.886  11.896  22.171  0.00  0.00    +0.000 A 
ATOM     21  C   UNL     1      -0.264  13.150  22.114  0.00  0.00    +0.000 A 
ATOM     22  C   UNL     1      -0.851  14.255  22.734  0.00  0.00    +0.000 A 
ATOM     23  C   UNL     1      -2.034  14.103  23.458  0.00  0.00    +0.000 A 
ATOM     24  C   UNL     1      -2.637  12.851  23.551  0.00  0.00    +0.000 A 
ATOM     25  C   UNL     1      -2.075  11.754  22.897  0.00  0.00    +0.000 A 
ENDBRANCH   6  20
TORSDOF 4
ENDMDL
MODEL 9
REMARK VINA RESULT:      -6.6      2.128      2.390
REMARK  Name = 
REMARK  6 active torsions:
REMARK  status: ('A' for Active; 'I' for Inactive)
REMARK    1  A    between atoms: C_1  and  O_2
REMARK    2  A    between atoms: O_2  and  C_3
REMARK    3  A    between atoms: C_6  and  C_7
REMARK    4  A    between atoms: N_12  and  C_13
REMARK    5  A    between atoms: C_22  and  O_23
REMARK    6  A    between atoms: O_23  and  C_24
REMARK                            x       y       z     vdW  Elec       q    Type
REMARK                         _______ _______ _______ _____ _____    ______ ____
ROOT
ATOM      1  C   UNL     1       2.323   7.867  18.369  0.00  0.00    +0.000 C 
ATOM      2  C   UNL     1       1.755   8.934  18.932  0.00  0.00    +0.000 C 
ATOM      3  N   UNL     1       1.022   8.978  20.080  0.00  0.00    +0.000 N 
ATOM      4  C   UNL     1       0.638  10.286  20.349  0.00  0.00    +0.000 C 
ATOM      5  S   UNL     1      -0.328  10.653  21.651  0.00  0.00    +0.000 S 
ATOM      6  N   UNL     1       1.143  11.093  19.327  0.00  0.00    +0.000 N 
ATOM      7  C   UNL     1       1.821  10.328  18.387  0.00  0.00    +0.000 C 
ATOM      8  O   UNL     1       2.388  10.652  17.359  0.00  0.00    +0.000 OA
ATOM      9  H   UNL     1       0.786   8.180  20.655  0.00  0.00    +0.000 HD
ENDROOT
BRANCH   1  13
ATOM     10  C   UNL     1       1.748   3.918  19.882  0.00  0.00    +0.000 A 
ATOM     11  C   UNL     1       1.956   5.002  20.749  0.00  0.00    +0.000 A 
ATOM     12  C   UNL     1       2.154   6.289  20.248  0.00  0.00    +0.000 A 
ATOM     13  C   UNL     1       2.187   6.503  18.874  0.00  0.00    +0.000 A 
ATOM     14  C   UNL     1       2.083   5.411  18.007  0.00  0.00    +0.000 A 
ATOM     15  C   UNL     1       1.867   4.111  18.497  0.00  0.00    +0.000 A 
BRANCH  10  17
ATOM     16  C   UNL     1       1.563   2.543  21.795  0.00  0.00    +0.000 C 
ATOM     17  O   UNL     1       1.461   2.674  20.382  0.00  0.00    +0.000 OA
ENDBRANCH  10  17
BRANCH  15  18
ATOM     18  O   UNL     1       1.779   3.190  17.488  0.00  0.00    +0.000 OA
ATOM     19  C   UNL     1       2.762   2.170  17.395  0.00  0.00    +0.000 C 
ENDBRANCH  15  18
ENDBRANCH   1  13
BRANCH   6  20
ATOM     20  C   UNL     1       1.040  12.495  19.230  0.00  0.00    +0.000 A 
ATOM     21  C   UNL     1       2.085  13.312  19.678  0.00  0.00    +0.000 A 
ATOM     22  C   UNL     1       1.986  14.702  19.572  0.00  0.00    +0.000 A 
ATOM     23  C   UNL     1       0.823  15.283  19.067  0.00  0.00    +0.000 A 
ATOM     24  C   UNL     1      -0.235  14.477  18.655  0.00  0.00    +0.000 A 
ATOM     25  C   UNL     1      -0.122  13.087  18.720  0.00  0.00    +0.000 A 
ENDBRANCH   6  20
TORSDOF 4
ENDMDL
