MODEL 1
REMARK VINA RESULT:      -6.9      0.000      0.000
REMARK  Name = 
REMARK  14 active torsions:
REMARK  status: ('A' for Active; 'I' for Inactive)
REMARK    1  A    between atoms: C_2  and  C_3
REMARK    2  A    between atoms: C_3  and  C_12
REMARK    3  A    between atoms: C_4  and  C_5
REMARK    4  A    between atoms: C_8  and  O_9
REMARK    5  A    between atoms: N_14  and  C_15
REMARK    6  A    between atoms: C_15  and  C_16
REMARK    7  A    between atoms: C_16  and  C_17
REMARK    8  A    between atoms: C_17  and  C_18
REMARK    9  A    between atoms: C_18  and  C_19
REMARK   10  A    between atoms: C_19  and  N_20
REMARK   11  A    between atoms: C_21  and  C_23
REMARK   12  A    between atoms: C_23  and  C_24
REMARK   13  A    between atoms: C_26  and  C_27
REMARK   14  A    between atoms: C_30  and  O_31
REMARK                            x       y       z     vdW  Elec       q    Type
REMARK                         _______ _______ _______ _____ _____    ______ ____
ROOT
ATOM      1  C   UNL     1       9.124  10.778  19.103  0.00  0.00    +0.000 C 
ENDROOT
BRANCH   1   2
ATOM      2  C   UNL     1      10.164  11.448  18.180  0.00  0.00    +0.000 C 
BRANCH   2   3
ATOM      3  C   UNL     1       9.908  12.955  17.994  0.00  0.00    +0.000 C 
BRANCH   3   6
ATOM      4  C   UNL     1       8.103  14.665  18.417  0.00  0.00    +0.000 C 
ATOM      5  O   UNL     1       8.877  15.620  18.312  0.00  0.00    +0.000 OA
ATOM      6  N   UNL     1       8.518  13.337  18.277  0.00  0.00    +0.000 N 
ATOM      7  H   UNL     1       7.849  12.575  18.343  0.00  0.00    +0.000 HD
BRANCH   4   8
ATOM      8  C   UNL     1       6.602  14.876  18.717  0.00  0.00    +0.000 C 
ATOM      9  C   UNL     1       5.693  14.698  17.723  0.00  0.00    +0.000 C 
BRANCH   9  10
ATOM     10  C   UNL     1       4.242  14.893  17.956  0.00  0.00    +0.000 A 
ATOM     11  C   UNL     1       3.660  16.168  17.866  0.00  0.00    +0.000 A 
ATOM     12  C   UNL     1       2.349  16.385  18.297  0.00  0.00    +0.000 A 
ATOM     13  C   UNL     1       1.598  15.314  18.764  0.00  0.00    +0.000 A 
ATOM     14  C   UNL     1       2.130  14.030  18.781  0.00  0.00    +0.000 A 
ATOM     15  C   UNL     1       3.455  13.818  18.388  0.00  0.00    +0.000 A 
BRANCH  13  16
ATOM     16  O   UNL     1       0.330  15.493  19.230  0.00  0.00    +0.000 OA
ATOM     17  H   UNL     1      -0.032  14.624  19.473  0.00  0.00    +0.000 HD
ENDBRANCH  13  16
ENDBRANCH   9  10
BRANCH   8  19
ATOM     18  N   UNL     1       5.836  15.556  21.124  0.00  0.00    +0.000 NA
ATOM     19  C   UNL     1       6.179  15.259  20.067  0.00  0.00    +0.000 C 
ENDBRANCH   8  19
ENDBRANCH   4   8
ENDBRANCH   3   6
ENDBRANCH   2   3
ENDBRANCH   1   2
BRANCH   1  20
ATOM     20  C   UNL     1       8.941   9.271  18.817  0.00  0.00    +0.000 C 
BRANCH  20  21
ATOM     21  C   UNL     1       8.057   9.006  17.584  0.00  0.00    +0.000 C 
BRANCH  21  22
ATOM     22  N   UNL     1       6.924   8.124  17.864  0.00  0.00    +0.000 N 
ATOM     23  C   UNL     1       6.826   6.880  17.269  0.00  0.00    +0.000 C 
ATOM     24  O   UNL     1       7.684   6.462  16.493  0.00  0.00    +0.000 OA
ATOM     25  H   UNL     1       6.205   8.464  18.492  0.00  0.00    +0.000 HD
BRANCH  23  26
ATOM     26  C   UNL     1       5.619   6.047  17.592  0.00  0.00    +0.000 C 
ATOM     27  C   UNL     1       5.718   4.701  17.677  0.00  0.00    +0.000 C 
BRANCH  27  28
ATOM     28  C   UNL     1       4.581   3.800  17.969  0.00  0.00    +0.000 A 
ATOM     29  C   UNL     1       3.607   3.515  16.997  0.00  0.00    +0.000 A 
ATOM     30  C   UNL     1       2.463   2.773  17.321  0.00  0.00    +0.000 A 
ATOM     31  C   UNL     1       2.317   2.273  18.608  0.00  0.00    +0.000 A 
ATOM     32  C   UNL     1       3.299   2.492  19.567  0.00  0.00    +0.000 A 
ATOM     33  C   UNL     1       4.426   3.263  19.252  0.00  0.00    +0.000 A 
BRANCH  31  34
ATOM     34  O   UNL     1       1.211   1.561  18.967  0.00  0.00    +0.000 OA
ATOM     35  H   UNL     1       1.399   0.616  18.843  0.00  0.00    +0.000 HD
ENDBRANCH  31  34
ENDBRANCH  27  28
BRANCH  26  36
ATOM     36  C   UNL     1       4.260   6.693  17.805  0.00  0.00    +0.000 C 
ATOM     37  N   UNL     1       3.133   7.230  17.983  0.00  0.00    +0.000 NA
ENDBRANCH  26  36
ENDBRANCH  23  26
ENDBRANCH  21  22
ENDBRANCH  20  21
ENDBRANCH   1  20
TORSDOF 14
ENDMDL
MODEL 2
REMARK VINA RESULT:      -6.8      3.964     10.230
REMARK  Name = 
REMARK  14 active torsions:
REMARK  status: ('A' for Active; 'I' for Inactive)
REMARK    1  A    between atoms: C_2  and  C_3
REMARK    2  A    between atoms: C_3  and  C_12
REMARK    3  A    between atoms: C_4  and  C_5
REMARK    4  A    between atoms: C_8  and  O_9
REMARK    5  A    between atoms: N_14  and  C_15
REMARK    6  A    between atoms: C_15  and  C_16
REMARK    7  A    between atoms: C_16  and  C_17
REMARK    8  A    between atoms: C_17  and  C_18
REMARK    9  A    between atoms: C_18  and  C_19
REMARK   10  A    between atoms: C_19  and  N_20
REMARK   11  A    between atoms: C_21  and  C_23
REMARK   12  A    between atoms: C_23  and  C_24
REMARK   13  A    between atoms: C_26  and  C_27
REMARK   14  A    between atoms: C_30  and  O_31
REMARK                            x       y       z     vdW  Elec       q    Type
REMARK                         _______ _______ _______ _____ _____    ______ ____
ROOT
ATOM      1  C   UNL     1       8.403  10.489  18.222  0.00  0.00    +0.000 C 
ENDROOT
BRANCH   1   2
ATOM      2  C   UNL     1       8.399   9.135  17.481  0.00  0.00    +0.000 C 
BRANCH   2   3
ATOM      3  C   UNL     1       8.363   7.932  18.442  0.00  0.00    +0.000 C 
BRANCH   3   6
ATOM      4  C   UNL     1       7.282   5.655  18.520  0.00  0.00    +0.000 C 
ATOM      5  O   UNL     1       8.232   5.141  19.115  0.00  0.00    +0.000 OA
ATOM      6  N   UNL     1       7.261   7.005  18.155  0.00  0.00    +0.000 N 
ATOM      7  H   UNL     1       6.450   7.403  17.688  0.00  0.00    +0.000 HD
BRANCH   4   8
ATOM      8  C   UNL     1       6.034   4.830  18.131  0.00  0.00    +0.000 C 
ATOM      9  C   UNL     1       5.016   4.705  19.021  0.00  0.00    +0.000 C 
BRANCH   9  10
ATOM     10  C   UNL     1       3.799   3.920  18.700  0.00  0.00    +0.000 A 
ATOM     11  C   UNL     1       2.687   4.526  18.093  0.00  0.00    +0.000 A 
ATOM     12  C   UNL     1       1.471   3.845  17.992  0.00  0.00    +0.000 A 
ATOM     13  C   UNL     1       1.382   2.536  18.446  0.00  0.00    +0.000 A 
ATOM     14  C   UNL     1       2.496   1.892  18.974  0.00  0.00    +0.000 A 
ATOM     15  C   UNL     1       3.702   2.585  19.112  0.00  0.00    +0.000 A 
BRANCH  13  16
ATOM     16  O   UNL     1       0.204   1.853  18.402  0.00  0.00    +0.000 OA
ATOM     17  H   UNL     1       0.326   1.066  17.845  0.00  0.00    +0.000 HD
ENDBRANCH  13  16
ENDBRANCH   9  10
BRANCH   8  19
ATOM     18  N   UNL     1       5.900   3.708  15.771  0.00  0.00    +0.000 NA
ATOM     19  C   UNL     1       5.965   4.199  16.810  0.00  0.00    +0.000 C 
ENDBRANCH   8  19
ENDBRANCH   4   8
ENDBRANCH   3   6
ENDBRANCH   2   3
ENDBRANCH   1   2
BRANCH   1  20
ATOM     20  C   UNL     1       9.787  11.175  18.223  0.00  0.00    +0.000 C 
BRANCH  20  21
ATOM     21  C   UNL     1       9.713  12.655  18.643  0.00  0.00    +0.000 C 
BRANCH  21  22
ATOM     22  N   UNL     1       8.920  12.872  19.854  0.00  0.00    +0.000 N 
ATOM     23  C   UNL     1       9.398  12.494  21.094  0.00  0.00    +0.000 C 
ATOM     24  O   UNL     1      10.504  11.974  21.234  0.00  0.00    +0.000 OA
ATOM     25  H   UNL     1       8.001  13.288  19.748  0.00  0.00    +0.000 HD
BRANCH  23  26
ATOM     26  C   UNL     1       8.511  12.730  22.283  0.00  0.00    +0.000 C 
ATOM     27  C   UNL     1       8.545  11.887  23.342  0.00  0.00    +0.000 C 
BRANCH  27  28
ATOM     28  C   UNL     1       7.694  12.028  24.544  0.00  0.00    +0.000 A 
ATOM     29  C   UNL     1       8.131  12.750  25.667  0.00  0.00    +0.000 A 
ATOM     30  C   UNL     1       7.380  12.764  26.850  0.00  0.00    +0.000 A 
ATOM     31  C   UNL     1       6.165  12.093  26.894  0.00  0.00    +0.000 A 
ATOM     32  C   UNL     1       5.686  11.424  25.773  0.00  0.00    +0.000 A 
ATOM     33  C   UNL     1       6.454  11.382  24.602  0.00  0.00    +0.000 A 
BRANCH  31  34
ATOM     34  O   UNL     1       5.413  12.069  28.031  0.00  0.00    +0.000 OA
ATOM     35  H   UNL     1       5.079  11.165  28.161  0.00  0.00    +0.000 HD
ENDBRANCH  31  34
ENDBRANCH  27  28
BRANCH  26  36
ATOM     36  C   UNL     1       7.543  13.900  22.314  0.00  0.00    +0.000 C 
ATOM     37  N   UNL     1       6.739  14.871  22.339  0.00  0.00    +0.000 NA
ENDBRANCH  26  36
ENDBRANCH  23  26
ENDBRANCH  21  22
ENDBRANCH  20  21
ENDBRANCH   1  20
TORSDOF 14
ENDMDL
MODEL 3
REMARK VINA RESULT:      -6.8      1.345     10.138
REMARK  Name = 
REMARK  14 active torsions:
REMARK  status: ('A' for Active; 'I' for Inactive)
REMARK    1  A    between atoms: C_2  and  C_3
REMARK    2  A    between atoms: C_3  and  C_12
REMARK    3  A    between atoms: C_4  and  C_5
REMARK    4  A    between atoms: C_8  and  O_9
REMARK    5  A    between atoms: N_14  and  C_15
REMARK    6  A    between atoms: C_15  and  C_16
REMARK    7  A    between atoms: C_16  and  C_17
REMARK    8  A    between atoms: C_17  and  C_18
REMARK    9  A    between atoms: C_18  and  C_19
REMARK   10  A    between atoms: C_19  and  N_20
REMARK   11  A    between atoms: C_21  and  C_23
REMARK   12  A    between atoms: C_23  and  C_24
REMARK   13  A    between atoms: C_26  and  C_27
REMARK   14  A    between atoms: C_30  and  O_31
REMARK                            x       y       z     vdW  Elec       q    Type
REMARK                         _______ _______ _______ _____ _____    ______ ____
ROOT
ATOM      1  C   UNL     1       8.883  10.211  19.181  0.00  0.00    +0.000 C 
ENDROOT
BRANCH   1   2
ATOM      2  C   UNL     1       8.305   9.214  18.153  0.00  0.00    +0.000 C 
BRANCH   2   3
ATOM      3  C   UNL     1       8.517   7.746  18.565  0.00  0.00    +0.000 C 
BRANCH   3   6
ATOM      4  C   UNL     1       7.090   6.345  17.028  0.00  0.00    +0.000 C 
ATOM      5  O   UNL     1       7.827   6.525  16.056  0.00  0.00    +0.000 OA
ATOM      6  N   UNL     1       7.349   6.901  18.285  0.00  0.00    +0.000 N 
ATOM      7  H   UNL     1       6.734   6.711  19.073  0.00  0.00    +0.000 HD
BRANCH   4   8
ATOM      8  C   UNL     1       5.811   5.485  16.920  0.00  0.00    +0.000 C 
ATOM      9  C   UNL     1       5.054   5.276  18.028  0.00  0.00    +0.000 C 
BRANCH   9  10
ATOM     10  C   UNL     1       3.821   4.454  17.980  0.00  0.00    +0.000 A 
ATOM     11  C   UNL     1       2.557   5.053  17.863  0.00  0.00    +0.000 A 
ATOM     12  C   UNL     1       1.392   4.301  18.037  0.00  0.00    +0.000 A 
ATOM     13  C   UNL     1       1.490   2.936  18.272  0.00  0.00    +0.000 A 
ATOM     14  C   UNL     1       2.732   2.311  18.309  0.00  0.00    +0.000 A 
ATOM     15  C   UNL     1       3.898   3.069  18.174  0.00  0.00    +0.000 A 
BRANCH  13  16
ATOM     16  O   UNL     1       0.379   2.176  18.487  0.00  0.00    +0.000 OA
ATOM     17  H   UNL     1       0.216   1.641  17.693  0.00  0.00    +0.000 HD
ENDBRANCH  13  16
ENDBRANCH   9  10
BRANCH   8  19
ATOM     18  N   UNL     1       5.136   4.471  14.604  0.00  0.00    +0.000 NA
ATOM     19  C   UNL     1       5.431   4.911  15.626  0.00  0.00    +0.000 C 
ENDBRANCH   8  19
ENDBRANCH   4   8
ENDBRANCH   3   6
ENDBRANCH   2   3
ENDBRANCH   1   2
BRANCH   1  20
ATOM     20  C   UNL     1      10.013  11.091  18.604  0.00  0.00    +0.000 C 
BRANCH  20  21
ATOM     21  C   UNL     1       9.516  12.041  17.498  0.00  0.00    +0.000 C 
BRANCH  21  22
ATOM     22  N   UNL     1       8.274  12.732  17.846  0.00  0.00    +0.000 N 
ATOM     23  C   UNL     1       8.280  14.063  18.218  0.00  0.00    +0.000 C 
ATOM     24  O   UNL     1       9.319  14.720  18.261  0.00  0.00    +0.000 OA
ATOM     25  H   UNL     1       7.413  12.196  17.826  0.00  0.00    +0.000 HD
BRANCH  23  26
ATOM     26  C   UNL     1       6.965  14.690  18.583  0.00  0.00    +0.000 C 
ATOM     27  C   UNL     1       5.838  14.358  17.913  0.00  0.00    +0.000 C 
BRANCH  27  28
ATOM     28  C   UNL     1       4.505  14.939  18.189  0.00  0.00    +0.000 A 
ATOM     29  C   UNL     1       3.639  14.364  19.134  0.00  0.00    +0.000 A 
ATOM     30  C   UNL     1       2.329  14.837  19.290  0.00  0.00    +0.000 A 
ATOM     31  C   UNL     1       1.900  15.919  18.533  0.00  0.00    +0.000 A 
ATOM     32  C   UNL     1       2.762  16.541  17.637  0.00  0.00    +0.000 A 
ATOM     33  C   UNL     1       4.060  16.046  17.457  0.00  0.00    +0.000 A 
BRANCH  31  34
ATOM     34  O   UNL     1       0.629  16.398  18.644  0.00  0.00    +0.000 OA
ATOM     35  H   UNL     1       0.119  15.793  19.210  0.00  0.00    +0.000 HD
ENDBRANCH  31  34
ENDBRANCH  27  28
BRANCH  26  36
ATOM     36  C   UNL     1       6.876  15.724  19.693  0.00  0.00    +0.000 C 
ATOM     37  N   UNL     1       6.803  16.582  20.614  0.00  0.00    +0.000 NA
ENDBRANCH  26  36
ENDBRANCH  23  26
ENDBRANCH  21  22
ENDBRANCH  20  21
ENDBRANCH   1  20
TORSDOF 14
ENDMDL
MODEL 4
REMARK VINA RESULT:      -6.7      1.597     10.551
REMARK  Name = 
REMARK  14 active torsions:
REMARK  status: ('A' for Active; 'I' for Inactive)
REMARK    1  A    between atoms: C_2  and  C_3
REMARK    2  A    between atoms: C_3  and  C_12
REMARK    3  A    between atoms: C_4  and  C_5
REMARK    4  A    between atoms: C_8  and  O_9
REMARK    5  A    between atoms: N_14  and  C_15
REMARK    6  A    between atoms: C_15  and  C_16
REMARK    7  A    between atoms: C_16  and  C_17
REMARK    8  A    between atoms: C_17  and  C_18
REMARK    9  A    between atoms: C_18  and  C_19
REMARK   10  A    between atoms: C_19  and  N_20
REMARK   11  A    between atoms: C_21  and  C_23
REMARK   12  A    between atoms: C_23  and  C_24
REMARK   13  A    between atoms: C_26  and  C_27
REMARK   14  A    between atoms: C_30  and  O_31
REMARK                            x       y       z     vdW  Elec       q    Type
REMARK                         _______ _______ _______ _____ _____    ______ ____
ROOT
ATOM      1  C   UNL     1       9.295  10.492  18.172  0.00  0.00    +0.000 C 
ENDROOT
BRANCH   1   2
ATOM      2  C   UNL     1       8.168   9.449  18.330  0.00  0.00    +0.000 C 
BRANCH   2   3
ATOM      3  C   UNL     1       8.298   8.280  17.335  0.00  0.00    +0.000 C 
BRANCH   3   6
ATOM      4  C   UNL     1       7.114   6.213  18.165  0.00  0.00    +0.000 C 
ATOM      5  O   UNL     1       8.052   5.876  18.891  0.00  0.00    +0.000 OA
ATOM      6  N   UNL     1       7.148   7.367  17.375  0.00  0.00    +0.000 N 
ATOM      7  H   UNL     1       6.346   7.631  16.808  0.00  0.00    +0.000 HD
BRANCH   4   8
ATOM      8  C   UNL     1       5.822   5.371  18.076  0.00  0.00    +0.000 C 
ATOM      9  C   UNL     1       4.871   5.507  19.038  0.00  0.00    +0.000 C 
BRANCH   9  10
ATOM     10  C   UNL     1       3.616   4.719  19.003  0.00  0.00    +0.000 A 
ATOM     11  C   UNL     1       3.479   3.543  19.758  0.00  0.00    +0.000 A 
ATOM     12  C   UNL     1       2.390   2.690  19.559  0.00  0.00    +0.000 A 
ATOM     13  C   UNL     1       1.406   3.042  18.644  0.00  0.00    +0.000 A 
ATOM     14  C   UNL     1       1.484   4.244  17.948  0.00  0.00    +0.000 A 
ATOM     15  C   UNL     1       2.592   5.078  18.117  0.00  0.00    +0.000 A 
BRANCH  13  16
ATOM     16  O   UNL     1       0.351   2.218  18.393  0.00  0.00    +0.000 OA
ATOM     17  H   UNL     1       0.609   1.594  17.694  0.00  0.00    +0.000 HD
ENDBRANCH  13  16
ENDBRANCH   9  10
BRANCH   8  19
ATOM     18  N   UNL     1       5.483   3.707  16.086  0.00  0.00    +0.000 NA
ATOM     19  C   UNL     1       5.637   4.442  16.958  0.00  0.00    +0.000 C 
ENDBRANCH   8  19
ENDBRANCH   4   8
ENDBRANCH   3   6
ENDBRANCH   2   3
ENDBRANCH   1   2
BRANCH   1  20
ATOM     20  C   UNL     1       8.967  11.845  18.842  0.00  0.00    +0.000 C 
BRANCH  20  21
ATOM     21  C   UNL     1       8.683  12.959  17.817  0.00  0.00    +0.000 C 
BRANCH  21  22
ATOM     22  N   UNL     1       7.444  13.688  18.086  0.00  0.00    +0.000 N 
ATOM     23  C   UNL     1       7.388  15.064  17.967  0.00  0.00    +0.000 C 
ATOM     24  O   UNL     1       8.365  15.727  17.621  0.00  0.00    +0.000 OA
ATOM     25  H   UNL     1       6.636  13.153  18.384  0.00  0.00    +0.000 HD
BRANCH  23  26
ATOM     26  C   UNL     1       6.084  15.738  18.285  0.00  0.00    +0.000 C 
ATOM     27  C   UNL     1       4.916  15.210  17.853  0.00  0.00    +0.000 C 
BRANCH  27  28
ATOM     28  C   UNL     1       3.588  15.815  18.101  0.00  0.00    +0.000 A 
ATOM     29  C   UNL     1       2.753  15.348  19.130  0.00  0.00    +0.000 A 
ATOM     30  C   UNL     1       1.445  15.832  19.270  0.00  0.00    +0.000 A 
ATOM     31  C   UNL     1       0.988  16.820  18.409  0.00  0.00    +0.000 A 
ATOM     32  C   UNL     1       1.820  17.339  17.423  0.00  0.00    +0.000 A 
ATOM     33  C   UNL     1       3.115  16.830  17.261  0.00  0.00    +0.000 A 
BRANCH  31  34
ATOM     34  O   UNL     1      -0.283  17.305  18.502  0.00  0.00    +0.000 OA
ATOM     35  H   UNL     1      -0.532  17.684  17.643  0.00  0.00    +0.000 HD
ENDBRANCH  31  34
ENDBRANCH  27  28
BRANCH  26  36
ATOM     36  C   UNL     1       6.050  17.035  19.076  0.00  0.00    +0.000 C 
ATOM     37  N   UNL     1       6.021  18.112  19.731  0.00  0.00    +0.000 NA
ENDBRANCH  26  36
ENDBRANCH  23  26
ENDBRANCH  21  22
ENDBRANCH  20  21
ENDBRANCH   1  20
TORSDOF 14
ENDMDL
MODEL 5
REMARK VINA RESULT:      -6.7      1.696      1.982
REMARK  Name = 
REMARK  14 active torsions:
REMARK  status: ('A' for Active; 'I' for Inactive)
REMARK    1  A    between atoms: C_2  and  C_3
REMARK    2  A    between atoms: C_3  and  C_12
REMARK    3  A    between atoms: C_4  and  C_5
REMARK    4  A    between atoms: C_8  and  O_9
REMARK    5  A    between atoms: N_14  and  C_15
REMARK    6  A    between atoms: C_15  and  C_16
REMARK    7  A    between atoms: C_16  and  C_17
REMARK    8  A    between atoms: C_17  and  C_18
REMARK    9  A    between atoms: C_18  and  C_19
REMARK   10  A    between atoms: C_19  and  N_20
REMARK   11  A    between atoms: C_21  and  C_23
REMARK   12  A    between atoms: C_23  and  C_24
REMARK   13  A    between atoms: C_26  and  C_27
REMARK   14  A    between atoms: C_30  and  O_31
REMARK                            x       y       z     vdW  Elec       q    Type
REMARK                         _______ _______ _______ _____ _____    ______ ____
ROOT
ATOM      1  C   UNL     1       9.029  10.795  19.027  0.00  0.00    +0.000 C 
ENDROOT
BRANCH   1   2
ATOM      2  C   UNL     1      10.514  11.215  19.017  0.00  0.00    +0.000 C 
BRANCH   2   3
ATOM      3  C   UNL     1      10.744  12.564  18.310  0.00  0.00    +0.000 C 
BRANCH   3   6
ATOM      4  C   UNL     1       9.417  14.604  18.971  0.00  0.00    +0.000 C 
ATOM      5  O   UNL     1      10.320  15.056  19.677  0.00  0.00    +0.000 OA
ATOM      6  N   UNL     1       9.537  13.400  18.270  0.00  0.00    +0.000 N 
ATOM      7  H   UNL     1       8.782  13.069  17.674  0.00  0.00    +0.000 HD
BRANCH   4   8
ATOM      8  C   UNL     1       8.071  15.347  18.811  0.00  0.00    +0.000 C 
ATOM      9  C   UNL     1       6.910  14.662  18.977  0.00  0.00    +0.000 C 
BRANCH   9  10
ATOM     10  C   UNL     1       5.592  15.326  18.830  0.00  0.00    +0.000 A 
ATOM     11  C   UNL     1       5.035  16.070  19.883  0.00  0.00    +0.000 A 
ATOM     12  C   UNL     1       3.709  16.507  19.824  0.00  0.00    +0.000 A 
ATOM     13  C   UNL     1       2.956  16.251  18.686  0.00  0.00    +0.000 A 
ATOM     14  C   UNL     1       3.517  15.588  17.600  0.00  0.00    +0.000 A 
ATOM     15  C   UNL     1       4.830  15.116  17.673  0.00  0.00    +0.000 A 
BRANCH  13  16
ATOM     16  O   UNL     1       1.648  16.626  18.607  0.00  0.00    +0.000 OA
ATOM     17  H   UNL     1       1.139  16.095  19.242  0.00  0.00    +0.000 HD
ENDBRANCH  13  16
ENDBRANCH   9  10
BRANCH   8  19
ATOM     18  N   UNL     1       8.074  17.899  18.234  0.00  0.00    +0.000 NA
ATOM     19  C   UNL     1       8.066  16.777  18.489  0.00  0.00    +0.000 C 
ENDBRANCH   8  19
ENDBRANCH   4   8
ENDBRANCH   3   6
ENDBRANCH   2   3
ENDBRANCH   1   2
BRANCH   1  20
ATOM     20  C   UNL     1       8.826   9.281  18.794  0.00  0.00    +0.000 C 
BRANCH  20  21
ATOM     21  C   UNL     1       7.996   8.982  17.532  0.00  0.00    +0.000 C 
BRANCH  21  22
ATOM     22  N   UNL     1       6.960   7.971  17.748  0.00  0.00    +0.000 N 
ATOM     23  C   UNL     1       6.957   6.791  17.029  0.00  0.00    +0.000 C 
ATOM     24  O   UNL     1       7.822   6.537  16.193  0.00  0.00    +0.000 OA
ATOM     25  H   UNL     1       6.234   8.176  18.426  0.00  0.00    +0.000 HD
BRANCH  23  26
ATOM     26  C   UNL     1       5.844   5.818  17.294  0.00  0.00    +0.000 C 
ATOM     27  C   UNL     1       4.898   6.093  18.221  0.00  0.00    +0.000 C 
BRANCH  27  28
ATOM     28  C   UNL     1       3.780   5.187  18.564  0.00  0.00    +0.000 A 
ATOM     29  C   UNL     1       2.558   5.240  17.873  0.00  0.00    +0.000 A 
ATOM     30  C   UNL     1       1.461   4.475  18.292  0.00  0.00    +0.000 A 
ATOM     31  C   UNL     1       1.601   3.619  19.375  0.00  0.00    +0.000 A 
ATOM     32  C   UNL     1       2.820   3.506  20.034  0.00  0.00    +0.000 A 
ATOM     33  C   UNL     1       3.907   4.296  19.637  0.00  0.00    +0.000 A 
BRANCH  31  34
ATOM     34  O   UNL     1       0.553   2.871  19.824  0.00  0.00    +0.000 OA
ATOM     35  H   UNL     1      -0.261   3.201  19.410  0.00  0.00    +0.000 HD
ENDBRANCH  31  34
ENDBRANCH  27  28
BRANCH  26  36
ATOM     36  C   UNL     1       5.770   4.496  16.548  0.00  0.00    +0.000 C 
ATOM     37  N   UNL     1       5.708   3.400  15.927  0.00  0.00    +0.000 NA
ENDBRANCH  26  36
ENDBRANCH  23  26
ENDBRANCH  21  22
ENDBRANCH  20  21
ENDBRANCH   1  20
TORSDOF 14
ENDMDL
MODEL 6
REMARK VINA RESULT:      -6.6      3.042     11.296
REMARK  Name = 
REMARK  14 active torsions:
REMARK  status: ('A' for Active; 'I' for Inactive)
REMARK    1  A    between atoms: C_2  and  C_3
REMARK    2  A    between atoms: C_3  and  C_12
REMARK    3  A    between atoms: C_4  and  C_5
REMARK    4  A    between atoms: C_8  and  O_9
REMARK    5  A    between atoms: N_14  and  C_15
REMARK    6  A    between atoms: C_15  and  C_16
REMARK    7  A    between atoms: C_16  and  C_17
REMARK    8  A    between atoms: C_17  and  C_18
REMARK    9  A    between atoms: C_18  and  C_19
REMARK   10  A    between atoms: C_19  and  N_20
REMARK   11  A    between atoms: C_21  and  C_23
REMARK   12  A    between atoms: C_23  and  C_24
REMARK   13  A    between atoms: C_26  and  C_27
REMARK   14  A    between atoms: C_30  and  O_31
REMARK                            x       y       z     vdW  Elec       q    Type
REMARK                         _______ _______ _______ _____ _____    ______ ____
ROOT
ATOM      1  C   UNL     1       0.534  10.221  20.786  0.00  0.00    +0.000 C 
ENDROOT
BRANCH   1   2
ATOM      2  C   UNL     1       0.008   8.801  21.085  0.00  0.00    +0.000 C 
BRANCH   2   3
ATOM      3  C   UNL     1       1.113   7.852  21.583  0.00  0.00    +0.000 C 
BRANCH   3   6
ATOM      4  C   UNL     1       1.899   5.899  20.193  0.00  0.00    +0.000 C 
ATOM      5  O   UNL     1       1.236   5.079  20.832  0.00  0.00    +0.000 OA
ATOM      6  N   UNL     1       1.899   7.266  20.488  0.00  0.00    +0.000 N 
ATOM      7  H   UNL     1       2.436   7.919  19.924  0.00  0.00    +0.000 HD
BRANCH   4   8
ATOM      8  C   UNL     1       2.790   5.465  19.007  0.00  0.00    +0.000 C 
ATOM      9  C   UNL     1       4.023   6.017  18.864  0.00  0.00    +0.000 C 
BRANCH   9  10
ATOM     10  C   UNL     1       4.914   5.639  17.741  0.00  0.00    +0.000 A 
ATOM     11  C   UNL     1       6.031   4.814  17.950  0.00  0.00    +0.000 A 
ATOM     12  C   UNL     1       6.986   4.638  16.945  0.00  0.00    +0.000 A 
ATOM     13  C   UNL     1       6.796   5.243  15.709  0.00  0.00    +0.000 A 
ATOM     14  C   UNL     1       5.655   5.996  15.458  0.00  0.00    +0.000 A 
ATOM     15  C   UNL     1       4.718   6.205  16.474  0.00  0.00    +0.000 A 
BRANCH  13  16
ATOM     16  O   UNL     1       7.725   5.129  14.719  0.00  0.00    +0.000 OA
ATOM     17  H   UNL     1       8.097   4.232  14.749  0.00  0.00    +0.000 HD
ENDBRANCH  13  16
ENDBRANCH   9  10
BRANCH   8  19
ATOM     18  N   UNL     1       1.898   3.674  17.320  0.00  0.00    +0.000 NA
ATOM     19  C   UNL     1       2.295   4.464  18.058  0.00  0.00    +0.000 C 
ENDBRANCH   8  19
ENDBRANCH   4   8
ENDBRANCH   3   6
ENDBRANCH   2   3
ENDBRANCH   1   2
BRANCH   1  20
ATOM     20  C   UNL     1      -0.107  10.853  19.531  0.00  0.00    +0.000 C 
BRANCH  20  21
ATOM     21  C   UNL     1      -0.249  12.383  19.645  0.00  0.00    +0.000 C 
BRANCH  21  22
ATOM     22  N   UNL     1       1.010  13.096  19.429  0.00  0.00    +0.000 N 
ATOM     23  C   UNL     1       1.025  14.363  18.878  0.00  0.00    +0.000 C 
ATOM     24  O   UNL     1      -0.011  14.945  18.558  0.00  0.00    +0.000 OA
ATOM     25  H   UNL     1       1.871  12.621  19.677  0.00  0.00    +0.000 HD
BRANCH  23  26
ATOM     26  C   UNL     1       2.361  15.016  18.667  0.00  0.00    +0.000 C 
ATOM     27  C   UNL     1       3.496  14.403  19.077  0.00  0.00    +0.000 C 
BRANCH  27  28
ATOM     28  C   UNL     1       4.851  14.978  18.931  0.00  0.00    +0.000 A 
ATOM     29  C   UNL     1       5.309  15.993  19.787  0.00  0.00    +0.000 A 
ATOM     30  C   UNL     1       6.538  16.627  19.557  0.00  0.00    +0.000 A 
ATOM     31  C   UNL     1       7.332  16.211  18.498  0.00  0.00    +0.000 A 
ATOM     32  C   UNL     1       6.924  15.166  17.676  0.00  0.00    +0.000 A 
ATOM     33  C   UNL     1       5.681  14.556  17.885  0.00  0.00    +0.000 A 
BRANCH  31  34
ATOM     34  O   UNL     1       8.526  16.813  18.232  0.00  0.00    +0.000 OA
ATOM     35  H   UNL     1       8.477  17.220  17.350  0.00  0.00    +0.000 HD
ENDBRANCH  31  34
ENDBRANCH  27  28
BRANCH  26  36
ATOM     36  C   UNL     1       2.467  16.383  18.013  0.00  0.00    +0.000 C 
ATOM     37  N   UNL     1       2.553  17.519  17.471  0.00  0.00    +0.000 NA
ENDBRANCH  26  36
ENDBRANCH  23  26
ENDBRANCH  21  22
ENDBRANCH  20  21
ENDBRANCH   1  20
TORSDOF 14
ENDMDL
MODEL 7
REMARK VINA RESULT:      -6.6      1.156     10.460
REMARK  Name = 
REMARK  14 active torsions:
REMARK  status: ('A' for Active; 'I' for Inactive)
REMARK    1  A    between atoms: C_2  and  C_3
REMARK    2  A    between atoms: C_3  and  C_12
REMARK    3  A    between atoms: C_4  and  C_5
REMARK    4  A    between atoms: C_8  and  O_9
REMARK    5  A    between atoms: N_14  and  C_15
REMARK    6  A    between atoms: C_15  and  C_16
REMARK    7  A    between atoms: C_16  and  C_17
REMARK    8  A    between atoms: C_17  and  C_18
REMARK    9  A    between atoms: C_18  and  C_19
REMARK   10  A    between atoms: C_19  and  N_20
REMARK   11  A    between atoms: C_21  and  C_23
REMARK   12  A    between atoms: C_23  and  C_24
REMARK   13  A    between atoms: C_26  and  C_27
REMARK   14  A    between atoms: C_30  and  O_31
REMARK                            x       y       z     vdW  Elec       q    Type
REMARK                         _______ _______ _______ _____ _____    ______ ____
ROOT
ATOM      1  C   UNL     1       9.384  10.550  18.027  0.00  0.00    +0.000 C 
ENDROOT
BRANCH   1   2
ATOM      2  C   UNL     1       8.073   9.752  17.856  0.00  0.00    +0.000 C 
BRANCH   2   3
ATOM      3  C   UNL     1       8.284   8.232  17.983  0.00  0.00    +0.000 C 
BRANCH   3   6
ATOM      4  C   UNL     1       6.764   6.261  17.576  0.00  0.00    +0.000 C 
ATOM      5  O   UNL     1       7.572   5.693  16.837  0.00  0.00    +0.000 OA
ATOM      6  N   UNL     1       7.027   7.496  18.176  0.00  0.00    +0.000 N 
ATOM      7  H   UNL     1       6.350   7.924  18.802  0.00  0.00    +0.000 HD
BRANCH   4   8
ATOM      8  C   UNL     1       5.386   5.636  17.892  0.00  0.00    +0.000 C 
ATOM      9  C   UNL     1       5.324   4.359  18.351  0.00  0.00    +0.000 C 
BRANCH   9  10
ATOM     10  C   UNL     1       4.028   3.711  18.663  0.00  0.00    +0.000 A 
ATOM     11  C   UNL     1       3.353   2.941  17.702  0.00  0.00    +0.000 A 
ATOM     12  C   UNL     1       2.040   2.516  17.920  0.00  0.00    +0.000 A 
ATOM     13  C   UNL     1       1.419   2.812  19.127  0.00  0.00    +0.000 A 
ATOM     14  C   UNL     1       2.101   3.502  20.124  0.00  0.00    +0.000 A 
ATOM     15  C   UNL     1       3.400   3.961  19.891  0.00  0.00    +0.000 A 
BRANCH  13  16
ATOM     16  O   UNL     1       0.127   2.451  19.362  0.00  0.00    +0.000 OA
ATOM     17  H   UNL     1       0.128   1.615  19.857  0.00  0.00    +0.000 HD
ENDBRANCH  13  16
ENDBRANCH   9  10
BRANCH   8  19
ATOM     18  N   UNL     1       3.210   7.048  17.553  0.00  0.00    +0.000 NA
ATOM     19  C   UNL     1       4.169   6.429  17.696  0.00  0.00    +0.000 C 
ENDBRANCH   8  19
ENDBRANCH   4   8
ENDBRANCH   3   6
ENDBRANCH   2   3
ENDBRANCH   1   2
BRANCH   1  20
ATOM     20  C   UNL     1       9.164  11.952  18.637  0.00  0.00    +0.000 C 
BRANCH  20  21
ATOM     21  C   UNL     1       8.911  13.030  17.567  0.00  0.00    +0.000 C 
BRANCH  21  22
ATOM     22  N   UNL     1       7.627  13.713  17.728  0.00  0.00    +0.000 N 
ATOM     23  C   UNL     1       7.566  15.018  18.180  0.00  0.00    +0.000 C 
ATOM     24  O   UNL     1       8.580  15.659  18.453  0.00  0.00    +0.000 OA
ATOM     25  H   UNL     1       6.784  13.190  17.519  0.00  0.00    +0.000 HD
BRANCH  23  26
ATOM     26  C   UNL     1       6.208  15.637  18.341  0.00  0.00    +0.000 C 
ATOM     27  C   UNL     1       5.123  15.071  17.761  0.00  0.00    +0.000 C 
BRANCH  27  28
ATOM     28  C   UNL     1       3.753  15.621  17.848  0.00  0.00    +0.000 A 
ATOM     29  C   UNL     1       3.352  16.712  17.059  0.00  0.00    +0.000 A 
ATOM     30  C   UNL     1       2.099  17.313  17.244  0.00  0.00    +0.000 A 
ATOM     31  C   UNL     1       1.226  16.789  18.188  0.00  0.00    +0.000 A 
ATOM     32  C   UNL     1       1.579  15.672  18.935  0.00  0.00    +0.000 A 
ATOM     33  C   UNL     1       2.845  15.093  18.774  0.00  0.00    +0.000 A 
BRANCH  31  34
ATOM     34  O   UNL     1       0.005  17.355  18.409  0.00  0.00    +0.000 OA
ATOM     35  H   UNL     1       0.136  18.198  18.873  0.00  0.00    +0.000 HD
ENDBRANCH  31  34
ENDBRANCH  27  28
BRANCH  26  36
ATOM     36  C   UNL     1       6.023  16.919  19.136  0.00  0.00    +0.000 C 
ATOM     37  N   UNL     1       5.871  17.983  19.794  0.00  0.00    +0.000 NA
ENDBRANCH  26  36
ENDBRANCH  23  26
ENDBRANCH  21  22
ENDBRANCH  20  21
ENDBRANCH   1  20
TORSDOF 14
ENDMDL
MODEL 8
REMARK VINA RESULT:      -6.5      5.458     11.528
REMARK  Name = 
REMARK  14 active torsions:
REMARK  status: ('A' for Active; 'I' for Inactive)
REMARK    1  A    between atoms: C_2  and  C_3
REMARK    2  A    between atoms: C_3  and  C_12
REMARK    3  A    between atoms: C_4  and  C_5
REMARK    4  A    between atoms: C_8  and  O_9
REMARK    5  A    between atoms: N_14  and  C_15
REMARK    6  A    between atoms: C_15  and  C_16
REMARK    7  A    between atoms: C_16  and  C_17
REMARK    8  A    between atoms: C_17  and  C_18
REMARK    9  A    between atoms: C_18  and  C_19
REMARK   10  A    between atoms: C_19  and  N_20
REMARK   11  A    between atoms: C_21  and  C_23
REMARK   12  A    between atoms: C_23  and  C_24
REMARK   13  A    between atoms: C_26  and  C_27
REMARK   14  A    between atoms: C_30  and  O_31
REMARK                            x       y       z     vdW  Elec       q    Type
REMARK                         _______ _______ _______ _____ _____    ______ ____
ROOT
ATOM      1  C   UNL     1       1.152   9.892  19.658  0.00  0.00    +0.000 C 
ENDROOT
BRANCH   1   2
ATOM      2  C   UNL     1       0.220   9.137  20.629  0.00  0.00    +0.000 C 
BRANCH   2   3
ATOM      3  C   UNL     1       0.924   7.966  21.338  0.00  0.00    +0.000 C 
BRANCH   3   6
ATOM      4  C   UNL     1       2.054   5.962  20.302  0.00  0.00    +0.000 C 
ATOM      5  O   UNL     1       1.258   5.162  20.798  0.00  0.00    +0.000 OA
ATOM      6  N   UNL     1       1.966   7.342  20.511  0.00  0.00    +0.000 N 
ATOM      7  H   UNL     1       2.623   7.977  20.064  0.00  0.00    +0.000 HD
BRANCH   4   8
ATOM      8  C   UNL     1       3.219   5.487  19.405  0.00  0.00    +0.000 C 
ATOM      9  C   UNL     1       3.701   6.319  18.445  0.00  0.00    +0.000 C 
BRANCH   9  10
ATOM     10  C   UNL     1       4.813   5.910  17.554  0.00  0.00    +0.000 A 
ATOM     11  C   UNL     1       6.128   6.342  17.794  0.00  0.00    +0.000 A 
ATOM     12  C   UNL     1       7.130   6.140  16.840  0.00  0.00    +0.000 A 
ATOM     13  C   UNL     1       6.831   5.455  15.670  0.00  0.00    +0.000 A 
ATOM     14  C   UNL     1       5.554   4.947  15.454  0.00  0.00    +0.000 A 
ATOM     15  C   UNL     1       4.542   5.183  16.388  0.00  0.00    +0.000 A 
BRANCH  13  16
ATOM     16  O   UNL     1       7.770   5.274  14.700  0.00  0.00    +0.000 OA
ATOM     17  H   UNL     1       7.410   5.605  13.860  0.00  0.00    +0.000 HD
ENDBRANCH  13  16
ENDBRANCH   9  10
BRANCH   8  19
ATOM     18  N   UNL     1       4.242   3.107  19.768  0.00  0.00    +0.000 NA
ATOM     19  C   UNL     1       3.788   4.151  19.603  0.00  0.00    +0.000 C 
ENDBRANCH   8  19
ENDBRANCH   4   8
ENDBRANCH   3   6
ENDBRANCH   2   3
ENDBRANCH   1   2
BRANCH   1  20
ATOM     20  C   UNL     1       0.746   9.727  18.176  0.00  0.00    +0.000 C 
BRANCH  20  21
ATOM     21  C   UNL     1      -0.748  10.017  17.937  0.00  0.00    +0.000 C 
BRANCH  21  22
ATOM     22  N   UNL     1      -1.352  10.837  18.988  0.00  0.00    +0.000 N 
ATOM     23  C   UNL     1      -2.523  11.535  18.760  0.00  0.00    +0.000 C 
ATOM     24  O   UNL     1      -3.108  11.488  17.679  0.00  0.00    +0.000 OA
ATOM     25  H   UNL     1      -0.871  10.892  19.878  0.00  0.00    +0.000 HD
BRANCH  23  26
ATOM     26  C   UNL     1      -3.063  12.372  19.884  0.00  0.00    +0.000 C 
ATOM     27  C   UNL     1      -2.280  12.689  20.941  0.00  0.00    +0.000 C 
BRANCH  27  28
ATOM     28  C   UNL     1      -2.732  13.488  22.101  0.00  0.00    +0.000 A 
ATOM     29  C   UNL     1      -3.403  12.893  23.182  0.00  0.00    +0.000 A 
ATOM     30  C   UNL     1      -3.948  13.675  24.209  0.00  0.00    +0.000 A 
ATOM     31  C   UNL     1      -3.779  15.052  24.180  0.00  0.00    +0.000 A 
ATOM     32  C   UNL     1      -3.065  15.655  23.151  0.00  0.00    +0.000 A 
ATOM     33  C   UNL     1      -2.551  14.877  22.106  0.00  0.00    +0.000 A 
BRANCH  31  34
ATOM     34  O   UNL     1      -4.308  15.849  25.152  0.00  0.00    +0.000 OA
ATOM     35  H   UNL     1      -3.701  16.592  25.306  0.00  0.00    +0.000 HD
ENDBRANCH  31  34
ENDBRANCH  27  28
BRANCH  26  36
ATOM     36  C   UNL     1      -4.502  12.860  19.871  0.00  0.00    +0.000 C 
ATOM     37  N   UNL     1      -5.696  13.266  19.859  0.00  0.00    +0.000 NA
ENDBRANCH  26  36
ENDBRANCH  23  26
ENDBRANCH  21  22
ENDBRANCH  20  21
ENDBRANCH   1  20
TORSDOF 14
ENDMDL
MODEL 9
REMARK VINA RESULT:      -6.5      2.912      7.143
REMARK  Name = 
REMARK  14 active torsions:
REMARK  status: ('A' for Active; 'I' for Inactive)
REMARK    1  A    between atoms: C_2  and  C_3
REMARK    2  A    between atoms: C_3  and  C_12
REMARK    3  A    between atoms: C_4  and  C_5
REMARK    4  A    between atoms: C_8  and  O_9
REMARK    5  A    between atoms: N_14  and  C_15
REMARK    6  A    between atoms: C_15  and  C_16
REMARK    7  A    between atoms: C_16  and  C_17
REMARK    8  A    between atoms: C_17  and  C_18
REMARK    9  A    between atoms: C_18  and  C_19
REMARK   10  A    between atoms: C_19  and  N_20
REMARK   11  A    between atoms: C_21  and  C_23
REMARK   12  A    between atoms: C_23  and  C_24
REMARK   13  A    between atoms: C_26  and  C_27
REMARK   14  A    between atoms: C_30  and  O_31
REMARK                            x       y       z     vdW  Elec       q    Type
REMARK                         _______ _______ _______ _____ _____    ______ ____
ROOT
ATOM      1  C   UNL     1       7.423   5.422  18.422  0.00  0.00    +0.000 C 
ENDROOT
BRANCH   1   2
ATOM      2  C   UNL     1       7.935   6.878  18.436  0.00  0.00    +0.000 C 
BRANCH   2   3
ATOM      3  C   UNL     1       7.251   7.757  17.372  0.00  0.00    +0.000 C 
BRANCH   3   6
ATOM      4  C   UNL     1       8.645   9.641  18.306  0.00  0.00    +0.000 C 
ATOM      5  O   UNL     1       9.009   8.987  19.286  0.00  0.00    +0.000 OA
ATOM      6  N   UNL     1       7.793   9.122  17.327  0.00  0.00    +0.000 N 
ATOM      7  H   UNL     1       7.533   9.680  16.517  0.00  0.00    +0.000 HD
BRANCH   4   8
ATOM      8  C   UNL     1       9.112  11.098  18.093  0.00  0.00    +0.000 C 
ATOM      9  C   UNL     1      10.372  11.453  18.456  0.00  0.00    +0.000 C 
BRANCH   9  10
ATOM     10  C   UNL     1      10.868  12.839  18.279  0.00  0.00    +0.000 A 
ATOM     11  C   UNL     1      10.686  13.806  19.281  0.00  0.00    +0.000 A 
ATOM     12  C   UNL     1      10.954  15.154  19.028  0.00  0.00    +0.000 A 
ATOM     13  C   UNL     1      11.460  15.529  17.791  0.00  0.00    +0.000 A 
ATOM     14  C   UNL     1      11.725  14.574  16.815  0.00  0.00    +0.000 A 
ATOM     15  C   UNL     1      11.420  13.231  17.052  0.00  0.00    +0.000 A 
BRANCH  13  16
ATOM     16  O   UNL     1      11.695  16.838  17.493  0.00  0.00    +0.000 OA
ATOM     17  H   UNL     1      11.235  17.388  18.148  0.00  0.00    +0.000 HD
ENDBRANCH  13  16
ENDBRANCH   9  10
BRANCH   8  19
ATOM     18  N   UNL     1       7.462  12.835  17.041  0.00  0.00    +0.000 NA
ATOM     19  C   UNL     1       8.193  12.075  17.501  0.00  0.00    +0.000 C 
ENDBRANCH   8  19
ENDBRANCH   4   8
ENDBRANCH   3   6
ENDBRANCH   2   3
ENDBRANCH   1   2
BRANCH   1  20
ATOM     20  C   UNL     1       6.250   5.183  19.399  0.00  0.00    +0.000 C 
BRANCH  20  21
ATOM     21  C   UNL     1       4.880   5.209  18.695  0.00  0.00    +0.000 C 
BRANCH  21  22
ATOM     22  N   UNL     1       4.084   6.392  19.026  0.00  0.00    +0.000 N 
ATOM     23  C   UNL     1       2.789   6.530  18.563  0.00  0.00    +0.000 C 
ATOM     24  O   UNL     1       2.252   5.669  17.869  0.00  0.00    +0.000 OA
ATOM     25  H   UNL     1       4.522   7.114  19.587  0.00  0.00    +0.000 HD
BRANCH  23  26
ATOM     26  C   UNL     1       2.050   7.786  18.928  0.00  0.00    +0.000 C 
ATOM     27  C   UNL     1       1.753   8.706  17.981  0.00  0.00    +0.000 C 
BRANCH  27  28
ATOM     28  C   UNL     1       1.049   9.979  18.251  0.00  0.00    +0.000 A 
ATOM     29  C   UNL     1      -0.353  10.062  18.204  0.00  0.00    +0.000 A 
ATOM     30  C   UNL     1      -1.005  11.297  18.325  0.00  0.00    +0.000 A 
ATOM     31  C   UNL     1      -0.255  12.445  18.543  0.00  0.00    +0.000 A 
ATOM     32  C   UNL     1       1.129  12.375  18.654  0.00  0.00    +0.000 A 
ATOM     33  C   UNL     1       1.783  11.146  18.498  0.00  0.00    +0.000 A 
BRANCH  31  34
ATOM     34  O   UNL     1      -0.850  13.667  18.649  0.00  0.00    +0.000 OA
ATOM     35  H   UNL     1      -1.298  13.718  19.510  0.00  0.00    +0.000 HD
ENDBRANCH  31  34
ENDBRANCH  27  28
BRANCH  26  36
ATOM     36  C   UNL     1       1.641   8.060  20.365  0.00  0.00    +0.000 C 
ATOM     37  N   UNL     1       1.300   8.288  21.558  0.00  0.00    +0.000 NA
ENDBRANCH  26  36
ENDBRANCH  23  26
ENDBRANCH  21  22
ENDBRANCH  20  21
ENDBRANCH   1  20
TORSDOF 14
ENDMDL
