MODEL 1
REMARK VINA RESULT:      -6.7      0.000      0.000
REMARK  Name = 
REMARK  9 active torsions:
REMARK  status: ('A' for Active; 'I' for Inactive)
REMARK    1  A    between atoms: C_1  and  C_2
REMARK    2  A    between atoms: C_2  and  C_3
REMARK    3  A    between atoms: C_2  and  C_4
REMARK    4  A    between atoms: C_2  and  C_5
REMARK    5  A    between atoms: C_8  and  C_9
REMARK    6  A    between atoms: C_9  and  C_10
REMARK    7  A    between atoms: C_10  and  C_11
REMARK    8  A    between atoms: N_16  and  C_17
REMARK    9  A    between atoms: C_17  and  C_18
REMARK                            x       y       z     vdW  Elec       q    Type
REMARK                         _______ _______ _______ _____ _____    ______ ____
ROOT
ATOM      1  C   UNL     1       1.596   3.401  19.626  0.00  0.00    +0.000 C 
ATOM      2  O   UNL     1       1.303   2.920  20.721  0.00  0.00    +0.000 OA
ATOM      3  N   UNL     1       1.590   4.768  19.394  0.00  0.00    +0.000 N 
ATOM      4  C   UNL     1       1.247   5.690  20.482  0.00  0.00    +0.000 C 
ATOM      5  C   UNL     1       2.200   6.909  20.510  0.00  0.00    +0.000 C 
ATOM      6  N   UNL     1       2.382   7.601  19.205  0.00  0.00    +0.000 NA
ATOM      7  C   UNL     1       2.765   6.586  18.199  0.00  0.00    +0.000 C 
ATOM      8  C   UNL     1       1.784   5.412  18.088  0.00  0.00    +0.000 C 
ENDROOT
BRANCH   1   9
ATOM      9  C   UNL     1       2.077   2.519  18.494  0.00  0.00    +0.000 C 
BRANCH   9  10
ATOM     10  C   UNL     1       3.477   1.970  18.736  0.00  0.00    +0.000 C 
BRANCH  10  14
ATOM     11  C   UNL     1       5.693   4.494  17.559  0.00  0.00    +0.000 A 
ATOM     12  N   UNL     1       6.032   4.507  18.857  0.00  0.00    +0.000 NA
ATOM     13  O   UNL     1       5.224   3.518  19.416  0.00  0.00    +0.000 OA
ATOM     14  C   UNL     1       4.480   3.008  18.394  0.00  0.00    +0.000 A 
ATOM     15  N   UNL     1       4.732   3.574  17.234  0.00  0.00    +0.000 NA
BRANCH  11  17
ATOM     16  C   UNL     1       7.124   4.619  15.512  0.00  0.00    +0.000 C 
ATOM     17  C   UNL     1       6.316   5.425  16.546  0.00  0.00    +0.000 C 
ATOM     18  C   UNL     1       7.257   6.426  17.248  0.00  0.00    +0.000 C 
ATOM     19  C   UNL     1       5.238   6.232  15.792  0.00  0.00    +0.000 C 
ENDBRANCH  11  17
ENDBRANCH  10  14
ENDBRANCH   9  10
ENDBRANCH   1   9
BRANCH   6  20
ATOM     20  C   UNL     1       1.158   8.344  18.845  0.00  0.00    +0.000 C 
BRANCH  20  21
ATOM     21  C   UNL     1       1.249   9.824  19.100  0.00  0.00    +0.000 A 
ATOM     22  C   UNL     1       1.793  10.817  18.301  0.00  0.00    +0.000 A 
ATOM     23  C   UNL     1       1.718  12.106  18.905  0.00  0.00    +0.000 A 
ATOM     24  C   UNL     1       1.108  12.043  20.131  0.00  0.00    +0.000 A 
ATOM     25 CL   UNL     1       0.804  13.357  21.193  0.00  0.00    +0.000 Cl
ATOM     26  S   UNL     1       0.641  10.480  20.573  0.00  0.00    +0.000 S 
ENDBRANCH  20  21
ENDBRANCH   6  20
TORSDOF 6
ENDMDL
MODEL 2
REMARK VINA RESULT:      -6.7      0.955      1.087
REMARK  Name = 
REMARK  9 active torsions:
REMARK  status: ('A' for Active; 'I' for Inactive)
REMARK    1  A    between atoms: C_1  and  C_2
REMARK    2  A    between atoms: C_2  and  C_3
REMARK    3  A    between atoms: C_2  and  C_4
REMARK    4  A    between atoms: C_2  and  C_5
REMARK    5  A    between atoms: C_8  and  C_9
REMARK    6  A    between atoms: C_9  and  C_10
REMARK    7  A    between atoms: C_10  and  C_11
REMARK    8  A    between atoms: N_16  and  C_17
REMARK    9  A    between atoms: C_17  and  C_18
REMARK                            x       y       z     vdW  Elec       q    Type
REMARK                         _______ _______ _______ _____ _____    ______ ____
ROOT
ATOM      1  C   UNL     1       1.584   3.071  19.393  0.00  0.00    +0.000 C 
ATOM      2  O   UNL     1       1.264   2.458  20.411  0.00  0.00    +0.000 OA
ATOM      3  N   UNL     1       1.553   4.456  19.322  0.00  0.00    +0.000 N 
ATOM      4  C   UNL     1       1.148   5.235  20.496  0.00  0.00    +0.000 C 
ATOM      5  C   UNL     1       2.070   6.462  20.704  0.00  0.00    +0.000 C 
ATOM      6  N   UNL     1       2.281   7.307  19.497  0.00  0.00    +0.000 NA
ATOM      7  C   UNL     1       2.725   6.425  18.396  0.00  0.00    +0.000 C 
ATOM      8  C   UNL     1       1.778   5.252  18.109  0.00  0.00    +0.000 C 
ENDROOT
BRANCH   1   9
ATOM      9  C   UNL     1       2.128   2.338  18.185  0.00  0.00    +0.000 C 
BRANCH   9  10
ATOM     10  C   UNL     1       3.541   1.817  18.406  0.00  0.00    +0.000 C 
BRANCH  10  14
ATOM     11  C   UNL     1       5.687   4.485  17.432  0.00  0.00    +0.000 A 
ATOM     12  N   UNL     1       6.019   4.412  18.729  0.00  0.00    +0.000 NA
ATOM     13  O   UNL     1       5.238   3.361  19.209  0.00  0.00    +0.000 OA
ATOM     14  C   UNL     1       4.515   2.907  18.148  0.00  0.00    +0.000 A 
ATOM     15  N   UNL     1       4.756   3.563  17.034  0.00  0.00    +0.000 NA
BRANCH  11  17
ATOM     16  C   UNL     1       7.096   4.801  15.390  0.00  0.00    +0.000 C 
ATOM     17  C   UNL     1       6.286   5.506  16.495  0.00  0.00    +0.000 C 
ATOM     18  C   UNL     1       7.219   6.460  17.269  0.00  0.00    +0.000 C 
ATOM     19  C   UNL     1       5.190   6.356  15.819  0.00  0.00    +0.000 C 
ENDBRANCH  11  17
ENDBRANCH  10  14
ENDBRANCH   9  10
ENDBRANCH   1   9
BRANCH   6  20
ATOM     20  C   UNL     1       1.053   8.062  19.180  0.00  0.00    +0.000 C 
BRANCH  20  21
ATOM     21  C   UNL     1       1.206   9.553  19.311  0.00  0.00    +0.000 A 
ATOM     22  C   UNL     1       0.809  10.384  20.346  0.00  0.00    +0.000 A 
ATOM     23  C   UNL     1       1.103  11.755  20.088  0.00  0.00    +0.000 A 
ATOM     24  C   UNL     1       1.724  11.908  18.875  0.00  0.00    +0.000 A 
ATOM     25 CL   UNL     1       2.258  13.382  18.177  0.00  0.00    +0.000 Cl
ATOM     26  S   UNL     1       1.944  10.455  18.042  0.00  0.00    +0.000 S 
ENDBRANCH  20  21
ENDBRANCH   6  20
TORSDOF 6
ENDMDL
MODEL 3
REMARK VINA RESULT:      -6.7      3.711      6.158
REMARK  Name = 
REMARK  9 active torsions:
REMARK  status: ('A' for Active; 'I' for Inactive)
REMARK    1  A    between atoms: C_1  and  C_2
REMARK    2  A    between atoms: C_2  and  C_3
REMARK    3  A    between atoms: C_2  and  C_4
REMARK    4  A    between atoms: C_2  and  C_5
REMARK    5  A    between atoms: C_8  and  C_9
REMARK    6  A    between atoms: C_9  and  C_10
REMARK    7  A    between atoms: C_10  and  C_11
REMARK    8  A    between atoms: N_16  and  C_17
REMARK    9  A    between atoms: C_17  and  C_18
REMARK                            x       y       z     vdW  Elec       q    Type
REMARK                         _______ _______ _______ _____ _____    ______ ____
ROOT
ATOM      1  C   UNL     1       1.804  10.202  18.006  0.00  0.00    +0.000 C 
ATOM      2  O   UNL     1       2.793  10.679  17.448  0.00  0.00    +0.000 OA
ATOM      3  N   UNL     1       0.894  10.988  18.697  0.00  0.00    +0.000 N 
ATOM      4  C   UNL     1       1.087  12.441  18.760  0.00  0.00    +0.000 C 
ATOM      5  C   UNL     1      -0.246  13.197  18.541  0.00  0.00    +0.000 C 
ATOM      6  N   UNL     1      -1.384  12.730  19.380  0.00  0.00    +0.000 NA
ATOM      7  C   UNL     1      -1.509  11.266  19.205  0.00  0.00    +0.000 C 
ATOM      8  C   UNL     1      -0.223  10.486  19.508  0.00  0.00    +0.000 C 
ENDROOT
BRANCH   1   9
ATOM      9  C   UNL     1       1.477   8.730  17.880  0.00  0.00    +0.000 C 
BRANCH   9  10
ATOM     10  C   UNL     1       2.707   7.844  18.017  0.00  0.00    +0.000 C 
BRANCH  10  14
ATOM     11  C   UNL     1       2.091   4.781  19.722  0.00  0.00    +0.000 A 
ATOM     12  N   UNL     1       1.796   5.635  20.713  0.00  0.00    +0.000 NA
ATOM     13  O   UNL     1       1.985   6.888  20.132  0.00  0.00    +0.000 OA
ATOM     14  C   UNL     1       2.373   6.660  18.847  0.00  0.00    +0.000 A 
ATOM     15  N   UNL     1       2.453   5.382  18.546  0.00  0.00    +0.000 NA
BRANCH  11  17
ATOM     16  C   UNL     1       3.354   2.644  19.418  0.00  0.00    +0.000 C 
ATOM     17  C   UNL     1       2.036   3.282  19.896  0.00  0.00    +0.000 C 
ATOM     18  C   UNL     1       0.868   2.691  19.080  0.00  0.00    +0.000 C 
ATOM     19  C   UNL     1       1.825   2.899  21.376  0.00  0.00    +0.000 C 
ENDBRANCH  11  17
ENDBRANCH  10  14
ENDBRANCH   9  10
ENDBRANCH   1   9
BRANCH   6  20
ATOM     20  C   UNL     1      -1.182  13.133  20.786  0.00  0.00    +0.000 C 
BRANCH  20  21
ATOM     21  C   UNL     1      -2.436  13.087  21.616  0.00  0.00    +0.000 A 
ATOM     22  C   UNL     1      -3.685  13.622  21.345  0.00  0.00    +0.000 A 
ATOM     23  C   UNL     1      -4.617  13.394  22.399  0.00  0.00    +0.000 A 
ATOM     24  C   UNL     1      -4.043  12.684  23.422  0.00  0.00    +0.000 A 
ATOM     25 CL   UNL     1      -4.806  12.187  24.877  0.00  0.00    +0.000 Cl
ATOM     26  S   UNL     1      -2.420  12.302  23.151  0.00  0.00    +0.000 S 
ENDBRANCH  20  21
ENDBRANCH   6  20
TORSDOF 6
ENDMDL
MODEL 4
REMARK VINA RESULT:      -6.6      3.488      5.506
REMARK  Name = 
REMARK  9 active torsions:
REMARK  status: ('A' for Active; 'I' for Inactive)
REMARK    1  A    between atoms: C_1  and  C_2
REMARK    2  A    between atoms: C_2  and  C_3
REMARK    3  A    between atoms: C_2  and  C_4
REMARK    4  A    between atoms: C_2  and  C_5
REMARK    5  A    between atoms: C_8  and  C_9
REMARK    6  A    between atoms: C_9  and  C_10
REMARK    7  A    between atoms: C_10  and  C_11
REMARK    8  A    between atoms: N_16  and  C_17
REMARK    9  A    between atoms: C_17  and  C_18
REMARK                            x       y       z     vdW  Elec       q    Type
REMARK                         _______ _______ _______ _____ _____    ______ ____
ROOT
ATOM      1  C   UNL     1       1.800   9.248  18.503  0.00  0.00    +0.000 C 
ATOM      2  O   UNL     1       1.940   9.680  17.358  0.00  0.00    +0.000 OA
ATOM      3  N   UNL     1       1.070   9.929  19.466  0.00  0.00    +0.000 N 
ATOM      4  C   UNL     1       0.418  11.197  19.124  0.00  0.00    +0.000 C 
ATOM      5  C   UNL     1      -1.015  11.269  19.706  0.00  0.00    +0.000 C 
ATOM      6  N   UNL     1      -1.129  10.936  21.152  0.00  0.00    +0.000 NA
ATOM      7  C   UNL     1      -0.477   9.625  21.370  0.00  0.00    +0.000 C 
ATOM      8  C   UNL     1       0.976   9.558  20.884  0.00  0.00    +0.000 C 
ENDROOT
BRANCH   1   9
ATOM      9  C   UNL     1       2.341   7.889  18.891  0.00  0.00    +0.000 C 
BRANCH   9  10
ATOM     10  C   UNL     1       3.305   7.327  17.855  0.00  0.00    +0.000 C 
BRANCH  10  14
ATOM     11  C   UNL     1       3.097   3.816  18.397  0.00  0.00    +0.000 A 
ATOM     12  N   UNL     1       3.824   3.811  17.269  0.00  0.00    +0.000 NA
ATOM     13  O   UNL     1       3.986   5.165  16.979  0.00  0.00    +0.000 OA
ATOM     14  C   UNL     1       3.341   5.848  17.965  0.00  0.00    +0.000 A 
ATOM     15  N   UNL     1       2.780   5.065  18.860  0.00  0.00    +0.000 NA
BRANCH  11  17
ATOM     16  C   UNL     1       3.527   1.362  18.619  0.00  0.00    +0.000 C 
ATOM     17  C   UNL     1       2.661   2.546  19.089  0.00  0.00    +0.000 C 
ATOM     18  C   UNL     1       1.183   2.244  18.771  0.00  0.00    +0.000 C 
ATOM     19  C   UNL     1       2.804   2.668  20.621  0.00  0.00    +0.000 C 
ENDBRANCH  11  17
ENDBRANCH  10  14
ENDBRANCH   9  10
ENDBRANCH   1   9
BRANCH   6  20
ATOM     20  C   UNL     1      -0.551  12.017  21.974  0.00  0.00    +0.000 C 
BRANCH  20  21
ATOM     21  C   UNL     1      -1.549  12.699  22.869  0.00  0.00    +0.000 A 
ATOM     22  C   UNL     1      -2.790  12.252  23.294  0.00  0.00    +0.000 A 
ATOM     23  C   UNL     1      -3.460  13.203  24.118  0.00  0.00    +0.000 A 
ATOM     24  C   UNL     1      -2.696  14.328  24.296  0.00  0.00    +0.000 A 
ATOM     25 CL   UNL     1      -3.113  15.714  25.219  0.00  0.00    +0.000 Cl
ATOM     26  S   UNL     1      -1.212  14.270  23.490  0.00  0.00    +0.000 S 
ENDBRANCH  20  21
ENDBRANCH   6  20
TORSDOF 6
ENDMDL
MODEL 5
REMARK VINA RESULT:      -6.4      2.967      4.187
REMARK  Name = 
REMARK  9 active torsions:
REMARK  status: ('A' for Active; 'I' for Inactive)
REMARK    1  A    between atoms: C_1  and  C_2
REMARK    2  A    between atoms: C_2  and  C_3
REMARK    3  A    between atoms: C_2  and  C_4
REMARK    4  A    between atoms: C_2  and  C_5
REMARK    5  A    between atoms: C_8  and  C_9
REMARK    6  A    between atoms: C_9  and  C_10
REMARK    7  A    between atoms: C_10  and  C_11
REMARK    8  A    between atoms: N_16  and  C_17
REMARK    9  A    between atoms: C_17  and  C_18
REMARK                            x       y       z     vdW  Elec       q    Type
REMARK                         _______ _______ _______ _____ _____    ______ ____
ROOT
ATOM      1  C   UNL     1       2.103   7.848  19.006  0.00  0.00    +0.000 C 
ATOM      2  O   UNL     1       2.316   8.104  17.820  0.00  0.00    +0.000 OA
ATOM      3  N   UNL     1       1.446   8.734  19.847  0.00  0.00    +0.000 N 
ATOM      4  C   UNL     1       0.963  10.015  19.320  0.00  0.00    +0.000 C 
ATOM      5  C   UNL     1      -0.461  10.336  19.838  0.00  0.00    +0.000 C 
ATOM      6  N   UNL     1      -0.641  10.214  21.311  0.00  0.00    +0.000 NA
ATOM      7  C   UNL     1      -0.162   8.876  21.719  0.00  0.00    +0.000 C 
ATOM      8  C   UNL     1       1.281   8.569  21.297  0.00  0.00    +0.000 C 
ENDROOT
BRANCH   1   9
ATOM      9  C   UNL     1       2.464   6.498  19.585  0.00  0.00    +0.000 C 
BRANCH   9  10
ATOM     10  C   UNL     1       2.229   5.359  18.603  0.00  0.00    +0.000 C 
BRANCH  10  14
ATOM     11  C   UNL     1       5.404   4.976  17.041  0.00  0.00    +0.000 A 
ATOM     12  N   UNL     1       4.743   3.989  16.417  0.00  0.00    +0.000 NA
ATOM     13  O   UNL     1       3.457   4.069  16.948  0.00  0.00    +0.000 OA
ATOM     14  C   UNL     1       3.474   5.100  17.839  0.00  0.00    +0.000 A 
ATOM     15  N   UNL     1       4.646   5.689  17.931  0.00  0.00    +0.000 NA
BRANCH  11  17
ATOM     16  C   UNL     1       7.150   6.765  16.990  0.00  0.00    +0.000 C 
ATOM     17  C   UNL     1       6.864   5.265  16.785  0.00  0.00    +0.000 C 
ATOM     18  C   UNL     1       7.242   4.876  15.341  0.00  0.00    +0.000 C 
ATOM     19  C   UNL     1       7.768   4.467  17.747  0.00  0.00    +0.000 C 
ENDBRANCH  11  17
ENDBRANCH  10  14
ENDBRANCH   9  10
ENDBRANCH   1   9
BRANCH   6  20
ATOM     20  C   UNL     1       0.051  11.317  22.004  0.00  0.00    +0.000 C 
BRANCH  20  21
ATOM     21  C   UNL     1      -0.868  12.413  22.471  0.00  0.00    +0.000 A 
ATOM     22  C   UNL     1      -0.658  13.782  22.488  0.00  0.00    +0.000 A 
ATOM     23  C   UNL     1      -1.762  14.498  23.037  0.00  0.00    +0.000 A 
ATOM     24  C   UNL     1      -2.771  13.645  23.403  0.00  0.00    +0.000 A 
ATOM     25 CL   UNL     1      -4.279  14.081  24.097  0.00  0.00    +0.000 Cl
ATOM     26  S   UNL     1      -2.416  12.018  23.116  0.00  0.00    +0.000 S 
ENDBRANCH  20  21
ENDBRANCH   6  20
TORSDOF 6
ENDMDL
MODEL 6
REMARK VINA RESULT:      -6.4      3.536      5.804
REMARK  Name = 
REMARK  9 active torsions:
REMARK  status: ('A' for Active; 'I' for Inactive)
REMARK    1  A    between atoms: C_1  and  C_2
REMARK    2  A    between atoms: C_2  and  C_3
REMARK    3  A    between atoms: C_2  and  C_4
REMARK    4  A    between atoms: C_2  and  C_5
REMARK    5  A    between atoms: C_8  and  C_9
REMARK    6  A    between atoms: C_9  and  C_10
REMARK    7  A    between atoms: C_10  and  C_11
REMARK    8  A    between atoms: N_16  and  C_17
REMARK    9  A    between atoms: C_17  and  C_18
REMARK                            x       y       z     vdW  Elec       q    Type
REMARK                         _______ _______ _______ _____ _____    ______ ____
ROOT
ATOM      1  C   UNL     1       1.997  10.007  18.108  0.00  0.00    +0.000 C 
ATOM      2  O   UNL     1       2.714  10.690  17.376  0.00  0.00    +0.000 OA
ATOM      3  N   UNL     1       1.201  10.568  19.095  0.00  0.00    +0.000 N 
ATOM      4  C   UNL     1       1.183  12.023  19.276  0.00  0.00    +0.000 C 
ATOM      5  C   UNL     1      -0.258  12.546  19.494  0.00  0.00    +0.000 C 
ATOM      6  N   UNL     1      -1.043  11.826  20.534  0.00  0.00    +0.000 NA
ATOM      7  C   UNL     1      -0.988  10.380  20.227  0.00  0.00    +0.000 C 
ATOM      8  C   UNL     1       0.433   9.818  20.099  0.00  0.00    +0.000 C 
ENDROOT
BRANCH   1   9
ATOM      9  C   UNL     1       1.873   8.513  17.898  0.00  0.00    +0.000 C 
BRANCH   9  10
ATOM     10  C   UNL     1       3.222   7.839  17.685  0.00  0.00    +0.000 C 
BRANCH  10  14
ATOM     11  C   UNL     1       2.846   4.619  19.153  0.00  0.00    +0.000 A 
ATOM     12  N   UNL     1       4.175   4.749  19.273  0.00  0.00    +0.000 NA
ATOM     13  O   UNL     1       4.430   6.012  18.740  0.00  0.00    +0.000 OA
ATOM     14  C   UNL     1       3.224   6.515  18.354  0.00  0.00    +0.000 A 
ATOM     15  N   UNL     1       2.220   5.698  18.587  0.00  0.00    +0.000 NA
BRANCH  11  17
ATOM     16  C   UNL     1       3.103   2.237  19.870  0.00  0.00    +0.000 C 
ATOM     17  C   UNL     1       2.107   3.379  19.597  0.00  0.00    +0.000 C 
ATOM     18  C   UNL     1       1.113   2.928  18.507  0.00  0.00    +0.000 C 
ATOM     19  C   UNL     1       1.307   3.639  20.891  0.00  0.00    +0.000 C 
ENDBRANCH  11  17
ENDBRANCH  10  14
ENDBRANCH   9  10
ENDBRANCH   1   9
BRANCH   6  20
ATOM     20  C   UNL     1      -0.532  12.155  21.879  0.00  0.00    +0.000 C 
BRANCH  20  21
ATOM     21  C   UNL     1      -1.569  12.745  22.795  0.00  0.00    +0.000 A 
ATOM     22  C   UNL     1      -2.808  12.239  23.154  0.00  0.00    +0.000 A 
ATOM     23  C   UNL     1      -3.523  13.111  24.027  0.00  0.00    +0.000 A 
ATOM     24  C   UNL     1      -2.792  14.237  24.306  0.00  0.00    +0.000 A 
ATOM     25 CL   UNL     1      -3.268  15.541  25.317  0.00  0.00    +0.000 Cl
ATOM     26  S   UNL     1      -1.288  14.274  23.539  0.00  0.00    +0.000 S 
ENDBRANCH  20  21
ENDBRANCH   6  20
TORSDOF 6
ENDMDL
MODEL 7
REMARK VINA RESULT:      -6.3      3.003      4.189
REMARK  Name = 
REMARK  9 active torsions:
REMARK  status: ('A' for Active; 'I' for Inactive)
REMARK    1  A    between atoms: C_1  and  C_2
REMARK    2  A    between atoms: C_2  and  C_3
REMARK    3  A    between atoms: C_2  and  C_4
REMARK    4  A    between atoms: C_2  and  C_5
REMARK    5  A    between atoms: C_8  and  C_9
REMARK    6  A    between atoms: C_9  and  C_10
REMARK    7  A    between atoms: C_10  and  C_11
REMARK    8  A    between atoms: N_16  and  C_17
REMARK    9  A    between atoms: C_17  and  C_18
REMARK                            x       y       z     vdW  Elec       q    Type
REMARK                         _______ _______ _______ _____ _____    ______ ____
ROOT
ATOM      1  C   UNL     1       2.011   7.761  19.330  0.00  0.00    +0.000 C 
ATOM      2  O   UNL     1       2.342   7.993  18.167  0.00  0.00    +0.000 OA
ATOM      3  N   UNL     1       1.314   8.682  20.098  0.00  0.00    +0.000 N 
ATOM      4  C   UNL     1       0.932   9.973  19.517  0.00  0.00    +0.000 C 
ATOM      5  C   UNL     1      -0.519  10.355  19.898  0.00  0.00    +0.000 C 
ATOM      6  N   UNL     1      -0.839  10.259  21.349  0.00  0.00    +0.000 NA
ATOM      7  C   UNL     1      -0.452   8.909  21.813  0.00  0.00    +0.000 C 
ATOM      8  C   UNL     1       1.011   8.543  21.528  0.00  0.00    +0.000 C 
ENDROOT
BRANCH   1   9
ATOM      9  C   UNL     1       2.265   6.405  19.953  0.00  0.00    +0.000 C 
BRANCH   9  10
ATOM     10  C   UNL     1       2.336   5.291  18.918  0.00  0.00    +0.000 C 
BRANCH  10  14
ATOM     11  C   UNL     1       5.755   4.871  18.023  0.00  0.00    +0.000 A 
ATOM     12  N   UNL     1       5.674   3.938  18.983  0.00  0.00    +0.000 NA
ATOM     13  O   UNL     1       4.343   4.004  19.392  0.00  0.00    +0.000 OA
ATOM     14  C   UNL     1       3.757   4.971  18.633  0.00  0.00    +0.000 A 
ATOM     15  N   UNL     1       4.582   5.533  17.777  0.00  0.00    +0.000 NA
BRANCH  11  17
ATOM     16  C   UNL     1       7.357   6.674  17.362  0.00  0.00    +0.000 C 
ATOM     17  C   UNL     1       7.038   5.169  17.285  0.00  0.00    +0.000 C 
ATOM     18  C   UNL     1       6.910   4.760  15.803  0.00  0.00    +0.000 C 
ATOM     19  C   UNL     1       8.226   4.393  17.893  0.00  0.00    +0.000 C 
ENDBRANCH  11  17
ENDBRANCH  10  14
ENDBRANCH   9  10
ENDBRANCH   1   9
BRANCH   6  20
ATOM     20  C   UNL     1      -0.171  11.344  22.093  0.00  0.00    +0.000 C 
BRANCH  20  21
ATOM     21  C   UNL     1      -1.118  12.375  22.645  0.00  0.00    +0.000 A 
ATOM     22  C   UNL     1      -2.363  12.195  23.226  0.00  0.00    +0.000 A 
ATOM     23  C   UNL     1      -2.974  13.428  23.600  0.00  0.00    +0.000 A 
ATOM     24  C   UNL     1      -2.163  14.492  23.301  0.00  0.00    +0.000 A 
ATOM     25 CL   UNL     1      -2.501  16.151  23.587  0.00  0.00    +0.000 Cl
ATOM     26  S   UNL     1      -0.705  14.046  22.574  0.00  0.00    +0.000 S 
ENDBRANCH  20  21
ENDBRANCH   6  20
TORSDOF 6
ENDMDL
MODEL 8
REMARK VINA RESULT:      -6.3      3.160      4.472
REMARK  Name = 
REMARK  9 active torsions:
REMARK  status: ('A' for Active; 'I' for Inactive)
REMARK    1  A    between atoms: C_1  and  C_2
REMARK    2  A    between atoms: C_2  and  C_3
REMARK    3  A    between atoms: C_2  and  C_4
REMARK    4  A    between atoms: C_2  and  C_5
REMARK    5  A    between atoms: C_8  and  C_9
REMARK    6  A    between atoms: C_9  and  C_10
REMARK    7  A    between atoms: C_10  and  C_11
REMARK    8  A    between atoms: N_16  and  C_17
REMARK    9  A    between atoms: C_17  and  C_18
REMARK                            x       y       z     vdW  Elec       q    Type
REMARK                         _______ _______ _______ _____ _____    ______ ____
ROOT
ATOM      1  C   UNL     1       1.834   8.049  19.455  0.00  0.00    +0.000 C 
ATOM      2  O   UNL     1       2.023   8.053  18.239  0.00  0.00    +0.000 OA
ATOM      3  N   UNL     1       1.176   9.083  20.105  0.00  0.00    +0.000 N 
ATOM      4  C   UNL     1       0.663  10.219  19.332  0.00  0.00    +0.000 C 
ATOM      5  C   UNL     1      -0.757  10.623  19.799  0.00  0.00    +0.000 C 
ATOM      6  N   UNL     1      -0.911  10.810  21.268  0.00  0.00    +0.000 NA
ATOM      7  C   UNL     1      -0.402   9.593  21.938  0.00  0.00    +0.000 C 
ATOM      8  C   UNL     1       1.038   9.224  21.560  0.00  0.00    +0.000 C 
ENDROOT
BRANCH   1   9
ATOM      9  C   UNL     1       2.227   6.855  20.298  0.00  0.00    +0.000 C 
BRANCH   9  10
ATOM     10  C   UNL     1       2.283   5.565  19.492  0.00  0.00    +0.000 C 
BRANCH  10  14
ATOM     11  C   UNL     1       5.732   5.148  18.717  0.00  0.00    +0.000 A 
ATOM     12  N   UNL     1       5.494   3.948  19.269  0.00  0.00    +0.000 NA
ATOM     13  O   UNL     1       4.139   3.998  19.591  0.00  0.00    +0.000 OA
ATOM     14  C   UNL     1       3.697   5.225  19.198  0.00  0.00    +0.000 A 
ATOM     15  N   UNL     1       4.637   5.968  18.655  0.00  0.00    +0.000 NA
BRANCH  11  17
ATOM     16  C   UNL     1       7.011   6.916  17.496  0.00  0.00    +0.000 C 
ATOM     17  C   UNL     1       7.096   5.557  18.217  0.00  0.00    +0.000 C 
ATOM     18  C   UNL     1       7.644   4.503  17.233  0.00  0.00    +0.000 C 
ATOM     19  C   UNL     1       8.101   5.691  19.380  0.00  0.00    +0.000 C 
ENDBRANCH  11  17
ENDBRANCH  10  14
ENDBRANCH   9  10
ENDBRANCH   1   9
BRANCH   6  20
ATOM     20  C   UNL     1      -0.226  12.043  21.701  0.00  0.00    +0.000 C 
BRANCH  20  21
ATOM     21  C   UNL     1      -1.151  13.084  22.270  0.00  0.00    +0.000 A 
ATOM     22  C   UNL     1      -0.935  13.968  23.315  0.00  0.00    +0.000 A 
ATOM     23  C   UNL     1      -2.071  14.787  23.582  0.00  0.00    +0.000 A 
ATOM     24  C   UNL     1      -3.099  14.500  22.721  0.00  0.00    +0.000 A 
ATOM     25 CL   UNL     1      -4.643  15.250  22.684  0.00  0.00    +0.000 Cl
ATOM     26  S   UNL     1      -2.736  13.272  21.620  0.00  0.00    +0.000 S 
ENDBRANCH  20  21
ENDBRANCH   6  20
TORSDOF 6
ENDMDL
MODEL 9
REMARK VINA RESULT:      -6.3      3.727      6.062
REMARK  Name = 
REMARK  9 active torsions:
REMARK  status: ('A' for Active; 'I' for Inactive)
REMARK    1  A    between atoms: C_1  and  C_2
REMARK    2  A    between atoms: C_2  and  C_3
REMARK    3  A    between atoms: C_2  and  C_4
REMARK    4  A    between atoms: C_2  and  C_5
REMARK    5  A    between atoms: C_8  and  C_9
REMARK    6  A    between atoms: C_9  and  C_10
REMARK    7  A    between atoms: C_10  and  C_11
REMARK    8  A    between atoms: N_16  and  C_17
REMARK    9  A    between atoms: C_17  and  C_18
REMARK                            x       y       z     vdW  Elec       q    Type
REMARK                         _______ _______ _______ _____ _____    ______ ____
ROOT
ATOM      1  C   UNL     1       1.797  10.255  18.309  0.00  0.00    +0.000 C 
ATOM      2  O   UNL     1       2.669  10.700  17.563  0.00  0.00    +0.000 OA
ATOM      3  N   UNL     1       0.830  11.067  18.883  0.00  0.00    +0.000 N 
ATOM      4  C   UNL     1       0.817  12.503  18.587  0.00  0.00    +0.000 C 
ATOM      5  C   UNL     1      -0.621  13.013  18.328  0.00  0.00    +0.000 C 
ATOM      6  N   UNL     1      -1.625  12.628  19.358  0.00  0.00    +0.000 NA
ATOM      7  C   UNL     1      -1.551  11.162  19.541  0.00  0.00    +0.000 C 
ATOM      8  C   UNL     1      -0.150  10.643  19.892  0.00  0.00    +0.000 C 
ENDROOT
BRANCH   1   9
ATOM      9  C   UNL     1       1.675   8.768  18.561  0.00  0.00    +0.000 C 
BRANCH   9  10
ATOM     10  C   UNL     1       2.695   7.957  17.773  0.00  0.00    +0.000 C 
BRANCH  10  14
ATOM     11  C   UNL     1       2.779   4.696  19.198  0.00  0.00    +0.000 A 
ATOM     12  N   UNL     1       4.079   5.006  19.308  0.00  0.00    +0.000 NA
ATOM     13  O   UNL     1       4.153   6.299  18.791  0.00  0.00    +0.000 OA
ATOM     14  C   UNL     1       2.885   6.636  18.423  0.00  0.00    +0.000 A 
ATOM     15  N   UNL     1       2.005   5.686  18.653  0.00  0.00    +0.000 NA
BRANCH  11  17
ATOM     16  C   UNL     1       3.359   2.446  20.122  0.00  0.00    +0.000 C 
ATOM     17  C   UNL     1       2.221   3.361  19.632  0.00  0.00    +0.000 C 
ATOM     18  C   UNL     1       1.498   2.676  18.455  0.00  0.00    +0.000 C 
ATOM     19  C   UNL     1       1.207   3.527  20.783  0.00  0.00    +0.000 C 
ENDBRANCH  11  17
ENDBRANCH  10  14
ENDBRANCH   9  10
ENDBRANCH   1   9
BRANCH   6  20
ATOM     20  C   UNL     1      -1.394  13.383  20.605  0.00  0.00    +0.000 C 
BRANCH  20  21
ATOM     21  C   UNL     1      -2.378  13.067  21.698  0.00  0.00    +0.000 A 
ATOM     22  C   UNL     1      -2.162  12.439  22.914  0.00  0.00    +0.000 A 
ATOM     23  C   UNL     1      -3.360  12.291  23.673  0.00  0.00    +0.000 A 
ATOM     24  C   UNL     1      -4.434  12.825  23.009  0.00  0.00    +0.000 A 
ATOM     25 CL   UNL     1      -6.059  12.870  23.560  0.00  0.00    +0.000 Cl
ATOM     26  S   UNL     1      -4.040  13.479  21.502  0.00  0.00    +0.000 S 
ENDBRANCH  20  21
ENDBRANCH   6  20
TORSDOF 6
ENDMDL
