MODEL 1
REMARK VINA RESULT:      -8.7      0.000      0.000
REMARK  Name = 
REMARK  7 active torsions:
REMARK  status: ('A' for Active; 'I' for Inactive)
REMARK    1  A    between atoms: C_1  and  C_2
REMARK    2  A    between atoms: C_7  and  C_8
REMARK    3  A    between atoms: N_11  and  C_12
REMARK    4  A    between atoms: C_12  and  C_13
REMARK    5  A    between atoms: C_13  and  N_14
REMARK    6  A    between atoms: C_15  and  C_17
REMARK    7  A    between atoms: C_23  and  C_24
REMARK                            x       y       z     vdW  Elec       q    Type
REMARK                         _______ _______ _______ _____ _____    ______ ____
ROOT
ATOM      1  C   UNL     1       2.289   7.445  19.332  0.00  0.00    +0.000 A 
ATOM      2  C   UNL     1       3.110   7.689  18.205  0.00  0.00    +0.000 A 
ATOM      3  N   UNL     1       3.705   6.602  17.733  0.00  0.00    +0.000 NA
ATOM      4  N   UNL     1       3.272   5.616  18.541  0.00  0.00    +0.000 N 
ATOM      5  C   UNL     1       2.405   6.062  19.519  0.00  0.00    +0.000 A 
ENDROOT
BRANCH   1  12
ATOM      6  C   UNL     1       0.800   9.789  18.017  0.00  0.00    +0.000 C 
ATOM      7  C   UNL     1       0.801   9.488  19.488  0.00  0.00    +0.000 A 
ATOM      8  C   UNL     1       0.027  10.315  20.308  0.00  0.00    +0.000 A 
ATOM      9  N   UNL     1      -0.068  10.209  21.648  0.00  0.00    +0.000 NA
ATOM     10  C   UNL     1       0.625   9.207  22.210  0.00  0.00    +0.000 A 
ATOM     11  C   UNL     1       1.389   8.301  21.491  0.00  0.00    +0.000 A 
ATOM     12  C   UNL     1       1.511   8.430  20.102  0.00  0.00    +0.000 A 
ENDBRANCH   1  12
BRANCH   5  13
ATOM     13  C   UNL     1       1.652   5.223  20.549  0.00  0.00    +0.000 C 
ATOM     14  C   UNL     1       1.044   3.868  20.361  0.00  0.00    +0.000 C 
ATOM     15  C   UNL     1       2.346   4.010  21.103  0.00  0.00    +0.000 C 
ENDBRANCH   5  13
BRANCH   4  16
ATOM     16  C   UNL     1       3.591   4.257  18.142  0.00  0.00    +0.000 C 
BRANCH  16  17
ATOM     17  C   UNL     1       5.100   4.001  18.035  0.00  0.00    +0.000 C 
BRANCH  17  18
ATOM     18  N   UNL     1       5.572   3.907  16.666  0.00  0.00    +0.000 N 
ATOM     19  C   UNL     1       6.502   4.784  16.156  0.00  0.00    +0.000 C 
ATOM     20  O   UNL     1       7.088   5.620  16.838  0.00  0.00    +0.000 OA
ATOM     21  H   UNL     1       5.063   3.348  15.986  0.00  0.00    +0.000 HD
BRANCH  19  22
ATOM     22  C   UNL     1       6.771   4.656  14.696  0.00  0.00    +0.000 A 
ATOM     23  C   UNL     1       6.063   3.710  13.966  0.00  0.00    +0.000 A 
ATOM     24  C   UNL     1       6.318   3.607  12.605  0.00  0.00    +0.000 A 
ATOM     25  C   UNL     1       7.269   4.443  12.027  0.00  0.00    +0.000 A 
ATOM     26  C   UNL     1       7.930   5.357  12.836  0.00  0.00    +0.000 A 
ATOM     27  N   UNL     1       7.707   5.492  14.162  0.00  0.00    +0.000 NA
ENDBRANCH  19  22
ENDBRANCH  17  18
ENDBRANCH  16  17
ENDBRANCH   4  16
TORSDOF 6
ENDMDL
MODEL 2
REMARK VINA RESULT:      -8.5      4.943      7.148
REMARK  Name = 
REMARK  7 active torsions:
REMARK  status: ('A' for Active; 'I' for Inactive)
REMARK    1  A    between atoms: C_1  and  C_2
REMARK    2  A    between atoms: C_7  and  C_8
REMARK    3  A    between atoms: N_11  and  C_12
REMARK    4  A    between atoms: C_12  and  C_13
REMARK    5  A    between atoms: C_13  and  N_14
REMARK    6  A    between atoms: C_15  and  C_17
REMARK    7  A    between atoms: C_23  and  C_24
REMARK                            x       y       z     vdW  Elec       q    Type
REMARK                         _______ _______ _______ _____ _____    ______ ____
ROOT
ATOM      1  C   UNL     1       5.020   4.765  18.325  0.00  0.00    +0.000 A 
ATOM      2  C   UNL     1       5.770   5.052  19.490  0.00  0.00    +0.000 A 
ATOM      3  N   UNL     1       6.866   5.762  19.258  0.00  0.00    +0.000 NA
ATOM      4  N   UNL     1       6.846   5.966  17.927  0.00  0.00    +0.000 N 
ATOM      5  C   UNL     1       5.749   5.397  17.310  0.00  0.00    +0.000 A 
ENDROOT
BRANCH   1  12
ATOM      6  C   UNL     1       2.251   6.074  18.079  0.00  0.00    +0.000 C 
ATOM      7  C   UNL     1       2.505   4.594  18.087  0.00  0.00    +0.000 A 
ATOM      8  C   UNL     1       1.396   3.757  17.925  0.00  0.00    +0.000 A 
ATOM      9  N   UNL     1       1.433   2.410  17.933  0.00  0.00    +0.000 NA
ATOM     10  C   UNL     1       2.645   1.855  18.087  0.00  0.00    +0.000 A 
ATOM     11  C   UNL     1       3.817   2.586  18.212  0.00  0.00    +0.000 A 
ATOM     12  C   UNL     1       3.774   3.986  18.233  0.00  0.00    +0.000 A 
ENDBRANCH   1  12
BRANCH   5  13
ATOM     13  C   UNL     1       5.351   5.497  15.840  0.00  0.00    +0.000 C 
ATOM     14  C   UNL     1       6.228   5.321  14.639  0.00  0.00    +0.000 C 
ATOM     15  C   UNL     1       5.283   4.222  15.046  0.00  0.00    +0.000 C 
ENDBRANCH   5  13
BRANCH   4  16
ATOM     16  C   UNL     1       7.819   6.902  17.395  0.00  0.00    +0.000 C 
BRANCH  16  17
ATOM     17  C   UNL     1       7.446   8.368  17.652  0.00  0.00    +0.000 C 
BRANCH  17  18
ATOM     18  N   UNL     1       8.502   9.125  18.301  0.00  0.00    +0.000 N 
ATOM     19  C   UNL     1       8.668  10.474  18.082  0.00  0.00    +0.000 C 
ATOM     20  O   UNL     1       7.881  11.156  17.433  0.00  0.00    +0.000 OA
ATOM     21  H   UNL     1       9.279   8.643  18.744  0.00  0.00    +0.000 HD
BRANCH  19  22
ATOM     22  C   UNL     1       9.885  11.077  18.698  0.00  0.00    +0.000 A 
ATOM     23  C   UNL     1       9.843  11.449  20.035  0.00  0.00    +0.000 A 
ATOM     24  C   UNL     1      10.986  12.002  20.597  0.00  0.00    +0.000 A 
ATOM     25  C   UNL     1      12.120  12.167  19.807  0.00  0.00    +0.000 A 
ATOM     26  C   UNL     1      12.069  11.768  18.479  0.00  0.00    +0.000 A 
ATOM     27  N   UNL     1      10.978  11.221  17.896  0.00  0.00    +0.000 NA
ENDBRANCH  19  22
ENDBRANCH  17  18
ENDBRANCH  16  17
ENDBRANCH   4  16
TORSDOF 6
ENDMDL
MODEL 3
REMARK VINA RESULT:      -8.2      1.800      3.079
REMARK  Name = 
REMARK  7 active torsions:
REMARK  status: ('A' for Active; 'I' for Inactive)
REMARK    1  A    between atoms: C_1  and  C_2
REMARK    2  A    between atoms: C_7  and  C_8
REMARK    3  A    between atoms: N_11  and  C_12
REMARK    4  A    between atoms: C_12  and  C_13
REMARK    5  A    between atoms: C_13  and  N_14
REMARK    6  A    between atoms: C_15  and  C_17
REMARK    7  A    between atoms: C_23  and  C_24
REMARK                            x       y       z     vdW  Elec       q    Type
REMARK                         _______ _______ _______ _____ _____    ______ ____
ROOT
ATOM      1  C   UNL     1       1.376   9.545  18.954  0.00  0.00    +0.000 A 
ATOM      2  C   UNL     1       1.903   8.944  17.786  0.00  0.00    +0.000 A 
ATOM      3  N   UNL     1       2.363   7.715  17.980  0.00  0.00    +0.000 NA
ATOM      4  N   UNL     1       2.133   7.483  19.286  0.00  0.00    +0.000 N 
ATOM      5  C   UNL     1       1.528   8.548  19.925  0.00  0.00    +0.000 A 
ENDROOT
BRANCH   1  12
ATOM      6  C   UNL     1      -1.559  10.192  18.317  0.00  0.00    +0.000 C 
ATOM      7  C   UNL     1      -0.551  11.183  18.822  0.00  0.00    +0.000 A 
ATOM      8  C   UNL     1      -1.002  12.486  19.061  0.00  0.00    +0.000 A 
ATOM      9  N   UNL     1      -0.233  13.506  19.489  0.00  0.00    +0.000 NA
ATOM     10  C   UNL     1       1.056  13.216  19.719  0.00  0.00    +0.000 A 
ATOM     11  C   UNL     1       1.602  11.951  19.559  0.00  0.00    +0.000 A 
ATOM     12  C   UNL     1       0.809  10.898  19.086  0.00  0.00    +0.000 A 
ENDBRANCH   1  12
BRANCH   5  13
ATOM     13  C   UNL     1       1.041   8.612  21.371  0.00  0.00    +0.000 C 
ATOM     14  C   UNL     1       0.263   9.708  22.029  0.00  0.00    +0.000 C 
ATOM     15  C   UNL     1      -0.431   8.436  21.621  0.00  0.00    +0.000 C 
ENDBRANCH   5  13
BRANCH   4  16
ATOM     16  C   UNL     1       2.342   6.125  19.754  0.00  0.00    +0.000 C 
BRANCH  16  17
ATOM     17  C   UNL     1       3.814   5.695  19.714  0.00  0.00    +0.000 C 
BRANCH  17  18
ATOM     18  N   UNL     1       4.287   5.388  18.377  0.00  0.00    +0.000 N 
ATOM     19  C   UNL     1       5.530   4.840  18.153  0.00  0.00    +0.000 C 
ATOM     20  O   UNL     1       6.272   4.460  19.053  0.00  0.00    +0.000 OA
ATOM     21  H   UNL     1       3.817   5.780  17.565  0.00  0.00    +0.000 HD
BRANCH  19  22
ATOM     22  C   UNL     1       5.931   4.724  16.722  0.00  0.00    +0.000 A 
ATOM     23  C   UNL     1       4.987   4.306  15.794  0.00  0.00    +0.000 A 
ATOM     24  C   UNL     1       5.372   4.211  14.464  0.00  0.00    +0.000 A 
ATOM     25  C   UNL     1       6.680   4.530  14.111  0.00  0.00    +0.000 A 
ATOM     26  C   UNL     1       7.557   4.937  15.108  0.00  0.00    +0.000 A 
ATOM     27  N   UNL     1       7.219   5.047  16.412  0.00  0.00    +0.000 NA
ENDBRANCH  19  22
ENDBRANCH  17  18
ENDBRANCH  16  17
ENDBRANCH   4  16
TORSDOF 6
ENDMDL
MODEL 4
REMARK VINA RESULT:      -8.0      2.581      4.300
REMARK  Name = 
REMARK  7 active torsions:
REMARK  status: ('A' for Active; 'I' for Inactive)
REMARK    1  A    between atoms: C_1  and  C_2
REMARK    2  A    between atoms: C_7  and  C_8
REMARK    3  A    between atoms: N_11  and  C_12
REMARK    4  A    between atoms: C_12  and  C_13
REMARK    5  A    between atoms: C_13  and  N_14
REMARK    6  A    between atoms: C_15  and  C_17
REMARK    7  A    between atoms: C_23  and  C_24
REMARK                            x       y       z     vdW  Elec       q    Type
REMARK                         _______ _______ _______ _____ _____    ______ ____
ROOT
ATOM      1  C   UNL     1       4.149   4.506  19.046  0.00  0.00    +0.000 A 
ATOM      2  C   UNL     1       5.361   4.212  19.715  0.00  0.00    +0.000 A 
ATOM      3  N   UNL     1       6.329   5.087  19.474  0.00  0.00    +0.000 NA
ATOM      4  N   UNL     1       5.759   5.984  18.647  0.00  0.00    +0.000 N 
ATOM      5  C   UNL     1       4.439   5.693  18.362  0.00  0.00    +0.000 A 
ENDROOT
BRANCH   1  12
ATOM      6  C   UNL     1       1.915   5.043  21.087  0.00  0.00    +0.000 C 
ATOM      7  C   UNL     1       1.859   4.005  20.003  0.00  0.00    +0.000 A 
ATOM      8  C   UNL     1       0.678   3.262  19.894  0.00  0.00    +0.000 A 
ATOM      9  N   UNL     1       0.462   2.276  19.001  0.00  0.00    +0.000 NA
ATOM     10  C   UNL     1       1.466   2.025  18.147  0.00  0.00    +0.000 A 
ATOM     11  C   UNL     1       2.662   2.727  18.136  0.00  0.00    +0.000 A 
ATOM     12  C   UNL     1       2.896   3.732  19.082  0.00  0.00    +0.000 A 
ENDBRANCH   1  12
BRANCH   5  13
ATOM     13  C   UNL     1       3.459   6.526  17.540  0.00  0.00    +0.000 C 
ATOM     14  C   UNL     1       1.991   6.709  17.773  0.00  0.00    +0.000 C 
ATOM     15  C   UNL     1       2.953   7.806  18.143  0.00  0.00    +0.000 C 
ENDBRANCH   5  13
BRANCH   4  16
ATOM     16  C   UNL     1       6.517   7.191  18.371  0.00  0.00    +0.000 C 
BRANCH  16  17
ATOM     17  C   UNL     1       7.710   6.950  17.437  0.00  0.00    +0.000 C 
BRANCH  17  18
ATOM     18  N   UNL     1       7.327   6.419  16.141  0.00  0.00    +0.000 N 
ATOM     19  C   UNL     1       7.483   5.089  15.826  0.00  0.00    +0.000 C 
ATOM     20  O   UNL     1       7.834   4.238  16.639  0.00  0.00    +0.000 OA
ATOM     21  H   UNL     1       7.156   7.048  15.361  0.00  0.00    +0.000 HD
BRANCH  19  22
ATOM     22  C   UNL     1       7.189   4.727  14.410  0.00  0.00    +0.000 A 
ATOM     23  C   UNL     1       6.194   3.793  14.152  0.00  0.00    +0.000 A 
ATOM     24  C   UNL     1       5.925   3.471  12.828  0.00  0.00    +0.000 A 
ATOM     25  C   UNL     1       6.658   4.086  11.817  0.00  0.00    +0.000 A 
ATOM     26  C   UNL     1       7.636   5.006  12.171  0.00  0.00    +0.000 A 
ATOM     27  N   UNL     1       7.925   5.349  13.446  0.00  0.00    +0.000 NA
ENDBRANCH  19  22
ENDBRANCH  17  18
ENDBRANCH  16  17
ENDBRANCH   4  16
TORSDOF 6
ENDMDL
MODEL 5
REMARK VINA RESULT:      -7.9      5.032      7.107
REMARK  Name = 
REMARK  7 active torsions:
REMARK  status: ('A' for Active; 'I' for Inactive)
REMARK    1  A    between atoms: C_1  and  C_2
REMARK    2  A    between atoms: C_7  and  C_8
REMARK    3  A    between atoms: N_11  and  C_12
REMARK    4  A    between atoms: C_12  and  C_13
REMARK    5  A    between atoms: C_13  and  N_14
REMARK    6  A    between atoms: C_15  and  C_17
REMARK    7  A    between atoms: C_23  and  C_24
REMARK                            x       y       z     vdW  Elec       q    Type
REMARK                         _______ _______ _______ _____ _____    ______ ____
ROOT
ATOM      1  C   UNL     1       5.212   4.883  18.377  0.00  0.00    +0.000 A 
ATOM      2  C   UNL     1       5.958   5.128  19.554  0.00  0.00    +0.000 A 
ATOM      3  N   UNL     1       7.020   5.900  19.362  0.00  0.00    +0.000 NA
ATOM      4  N   UNL     1       6.980   6.188  18.047  0.00  0.00    +0.000 N 
ATOM      5  C   UNL     1       5.904   5.611  17.401  0.00  0.00    +0.000 A 
ENDROOT
BRANCH   1  12
ATOM      6  C   UNL     1       2.389   6.083  18.193  0.00  0.00    +0.000 C 
ATOM      7  C   UNL     1       2.707   4.616  18.125  0.00  0.00    +0.000 A 
ATOM      8  C   UNL     1       1.635   3.742  17.917  0.00  0.00    +0.000 A 
ATOM      9  N   UNL     1       1.730   2.399  17.855  0.00  0.00    +0.000 NA
ATOM     10  C   UNL     1       2.965   1.890  17.982  0.00  0.00    +0.000 A 
ATOM     11  C   UNL     1       4.104   2.664  18.149  0.00  0.00    +0.000 A 
ATOM     12  C   UNL     1       4.000   4.057  18.242  0.00  0.00    +0.000 A 
ENDBRANCH   1  12
BRANCH   5  13
ATOM     13  C   UNL     1       5.491   5.786  15.942  0.00  0.00    +0.000 C 
ATOM     14  C   UNL     1       6.288   5.459  14.717  0.00  0.00    +0.000 C 
ATOM     15  C   UNL     1       5.172   4.547  15.152  0.00  0.00    +0.000 C 
ENDBRANCH   5  13
BRANCH   4  16
ATOM     16  C   UNL     1       7.907   7.198  17.571  0.00  0.00    +0.000 C 
BRANCH  16  17
ATOM     17  C   UNL     1       7.391   8.629  17.772  0.00  0.00    +0.000 C 
BRANCH  17  18
ATOM     18  N   UNL     1       8.405   9.643  17.546  0.00  0.00    +0.000 N 
ATOM     19  C   UNL     1       9.051  10.271  18.586  0.00  0.00    +0.000 C 
ATOM     20  O   UNL     1       8.915   9.944  19.761  0.00  0.00    +0.000 OA
ATOM     21  H   UNL     1       8.498  10.079  16.632  0.00  0.00    +0.000 HD
BRANCH  19  22
ATOM     22  C   UNL     1       9.952  11.393  18.197  0.00  0.00    +0.000 A 
ATOM     23  C   UNL     1       9.390  12.557  17.690  0.00  0.00    +0.000 A 
ATOM     24  C   UNL     1      10.240  13.597  17.340  0.00  0.00    +0.000 A 
ATOM     25  C   UNL     1      11.613  13.436  17.502  0.00  0.00    +0.000 A 
ATOM     26  C   UNL     1      12.085  12.235  18.015  0.00  0.00    +0.000 A 
ATOM     27  N   UNL     1      11.291  11.202  18.372  0.00  0.00    +0.000 NA
ENDBRANCH  19  22
ENDBRANCH  17  18
ENDBRANCH  16  17
ENDBRANCH   4  16
TORSDOF 6
ENDMDL
MODEL 6
REMARK VINA RESULT:      -7.8      2.076      3.565
REMARK  Name = 
REMARK  7 active torsions:
REMARK  status: ('A' for Active; 'I' for Inactive)
REMARK    1  A    between atoms: C_1  and  C_2
REMARK    2  A    between atoms: C_7  and  C_8
REMARK    3  A    between atoms: N_11  and  C_12
REMARK    4  A    between atoms: C_12  and  C_13
REMARK    5  A    between atoms: C_13  and  N_14
REMARK    6  A    between atoms: C_15  and  C_17
REMARK    7  A    between atoms: C_23  and  C_24
REMARK                            x       y       z     vdW  Elec       q    Type
REMARK                         _______ _______ _______ _____ _____    ______ ____
ROOT
ATOM      1  C   UNL     1       1.139   9.789  19.002  0.00  0.00    +0.000 A 
ATOM      2  C   UNL     1       1.713   9.095  17.910  0.00  0.00    +0.000 A 
ATOM      3  N   UNL     1       2.237   7.922  18.241  0.00  0.00    +0.000 NA
ATOM      4  N   UNL     1       2.003   7.821  19.563  0.00  0.00    +0.000 N 
ATOM      5  C   UNL     1       1.332   8.914  20.077  0.00  0.00    +0.000 A 
ENDROOT
BRANCH   1  12
ATOM      6  C   UNL     1      -1.798  10.207  18.203  0.00  0.00    +0.000 C 
ATOM      7  C   UNL     1      -0.864  11.297  18.643  0.00  0.00    +0.000 A 
ATOM      8  C   UNL     1      -1.391  12.589  18.737  0.00  0.00    +0.000 A 
ATOM      9  N   UNL     1      -0.695  13.687  19.090  0.00  0.00    +0.000 NA
ATOM     10  C   UNL     1       0.598  13.493  19.392  0.00  0.00    +0.000 A 
ATOM     11  C   UNL     1       1.214  12.251  19.375  0.00  0.00    +0.000 A 
ATOM     12  C   UNL     1       0.498  11.115  18.981  0.00  0.00    +0.000 A 
ENDBRANCH   1  12
BRANCH   5  13
ATOM     13  C   UNL     1       0.824   9.107  21.504  0.00  0.00    +0.000 C 
ATOM     14  C   UNL     1      -0.285   9.999  21.969  0.00  0.00    +0.000 C 
ATOM     15  C   UNL     1      -0.512   8.515  21.856  0.00  0.00    +0.000 C 
ENDBRANCH   5  13
BRANCH   4  16
ATOM     16  C   UNL     1       2.280   6.536  20.179  0.00  0.00    +0.000 C 
BRANCH  16  17
ATOM     17  C   UNL     1       2.312   5.381  19.170  0.00  0.00    +0.000 C 
BRANCH  17  18
ATOM     18  N   UNL     1       3.437   5.448  18.255  0.00  0.00    +0.000 N 
ATOM     19  C   UNL     1       3.656   4.481  17.300  0.00  0.00    +0.000 C 
ATOM     20  O   UNL     1       2.868   3.570  17.067  0.00  0.00    +0.000 OA
ATOM     21  H   UNL     1       4.214   6.075  18.444  0.00  0.00    +0.000 HD
BRANCH  19  22
ATOM     22  C   UNL     1       4.933   4.608  16.541  0.00  0.00    +0.000 A 
ATOM     23  C   UNL     1       5.073   3.913  15.347  0.00  0.00    +0.000 A 
ATOM     24  C   UNL     1       6.264   4.047  14.646  0.00  0.00    +0.000 A 
ATOM     25  C   UNL     1       7.268   4.861  15.163  0.00  0.00    +0.000 A 
ATOM     26  C   UNL     1       7.040   5.515  16.366  0.00  0.00    +0.000 A 
ATOM     27  N   UNL     1       5.894   5.415  17.075  0.00  0.00    +0.000 NA
ENDBRANCH  19  22
ENDBRANCH  17  18
ENDBRANCH  16  17
ENDBRANCH   4  16
TORSDOF 6
ENDMDL
MODEL 7
REMARK VINA RESULT:      -7.8      1.003      1.828
REMARK  Name = 
REMARK  7 active torsions:
REMARK  status: ('A' for Active; 'I' for Inactive)
REMARK    1  A    between atoms: C_1  and  C_2
REMARK    2  A    between atoms: C_7  and  C_8
REMARK    3  A    between atoms: N_11  and  C_12
REMARK    4  A    between atoms: C_12  and  C_13
REMARK    5  A    between atoms: C_13  and  N_14
REMARK    6  A    between atoms: C_15  and  C_17
REMARK    7  A    between atoms: C_23  and  C_24
REMARK                            x       y       z     vdW  Elec       q    Type
REMARK                         _______ _______ _______ _____ _____    ______ ____
ROOT
ATOM      1  C   UNL     1       2.538   7.540  18.583  0.00  0.00    +0.000 A 
ATOM      2  C   UNL     1       3.727   7.762  17.849  0.00  0.00    +0.000 A 
ATOM      3  N   UNL     1       4.514   6.697  17.774  0.00  0.00    +0.000 NA
ATOM      4  N   UNL     1       3.843   5.747  18.453  0.00  0.00    +0.000 N 
ATOM      5  C   UNL     1       2.636   6.194  18.956  0.00  0.00    +0.000 A 
ENDROOT
BRANCH   1  12
ATOM      6  C   UNL     1       1.763   8.370  21.438  0.00  0.00    +0.000 C 
ATOM      7  C   UNL     1       1.139   8.914  20.185  0.00  0.00    +0.000 A 
ATOM      8  C   UNL     1       0.164   9.906  20.338  0.00  0.00    +0.000 A 
ATOM      9  N   UNL     1      -0.517  10.486  19.330  0.00  0.00    +0.000 NA
ATOM     10  C   UNL     1      -0.197  10.079  18.093  0.00  0.00    +0.000 A 
ATOM     11  C   UNL     1       0.782   9.136  17.821  0.00  0.00    +0.000 A 
ATOM     12  C   UNL     1       1.469   8.512  18.870  0.00  0.00    +0.000 A 
ENDBRANCH   1  12
BRANCH   5  13
ATOM     13  C   UNL     1       1.577   5.381  19.695  0.00  0.00    +0.000 C 
ATOM     14  C   UNL     1       1.519   3.895  19.870  0.00  0.00    +0.000 C 
ATOM     15  C   UNL     1       1.961   4.768  21.014  0.00  0.00    +0.000 C 
ENDBRANCH   5  13
BRANCH   4  16
ATOM     16  C   UNL     1       4.361   4.394  18.368  0.00  0.00    +0.000 C 
BRANCH  16  17
ATOM     17  C   UNL     1       5.852   4.343  18.008  0.00  0.00    +0.000 C 
BRANCH  17  18
ATOM     18  N   UNL     1       6.095   4.087  16.600  0.00  0.00    +0.000 N 
ATOM     19  C   UNL     1       6.832   4.950  15.821  0.00  0.00    +0.000 C 
ATOM     20  O   UNL     1       7.433   5.920  16.270  0.00  0.00    +0.000 OA
ATOM     21  H   UNL     1       5.541   3.395  16.103  0.00  0.00    +0.000 HD
BRANCH  19  22
ATOM     22  C   UNL     1       6.864   4.629  14.365  0.00  0.00    +0.000 A 
ATOM     23  C   UNL     1       7.725   5.343  13.542  0.00  0.00    +0.000 A 
ATOM     24  C   UNL     1       7.751   5.028  12.190  0.00  0.00    +0.000 A 
ATOM     25  C   UNL     1       6.918   4.021  11.711  0.00  0.00    +0.000 A 
ATOM     26  C   UNL     1       6.088   3.362  12.608  0.00  0.00    +0.000 A 
ATOM     27  N   UNL     1       6.037   3.636  13.931  0.00  0.00    +0.000 NA
ENDBRANCH  19  22
ENDBRANCH  17  18
ENDBRANCH  16  17
ENDBRANCH   4  16
TORSDOF 6
ENDMDL
MODEL 8
REMARK VINA RESULT:      -7.8      2.608      8.490
REMARK  Name = 
REMARK  7 active torsions:
REMARK  status: ('A' for Active; 'I' for Inactive)
REMARK    1  A    between atoms: C_1  and  C_2
REMARK    2  A    between atoms: C_7  and  C_8
REMARK    3  A    between atoms: N_11  and  C_12
REMARK    4  A    between atoms: C_12  and  C_13
REMARK    5  A    between atoms: C_13  and  N_14
REMARK    6  A    between atoms: C_15  and  C_17
REMARK    7  A    between atoms: C_23  and  C_24
REMARK                            x       y       z     vdW  Elec       q    Type
REMARK                         _______ _______ _______ _____ _____    ______ ____
ROOT
ATOM      1  C   UNL     1       4.164   6.203  17.976  0.00  0.00    +0.000 A 
ATOM      2  C   UNL     1       3.587   7.487  17.827  0.00  0.00    +0.000 A 
ATOM      3  N   UNL     1       2.579   7.718  18.658  0.00  0.00    +0.000 NA
ATOM      4  N   UNL     1       2.484   6.585  19.379  0.00  0.00    +0.000 N 
ATOM      5  C   UNL     1       3.424   5.637  19.021  0.00  0.00    +0.000 A 
ENDROOT
BRANCH   1  12
ATOM      6  C   UNL     1       6.918   5.616  19.205  0.00  0.00    +0.000 C 
ATOM      7  C   UNL     1       6.533   5.330  17.782  0.00  0.00    +0.000 A 
ATOM      8  C   UNL     1       7.492   4.708  16.975  0.00  0.00    +0.000 A 
ATOM      9  N   UNL     1       7.329   4.402  15.673  0.00  0.00    +0.000 NA
ATOM     10  C   UNL     1       6.135   4.707  15.141  0.00  0.00    +0.000 A 
ATOM     11  C   UNL     1       5.098   5.284  15.857  0.00  0.00    +0.000 A 
ATOM     12  C   UNL     1       5.278   5.628  17.202  0.00  0.00    +0.000 A 
ENDBRANCH   1  12
BRANCH   5  13
ATOM     13  C   UNL     1       3.672   4.280  19.673  0.00  0.00    +0.000 C 
ATOM     14  C   UNL     1       2.669   3.212  19.980  0.00  0.00    +0.000 C 
ATOM     15  C   UNL     1       3.590   3.059  18.799  0.00  0.00    +0.000 C 
ENDBRANCH   5  13
BRANCH   4  16
ATOM     16  C   UNL     1       1.595   6.613  20.526  0.00  0.00    +0.000 C 
BRANCH  16  17
ATOM     17  C   UNL     1       1.507   7.995  21.184  0.00  0.00    +0.000 C 
BRANCH  17  18
ATOM     18  N   UNL     1       0.515   8.861  20.574  0.00  0.00    +0.000 N 
ATOM     19  C   UNL     1       0.394  10.187  20.922  0.00  0.00    +0.000 C 
ATOM     20  O   UNL     1       1.179  10.764  21.669  0.00  0.00    +0.000 OA
ATOM     21  H   UNL     1      -0.261   8.462  20.052  0.00  0.00    +0.000 HD
BRANCH  19  22
ATOM     22  C   UNL     1      -0.767  10.904  20.322  0.00  0.00    +0.000 A 
ATOM     23  C   UNL     1      -1.364  11.931  21.042  0.00  0.00    +0.000 A 
ATOM     24  C   UNL     1      -2.440  12.595  20.467  0.00  0.00    +0.000 A 
ATOM     25  C   UNL     1      -2.880  12.210  19.204  0.00  0.00    +0.000 A 
ATOM     26  C   UNL     1      -2.223  11.170  18.560  0.00  0.00    +0.000 A 
ATOM     27  N   UNL     1      -1.170  10.502  19.083  0.00  0.00    +0.000 NA
ENDBRANCH  19  22
ENDBRANCH  17  18
ENDBRANCH  16  17
ENDBRANCH   4  16
TORSDOF 6
ENDMDL
MODEL 9
REMARK VINA RESULT:      -7.8      1.940      3.527
REMARK  Name = 
REMARK  7 active torsions:
REMARK  status: ('A' for Active; 'I' for Inactive)
REMARK    1  A    between atoms: C_1  and  C_2
REMARK    2  A    between atoms: C_7  and  C_8
REMARK    3  A    between atoms: N_11  and  C_12
REMARK    4  A    between atoms: C_12  and  C_13
REMARK    5  A    between atoms: C_13  and  N_14
REMARK    6  A    between atoms: C_15  and  C_17
REMARK    7  A    between atoms: C_23  and  C_24
REMARK                            x       y       z     vdW  Elec       q    Type
REMARK                         _______ _______ _______ _____ _____    ______ ____
ROOT
ATOM      1  C   UNL     1       0.826   9.825  19.152  0.00  0.00    +0.000 A 
ATOM      2  C   UNL     1       1.361   9.339  17.936  0.00  0.00    +0.000 A 
ATOM      3  N   UNL     1       2.084   8.235  18.075  0.00  0.00    +0.000 NA
ATOM      4  N   UNL     1       2.024   7.970  19.393  0.00  0.00    +0.000 N 
ATOM      5  C   UNL     1       1.268   8.889  20.095  0.00  0.00    +0.000 A 
ENDROOT
BRANCH   1  12
ATOM      6  C   UNL     1       2.020  12.554  19.906  0.00  0.00    +0.000 C 
ATOM      7  C   UNL     1       0.561  12.291  19.664  0.00  0.00    +0.000 A 
ATOM      8  C   UNL     1      -0.306  13.386  19.746  0.00  0.00    +0.000 A 
ATOM      9  N   UNL     1      -1.643  13.330  19.585  0.00  0.00    +0.000 NA
ATOM     10  C   UNL     1      -2.152  12.122  19.301  0.00  0.00    +0.000 A 
ATOM     11  C   UNL     1      -1.383  10.977  19.153  0.00  0.00    +0.000 A 
ATOM     12  C   UNL     1       0.002  11.030  19.349  0.00  0.00    +0.000 A 
ENDBRANCH   1  12
BRANCH   5  13
ATOM     13  C   UNL     1       0.909   8.860  21.578  0.00  0.00    +0.000 C 
ATOM     14  C   UNL     1       0.043   9.823  22.330  0.00  0.00    +0.000 C 
ATOM     15  C   UNL     1      -0.495   8.469  21.949  0.00  0.00    +0.000 C 
ENDBRANCH   5  13
BRANCH   4  16
ATOM     16  C   UNL     1       2.553   6.689  19.826  0.00  0.00    +0.000 C 
BRANCH  16  17
ATOM     17  C   UNL     1       2.198   5.540  18.875  0.00  0.00    +0.000 C 
BRANCH  17  18
ATOM     18  N   UNL     1       3.173   5.346  17.817  0.00  0.00    +0.000 N 
ATOM     19  C   UNL     1       4.233   4.480  17.957  0.00  0.00    +0.000 C 
ATOM     20  O   UNL     1       4.369   3.725  18.915  0.00  0.00    +0.000 OA
ATOM     21  H   UNL     1       3.232   6.008  17.048  0.00  0.00    +0.000 HD
BRANCH  19  22
ATOM     22  C   UNL     1       5.230   4.504  16.848  0.00  0.00    +0.000 A 
ATOM     23  C   UNL     1       4.781   4.367  15.541  0.00  0.00    +0.000 A 
ATOM     24  C   UNL     1       5.719   4.400  14.519  0.00  0.00    +0.000 A 
ATOM     25  C   UNL     1       7.065   4.562  14.836  0.00  0.00    +0.000 A 
ATOM     26  C   UNL     1       7.422   4.688  16.172  0.00  0.00    +0.000 A 
ATOM     27  N   UNL     1       6.539   4.666  17.195  0.00  0.00    +0.000 NA
ENDBRANCH  19  22
ENDBRANCH  17  18
ENDBRANCH  16  17
ENDBRANCH   4  16
TORSDOF 6
ENDMDL
