MODEL 1
REMARK VINA RESULT:      -8.5      0.000      0.000
REMARK  Name = 
REMARK  6 active torsions:
REMARK  status: ('A' for Active; 'I' for Inactive)
REMARK    1  A    between atoms: C_1  and  N_2
REMARK    2  A    between atoms: N_2  and  C_3
REMARK    3  A    between atoms: N_2  and  C_4
REMARK    4  A    between atoms: C_4  and  C_5
REMARK    5  A    between atoms: C_5  and  C_6
REMARK    6  A    between atoms: C_6  and  N_7
REMARK                            x       y       z     vdW  Elec       q    Type
REMARK                         _______ _______ _______ _____ _____    ______ ____
ROOT
ATOM      1  N   UNL     1       2.526   6.943  18.446  0.00  0.00    +0.000 N 
ATOM      2  C   UNL     1       1.876   7.895  19.288  0.00  0.00    +0.000 A 
ATOM      3  C   UNL     1       1.635   9.338  19.275  0.00  0.00    +0.000 A 
ATOM      4  C   UNL     1       2.000  10.262  18.259  0.00  0.00    +0.000 A 
ATOM      5  C   UNL     1       1.776  11.637  18.397  0.00  0.00    +0.000 A 
ATOM      6  C   UNL     1       1.155  12.149  19.527  0.00  0.00    +0.000 A 
ATOM      7  C   UNL     1       0.753  11.279  20.532  0.00  0.00    +0.000 A 
ATOM      8  C   UNL     1       0.974   9.904  20.420  0.00  0.00    +0.000 A 
ATOM      9  C   UNL     1       0.537   9.115  21.477  0.00  0.00    +0.000 A 
ATOM     10  C   UNL     1       0.761   7.761  21.473  0.00  0.00    +0.000 A 
ATOM     11  C   UNL     1       1.437   7.165  20.398  0.00  0.00    +0.000 A 
ATOM     12  C   UNL     1       1.856   5.851  20.242  0.00  0.00    +0.000 A 
ATOM     13  O   UNL     1       1.738   4.912  21.195  0.00  0.00    +0.000 OA
ATOM     14  C   UNL     1       2.547   3.826  21.163  0.00  0.00    +0.000 A 
ATOM     15  O   UNL     1       2.553   3.010  22.080  0.00  0.00    +0.000 OA
ATOM     16  C   UNL     1       3.368   3.609  19.929  0.00  0.00    +0.000 A 
ATOM     17  C   UNL     1       3.916   2.335  19.840  0.00  0.00    +0.000 A 
ATOM     18  C   UNL     1       3.505   1.578  18.764  0.00  0.00    +0.000 A 
ATOM     19  C   UNL     1       3.162   2.245  17.597  0.00  0.00    +0.000 A 
ATOM     20  C   UNL     1       3.059   3.651  17.573  0.00  0.00    +0.000 A 
ATOM     21  C   UNL     1       3.068   4.358  18.773  0.00  0.00    +0.000 A 
ATOM     22  C   UNL     1       2.488   5.676  19.046  0.00  0.00    +0.000 A 
ENDROOT
BRANCH   1  23
ATOM     23  C   UNL     1       3.296   7.261  17.255  0.00  0.00    +0.000 C 
BRANCH  23  24
ATOM     24  C   UNL     1       4.808   7.028  17.324  0.00  0.00    +0.000 C 
BRANCH  24  25
ATOM     25  C   UNL     1       5.415   6.301  16.122  0.00  0.00    +0.000 C 
BRANCH  25  27
ATOM     26  C   UNL     1       7.410   6.881  17.339  0.00  0.00    +0.000 C 
ATOM     27  N   UNL     1       6.852   6.010  16.298  0.00  0.00    +0.000 NA
ATOM     28  C   UNL     1       7.119   4.610  16.634  0.00  0.00    +0.000 C 
ENDBRANCH  25  27
ENDBRANCH  24  25
ENDBRANCH  23  24
ENDBRANCH   1  23
TORSDOF 4
ENDMDL
MODEL 2
REMARK VINA RESULT:      -8.0      4.445      8.899
REMARK  Name = 
REMARK  6 active torsions:
REMARK  status: ('A' for Active; 'I' for Inactive)
REMARK    1  A    between atoms: C_1  and  N_2
REMARK    2  A    between atoms: N_2  and  C_3
REMARK    3  A    between atoms: N_2  and  C_4
REMARK    4  A    between atoms: C_4  and  C_5
REMARK    5  A    between atoms: C_5  and  C_6
REMARK    6  A    between atoms: C_6  and  N_7
REMARK                            x       y       z     vdW  Elec       q    Type
REMARK                         _______ _______ _______ _____ _____    ______ ____
ROOT
ATOM      1  N   UNL     1      -0.628  11.752  19.844  0.00  0.00    +0.000 N 
ATOM      2  C   UNL     1       0.066  10.569  20.240  0.00  0.00    +0.000 A 
ATOM      3  C   UNL     1       0.935   9.580  19.601  0.00  0.00    +0.000 A 
ATOM      4  C   UNL     1       1.401   9.584  18.259  0.00  0.00    +0.000 A 
ATOM      5  C   UNL     1       2.175   8.537  17.743  0.00  0.00    +0.000 A 
ATOM      6  C   UNL     1       2.545   7.464  18.540  0.00  0.00    +0.000 A 
ATOM      7  C   UNL     1       2.138   7.433  19.867  0.00  0.00    +0.000 A 
ATOM      8  C   UNL     1       1.358   8.463  20.401  0.00  0.00    +0.000 A 
ATOM      9  C   UNL     1       1.001   8.343  21.739  0.00  0.00    +0.000 A 
ATOM     10  C   UNL     1       0.192   9.282  22.329  0.00  0.00    +0.000 A 
ATOM     11  C   UNL     1      -0.281  10.371  21.581  0.00  0.00    +0.000 A 
ATOM     12  C   UNL     1      -1.179  11.364  21.943  0.00  0.00    +0.000 A 
ATOM     13  O   UNL     1      -1.834  11.385  23.116  0.00  0.00    +0.000 OA
ATOM     14  C   UNL     1      -2.991  12.084  23.220  0.00  0.00    +0.000 A 
ATOM     15  O   UNL     1      -3.678  12.028  24.236  0.00  0.00    +0.000 OA
ATOM     16  C   UNL     1      -3.354  12.995  22.089  0.00  0.00    +0.000 A 
ATOM     17  C   UNL     1      -4.363  13.898  22.402  0.00  0.00    +0.000 A 
ATOM     18  C   UNL     1      -4.017  15.231  22.344  0.00  0.00    +0.000 A 
ATOM     19  C   UNL     1      -3.037  15.606  21.436  0.00  0.00    +0.000 A 
ATOM     20  C   UNL     1      -2.295  14.635  20.733  0.00  0.00    +0.000 A 
ATOM     21  C   UNL     1      -2.376  13.300  21.120  0.00  0.00    +0.000 A 
ATOM     22  C   UNL     1      -1.381  12.242  20.920  0.00  0.00    +0.000 A 
ENDROOT
BRANCH   1  23
ATOM     23  C   UNL     1      -0.716  12.260  18.485  0.00  0.00    +0.000 C 
BRANCH  23  24
ATOM     24  C   UNL     1      -1.973  11.897  17.689  0.00  0.00    +0.000 C 
BRANCH  24  25
ATOM     25  C   UNL     1      -2.061  10.439  17.231  0.00  0.00    +0.000 C 
BRANCH  25  27
ATOM     26  C   UNL     1      -4.305  11.133  16.701  0.00  0.00    +0.000 C 
ATOM     27  N   UNL     1      -3.237  10.180  16.377  0.00  0.00    +0.000 NA
ATOM     28  C   UNL     1      -2.935  10.249  14.946  0.00  0.00    +0.000 C 
ENDBRANCH  25  27
ENDBRANCH  24  25
ENDBRANCH  23  24
ENDBRANCH   1  23
TORSDOF 4
ENDMDL
MODEL 3
REMARK VINA RESULT:      -7.6      4.933      9.291
REMARK  Name = 
REMARK  6 active torsions:
REMARK  status: ('A' for Active; 'I' for Inactive)
REMARK    1  A    between atoms: C_1  and  N_2
REMARK    2  A    between atoms: N_2  and  C_3
REMARK    3  A    between atoms: N_2  and  C_4
REMARK    4  A    between atoms: C_4  and  C_5
REMARK    5  A    between atoms: C_5  and  C_6
REMARK    6  A    between atoms: C_6  and  N_7
REMARK                            x       y       z     vdW  Elec       q    Type
REMARK                         _______ _______ _______ _____ _____    ______ ____
ROOT
ATOM      1  N   UNL     1      -1.329  11.945  20.254  0.00  0.00    +0.000 N 
ATOM      2  C   UNL     1      -0.500  10.862  20.678  0.00  0.00    +0.000 A 
ATOM      3  C   UNL     1       0.421   9.917  20.048  0.00  0.00    +0.000 A 
ATOM      4  C   UNL     1       0.804   9.870  18.680  0.00  0.00    +0.000 A 
ATOM      5  C   UNL     1       1.644   8.867  18.182  0.00  0.00    +0.000 A 
ATOM      6  C   UNL     1       2.164   7.891  19.021  0.00  0.00    +0.000 A 
ATOM      7  C   UNL     1       1.841   7.916  20.371  0.00  0.00    +0.000 A 
ATOM      8  C   UNL     1       0.998   8.903  20.888  0.00  0.00    +0.000 A 
ATOM      9  C   UNL     1       0.734   8.844  22.251  0.00  0.00    +0.000 A 
ATOM     10  C   UNL     1      -0.126   9.742  22.832  0.00  0.00    +0.000 A 
ATOM     11  C   UNL     1      -0.746  10.727  22.049  0.00  0.00    +0.000 A 
ATOM     12  C   UNL     1      -1.715  11.654  22.406  0.00  0.00    +0.000 A 
ATOM     13  O   UNL     1      -2.297  11.696  23.615  0.00  0.00    +0.000 OA
ATOM     14  C   UNL     1      -3.509  12.290  23.750  0.00  0.00    +0.000 A 
ATOM     15  O   UNL     1      -4.125  12.240  24.811  0.00  0.00    +0.000 OA
ATOM     16  C   UNL     1      -4.025  13.082  22.590  0.00  0.00    +0.000 A 
ATOM     17  C   UNL     1      -5.097  13.906  22.910  0.00  0.00    +0.000 A 
ATOM     18  C   UNL     1      -4.888  15.258  22.744  0.00  0.00    +0.000 A 
ATOM     19  C   UNL     1      -4.005  15.658  21.752  0.00  0.00    +0.000 A 
ATOM     20  C   UNL     1      -3.214  14.714  21.065  0.00  0.00    +0.000 A 
ATOM     21  C   UNL     1      -3.141  13.408  21.541  0.00  0.00    +0.000 A 
ATOM     22  C   UNL     1      -2.062  12.436  21.344  0.00  0.00    +0.000 A 
ENDROOT
BRANCH   1  23
ATOM     23  C   UNL     1      -1.548  12.346  18.874  0.00  0.00    +0.000 C 
BRANCH  23  24
ATOM     24  C   UNL     1      -2.572  11.539  18.071  0.00  0.00    +0.000 C 
BRANCH  24  25
ATOM     25  C   UNL     1      -2.126  11.128  16.665  0.00  0.00    +0.000 C 
BRANCH  25  27
ATOM     26  C   UNL     1      -3.074  10.082  14.714  0.00  0.00    +0.000 C 
ATOM     27  N   UNL     1      -3.227  11.175  15.682  0.00  0.00    +0.000 NA
ATOM     28  C   UNL     1      -4.553  11.101  16.299  0.00  0.00    +0.000 C 
ENDBRANCH  25  27
ENDBRANCH  24  25
ENDBRANCH  23  24
ENDBRANCH   1  23
TORSDOF 4
ENDMDL
MODEL 4
REMARK VINA RESULT:      -7.4      2.420      4.497
REMARK  Name = 
REMARK  6 active torsions:
REMARK  status: ('A' for Active; 'I' for Inactive)
REMARK    1  A    between atoms: C_1  and  N_2
REMARK    2  A    between atoms: N_2  and  C_3
REMARK    3  A    between atoms: N_2  and  C_4
REMARK    4  A    between atoms: C_4  and  C_5
REMARK    5  A    between atoms: C_5  and  C_6
REMARK    6  A    between atoms: C_6  and  N_7
REMARK                            x       y       z     vdW  Elec       q    Type
REMARK                         _______ _______ _______ _____ _____    ______ ____
ROOT
ATOM      1  N   UNL     1       3.137   6.529  19.452  0.00  0.00    +0.000 N 
ATOM      2  C   UNL     1       2.347   7.715  19.362  0.00  0.00    +0.000 A 
ATOM      3  C   UNL     1       1.266   8.335  20.129  0.00  0.00    +0.000 A 
ATOM      4  C   UNL     1       0.694   7.866  21.343  0.00  0.00    +0.000 A 
ATOM      5  C   UNL     1      -0.390   8.514  21.947  0.00  0.00    +0.000 A 
ATOM      6  C   UNL     1      -0.930   9.667  21.394  0.00  0.00    +0.000 A 
ATOM      7  C   UNL     1      -0.383  10.178  20.225  0.00  0.00    +0.000 A 
ATOM      8  C   UNL     1       0.694   9.544  19.600  0.00  0.00    +0.000 A 
ATOM      9  C   UNL     1       1.173  10.131  18.436  0.00  0.00    +0.000 A 
ATOM     10  C   UNL     1       2.193   9.544  17.729  0.00  0.00    +0.000 A 
ATOM     11  C   UNL     1       2.758   8.342  18.181  0.00  0.00    +0.000 A 
ATOM     12  C   UNL     1       3.712   7.536  17.576  0.00  0.00    +0.000 A 
ATOM     13  O   UNL     1       4.208   7.762  16.348  0.00  0.00    +0.000 OA
ATOM     14  C   UNL     1       4.758   6.735  15.654  0.00  0.00    +0.000 A 
ATOM     15  O   UNL     1       5.110   6.876  14.486  0.00  0.00    +0.000 OA
ATOM     16  C   UNL     1       5.001   5.454  16.388  0.00  0.00    +0.000 A 
ATOM     17  C   UNL     1       5.841   4.575  15.714  0.00  0.00    +0.000 A 
ATOM     18  C   UNL     1       7.022   4.264  16.351  0.00  0.00    +0.000 A 
ATOM     19  C   UNL     1       7.029   4.269  17.739  0.00  0.00    +0.000 A 
ATOM     20  C   UNL     1       5.922   4.755  18.464  0.00  0.00    +0.000 A 
ATOM     21  C   UNL     1       4.918   5.449  17.795  0.00  0.00    +0.000 A 
ATOM     22  C   UNL     1       3.992   6.444  18.344  0.00  0.00    +0.000 A 
ENDROOT
BRANCH   1  23
ATOM     23  C   UNL     1       2.946   5.463  20.421  0.00  0.00    +0.000 C 
BRANCH  23  24
ATOM     24  C   UNL     1       1.829   4.456  20.134  0.00  0.00    +0.000 C 
BRANCH  24  25
ATOM     25  C   UNL     1       2.264   2.989  20.087  0.00  0.00    +0.000 C 
BRANCH  25  27
ATOM     26  C   UNL     1       1.781   3.454  17.774  0.00  0.00    +0.000 C 
ATOM     27  N   UNL     1       2.198   2.419  18.727  0.00  0.00    +0.000 NA
ATOM     28  C   UNL     1       3.464   1.830  18.288  0.00  0.00    +0.000 C 
ENDBRANCH  25  27
ENDBRANCH  24  25
ENDBRANCH  23  24
ENDBRANCH   1  23
TORSDOF 4
ENDMDL
MODEL 5
REMARK VINA RESULT:      -7.4      4.601      8.896
REMARK  Name = 
REMARK  6 active torsions:
REMARK  status: ('A' for Active; 'I' for Inactive)
REMARK    1  A    between atoms: C_1  and  N_2
REMARK    2  A    between atoms: N_2  and  C_3
REMARK    3  A    between atoms: N_2  and  C_4
REMARK    4  A    between atoms: C_4  and  C_5
REMARK    5  A    between atoms: C_5  and  C_6
REMARK    6  A    between atoms: C_6  and  N_7
REMARK                            x       y       z     vdW  Elec       q    Type
REMARK                         _______ _______ _______ _____ _____    ______ ____
ROOT
ATOM      1  N   UNL     1      -0.892  12.023  20.080  0.00  0.00    +0.000 N 
ATOM      2  C   UNL     1      -0.186  10.838  20.444  0.00  0.00    +0.000 A 
ATOM      3  C   UNL     1       0.704   9.883  19.783  0.00  0.00    +0.000 A 
ATOM      4  C   UNL     1       1.185   9.938  18.447  0.00  0.00    +0.000 A 
ATOM      5  C   UNL     1       1.979   8.921  17.905  0.00  0.00    +0.000 A 
ATOM      6  C   UNL     1       2.356   7.827  18.671  0.00  0.00    +0.000 A 
ATOM      7  C   UNL     1       1.935   7.746  19.991  0.00  0.00    +0.000 A 
ATOM      8  C   UNL     1       1.135   8.746  20.550  0.00  0.00    +0.000 A 
ATOM      9  C   UNL     1       0.765   8.576  21.879  0.00  0.00    +0.000 A 
ATOM     10  C   UNL     1      -0.064   9.484  22.491  0.00  0.00    +0.000 A 
ATOM     11  C   UNL     1      -0.545  10.590  21.774  0.00  0.00    +0.000 A 
ATOM     12  C   UNL     1      -1.462  11.557  22.159  0.00  0.00    +0.000 A 
ATOM     13  O   UNL     1      -2.129  11.530  23.325  0.00  0.00    +0.000 OA
ATOM     14  C   UNL     1      -3.297  12.208  23.438  0.00  0.00    +0.000 A 
ATOM     15  O   UNL     1      -3.994  12.108  24.444  0.00  0.00    +0.000 OA
ATOM     16  C   UNL     1      -3.661  13.152  22.334  0.00  0.00    +0.000 A 
ATOM     17  C   UNL     1      -4.686  14.029  22.665  0.00  0.00    +0.000 A 
ATOM     18  C   UNL     1      -4.359  15.368  22.656  0.00  0.00    +0.000 A 
ATOM     19  C   UNL     1      -3.375  15.787  21.772  0.00  0.00    +0.000 A 
ATOM     20  C   UNL     1      -2.611  14.851  21.046  0.00  0.00    +0.000 A 
ATOM     21  C   UNL     1      -2.677  13.503  21.387  0.00  0.00    +0.000 A 
ATOM     22  C   UNL     1      -1.665  12.466  21.163  0.00  0.00    +0.000 A 
ENDROOT
BRANCH   1  23
ATOM     23  C   UNL     1      -0.974  12.575  18.738  0.00  0.00    +0.000 C 
BRANCH  23  24
ATOM     24  C   UNL     1      -0.125  13.815  18.444  0.00  0.00    +0.000 C 
BRANCH  24  25
ATOM     25  C   UNL     1       1.388  13.585  18.427  0.00  0.00    +0.000 C 
BRANCH  25  27
ATOM     26  C   UNL     1       2.434  13.467  20.593  0.00  0.00    +0.000 C 
ATOM     27  N   UNL     1       2.094  14.352  19.473  0.00  0.00    +0.000 NA
ATOM     28  C   UNL     1       3.305  15.012  18.984  0.00  0.00    +0.000 C 
ENDBRANCH  25  27
ENDBRANCH  24  25
ENDBRANCH  23  24
ENDBRANCH   1  23
TORSDOF 4
ENDMDL
MODEL 6
REMARK VINA RESULT:      -7.2      1.592      6.000
REMARK  Name = 
REMARK  6 active torsions:
REMARK  status: ('A' for Active; 'I' for Inactive)
REMARK    1  A    between atoms: C_1  and  N_2
REMARK    2  A    between atoms: N_2  and  C_3
REMARK    3  A    between atoms: N_2  and  C_4
REMARK    4  A    between atoms: C_4  and  C_5
REMARK    5  A    between atoms: C_5  and  C_6
REMARK    6  A    between atoms: C_6  and  N_7
REMARK                            x       y       z     vdW  Elec       q    Type
REMARK                         _______ _______ _______ _____ _____    ______ ____
ROOT
ATOM      1  N   UNL     1       2.776   7.315  18.187  0.00  0.00    +0.000 N 
ATOM      2  C   UNL     1       2.655   6.133  18.978  0.00  0.00    +0.000 A 
ATOM      3  C   UNL     1       3.040   4.726  18.857  0.00  0.00    +0.000 A 
ATOM      4  C   UNL     1       3.770   4.123  17.798  0.00  0.00    +0.000 A 
ATOM      5  C   UNL     1       4.017   2.745  17.762  0.00  0.00    +0.000 A 
ATOM      6  C   UNL     1       3.580   1.916  18.785  0.00  0.00    +0.000 A 
ATOM      7  C   UNL     1       2.889   2.467  19.856  0.00  0.00    +0.000 A 
ATOM      8  C   UNL     1       2.624   3.838  19.908  0.00  0.00    +0.000 A 
ATOM      9  C   UNL     1       1.927   4.295  21.020  0.00  0.00    +0.000 A 
ATOM     10  C   UNL     1       1.579   5.619  21.126  0.00  0.00    +0.000 A 
ATOM     11  C   UNL     1       1.925   6.519  20.108  0.00  0.00    +0.000 A 
ATOM     12  C   UNL     1       1.588   7.858  19.964  0.00  0.00    +0.000 A 
ATOM     13  O   UNL     1       0.757   8.510  20.794  0.00  0.00    +0.000 OA
ATOM     14  C   UNL     1       0.125   9.628  20.359  0.00  0.00    +0.000 A 
ATOM     15  O   UNL     1      -0.731  10.181  21.044  0.00  0.00    +0.000 OA
ATOM     16  C   UNL     1       0.572  10.214  19.056  0.00  0.00    +0.000 A 
ATOM     17  C   UNL     1       0.111  11.507  18.839  0.00  0.00    +0.000 A 
ATOM     18  C   UNL     1       1.080  12.480  18.723  0.00  0.00    +0.000 A 
ATOM     19  C   UNL     1       2.311  12.108  18.199  0.00  0.00    +0.000 A 
ATOM     20  C   UNL     1       2.617  10.751  17.970  0.00  0.00    +0.000 A 
ATOM     21  C   UNL     1       1.781   9.765  18.487  0.00  0.00    +0.000 A 
ATOM     22  C   UNL     1       2.124   8.380  18.824  0.00  0.00    +0.000 A 
ENDROOT
BRANCH   1  23
ATOM     23  C   UNL     1       3.305   7.371  16.835  0.00  0.00    +0.000 C 
BRANCH  23  24
ATOM     24  C   UNL     1       4.821   7.217  16.675  0.00  0.00    +0.000 C 
BRANCH  24  25
ATOM     25  C   UNL     1       5.271   6.344  15.501  0.00  0.00    +0.000 C 
BRANCH  25  27
ATOM     26  C   UNL     1       7.108   6.085  17.035  0.00  0.00    +0.000 C 
ATOM     27  N   UNL     1       6.646   5.833  15.665  0.00  0.00    +0.000 NA
ATOM     28  C   UNL     1       6.770   4.406  15.361  0.00  0.00    +0.000 C 
ENDBRANCH  25  27
ENDBRANCH  24  25
ENDBRANCH  23  24
ENDBRANCH   1  23
TORSDOF 4
ENDMDL
MODEL 7
REMARK VINA RESULT:      -6.9      5.668     10.198
REMARK  Name = 
REMARK  6 active torsions:
REMARK  status: ('A' for Active; 'I' for Inactive)
REMARK    1  A    between atoms: C_1  and  N_2
REMARK    2  A    between atoms: N_2  and  C_3
REMARK    3  A    between atoms: N_2  and  C_4
REMARK    4  A    between atoms: C_4  and  C_5
REMARK    5  A    between atoms: C_5  and  C_6
REMARK    6  A    between atoms: C_6  and  N_7
REMARK                            x       y       z     vdW  Elec       q    Type
REMARK                         _______ _______ _______ _____ _____    ______ ____
ROOT
ATOM      1  N   UNL     1      -2.087  12.242  20.554  0.00  0.00    +0.000 N 
ATOM      2  C   UNL     1      -1.127  11.247  20.910  0.00  0.00    +0.000 A 
ATOM      3  C   UNL     1      -0.161  10.401  20.209  0.00  0.00    +0.000 A 
ATOM      4  C   UNL     1       0.130  10.398  18.818  0.00  0.00    +0.000 A 
ATOM      5  C   UNL     1       1.030   9.487  18.253  0.00  0.00    +0.000 A 
ATOM      6  C   UNL     1       1.701   8.565  19.044  0.00  0.00    +0.000 A 
ATOM      7  C   UNL     1       1.471   8.552  20.413  0.00  0.00    +0.000 A 
ATOM      8  C   UNL     1       0.571   9.447  20.997  0.00  0.00    +0.000 A 
ATOM      9  C   UNL     1       0.408   9.357  22.374  0.00  0.00    +0.000 A 
ATOM     10  C   UNL     1      -0.495  10.162  23.021  0.00  0.00    +0.000 A 
ATOM     11  C   UNL     1      -1.264  11.082  22.293  0.00  0.00    +0.000 A 
ATOM     12  C   UNL     1      -2.293  11.906  22.724  0.00  0.00    +0.000 A 
ATOM     13  O   UNL     1      -2.793  11.884  23.971  0.00  0.00    +0.000 OA
ATOM     14  C   UNL     1      -4.045  12.353  24.194  0.00  0.00    +0.000 A 
ATOM     15  O   UNL     1      -4.580  12.238  25.293  0.00  0.00    +0.000 OA
ATOM     16  C   UNL     1      -4.717  13.093  23.080  0.00  0.00    +0.000 A 
ATOM     17  C   UNL     1      -5.842  13.804  23.480  0.00  0.00    +0.000 A 
ATOM     18  C   UNL     1      -5.780  15.171  23.316  0.00  0.00    +0.000 A 
ATOM     19  C   UNL     1      -5.012  15.662  22.270  0.00  0.00    +0.000 A 
ATOM     20  C   UNL     1      -4.180  14.805  21.521  0.00  0.00    +0.000 A 
ATOM     21  C   UNL     1      -3.944  13.511  21.977  0.00  0.00    +0.000 A 
ATOM     22  C   UNL     1      -2.788  12.653  21.696  0.00  0.00    +0.000 A 
ENDROOT
BRANCH   1  23
ATOM     23  C   UNL     1      -2.438  12.625  19.197  0.00  0.00    +0.000 C 
BRANCH  23  24
ATOM     24  C   UNL     1      -3.247  11.614  18.378  0.00  0.00    +0.000 C 
BRANCH  24  25
ATOM     25  C   UNL     1      -4.699  11.424  18.821  0.00  0.00    +0.000 C 
BRANCH  25  27
ATOM     26  C   UNL     1      -6.074  12.616  17.243  0.00  0.00    +0.000 C 
ATOM     27  N   UNL     1      -5.524  12.629  18.604  0.00  0.00    +0.000 NA
ATOM     28  C   UNL     1      -6.614  12.763  19.572  0.00  0.00    +0.000 C 
ENDBRANCH  25  27
ENDBRANCH  24  25
ENDBRANCH  23  24
ENDBRANCH   1  23
TORSDOF 4
ENDMDL
MODEL 8
REMARK VINA RESULT:      -6.7      7.437     11.428
REMARK  Name = 
REMARK  6 active torsions:
REMARK  status: ('A' for Active; 'I' for Inactive)
REMARK    1  A    between atoms: C_1  and  N_2
REMARK    2  A    between atoms: N_2  and  C_3
REMARK    3  A    between atoms: N_2  and  C_4
REMARK    4  A    between atoms: C_4  and  C_5
REMARK    5  A    between atoms: C_5  and  C_6
REMARK    6  A    between atoms: C_6  and  N_7
REMARK                            x       y       z     vdW  Elec       q    Type
REMARK                         _______ _______ _______ _____ _____    ______ ____
ROOT
ATOM      1  N   UNL     1      -3.913  13.336  20.562  0.00  0.00    +0.000 N 
ATOM      2  C   UNL     1      -2.874  12.626  19.888  0.00  0.00    +0.000 A 
ATOM      3  C   UNL     1      -2.778  11.682  18.774  0.00  0.00    +0.000 A 
ATOM      4  C   UNL     1      -3.837  11.215  17.949  0.00  0.00    +0.000 A 
ATOM      5  C   UNL     1      -3.628  10.253  16.954  0.00  0.00    +0.000 A 
ATOM      6  C   UNL     1      -2.362   9.738  16.714  0.00  0.00    +0.000 A 
ATOM      7  C   UNL     1      -1.292  10.188  17.476  0.00  0.00    +0.000 A 
ATOM      8  C   UNL     1      -1.478  11.142  18.479  0.00  0.00    +0.000 A 
ATOM      9  C   UNL     1      -0.347  11.530  19.187  0.00  0.00    +0.000 A 
ATOM     10  C   UNL     1      -0.449  12.423  20.225  0.00  0.00    +0.000 A 
ATOM     11  C   UNL     1      -1.700  12.949  20.578  0.00  0.00    +0.000 A 
ATOM     12  C   UNL     1      -2.041  13.771  21.643  0.00  0.00    +0.000 A 
ATOM     13  O   UNL     1      -1.177  14.144  22.602  0.00  0.00    +0.000 OA
ATOM     14  C   UNL     1      -1.653  14.540  23.808  0.00  0.00    +0.000 A 
ATOM     15  O   UNL     1      -0.895  14.772  24.745  0.00  0.00    +0.000 OA
ATOM     16  C   UNL     1      -3.128  14.772  23.929  0.00  0.00    +0.000 A 
ATOM     17  C   UNL     1      -3.491  15.469  25.075  0.00  0.00    +0.000 A 
ATOM     18  C   UNL     1      -4.099  16.689  24.871  0.00  0.00    +0.000 A 
ATOM     19  C   UNL     1      -4.856  16.848  23.719  0.00  0.00    +0.000 A 
ATOM     20  C   UNL     1      -4.850  15.864  22.709  0.00  0.00    +0.000 A 
ATOM     21  C   UNL     1      -3.904  14.844  22.754  0.00  0.00    +0.000 A 
ATOM     22  C   UNL     1      -3.374  14.056  21.637  0.00  0.00    +0.000 A 
ENDROOT
BRANCH   1  23
ATOM     23  C   UNL     1      -5.336  13.178  20.314  0.00  0.00    +0.000 C 
BRANCH  23  24
ATOM     24  C   UNL     1      -6.170  12.547  21.433  0.00  0.00    +0.000 C 
BRANCH  24  25
ATOM     25  C   UNL     1      -7.386  11.742  20.970  0.00  0.00    +0.000 C 
BRANCH  25  27
ATOM     26  C   UNL     1      -7.916   9.393  21.021  0.00  0.00    +0.000 C 
ATOM     27  N   UNL     1      -7.023  10.409  20.451  0.00  0.00    +0.000 NA
ATOM     28  C   UNL     1      -7.062  10.330  18.989  0.00  0.00    +0.000 C 
ENDBRANCH  25  27
ENDBRANCH  24  25
ENDBRANCH  23  24
ENDBRANCH   1  23
TORSDOF 4
ENDMDL
MODEL 9
REMARK VINA RESULT:      -6.6      8.316     10.766
REMARK  Name = 
REMARK  6 active torsions:
REMARK  status: ('A' for Active; 'I' for Inactive)
REMARK    1  A    between atoms: C_1  and  N_2
REMARK    2  A    between atoms: N_2  and  C_3
REMARK    3  A    between atoms: N_2  and  C_4
REMARK    4  A    between atoms: C_4  and  C_5
REMARK    5  A    between atoms: C_5  and  C_6
REMARK    6  A    between atoms: C_6  and  N_7
REMARK                            x       y       z     vdW  Elec       q    Type
REMARK                         _______ _______ _______ _____ _____    ______ ____
ROOT
ATOM      1  N   UNL     1       8.888  14.463  21.541  0.00  0.00    +0.000 N 
ATOM      2  C   UNL     1       9.418  13.481  20.651  0.00  0.00    +0.000 A 
ATOM      3  C   UNL     1      10.095  13.474  19.354  0.00  0.00    +0.000 A 
ATOM      4  C   UNL     1      10.486  14.600  18.581  0.00  0.00    +0.000 A 
ATOM      5  C   UNL     1      11.067  14.462  17.315  0.00  0.00    +0.000 A 
ATOM      6  C   UNL     1      11.314  13.208  16.777  0.00  0.00    +0.000 A 
ATOM      7  C   UNL     1      10.976  12.078  17.510  0.00  0.00    +0.000 A 
ATOM      8  C   UNL     1      10.388  12.192  18.772  0.00  0.00    +0.000 A 
ATOM      9  C   UNL     1      10.086  11.004  19.428  0.00  0.00    +0.000 A 
ATOM     10  C   UNL     1       9.459  11.024  20.649  0.00  0.00    +0.000 A 
ATOM     11  C   UNL     1       9.115  12.249  21.241  0.00  0.00    +0.000 A 
ATOM     12  C   UNL     1       8.395  12.493  22.401  0.00  0.00    +0.000 A 
ATOM     13  O   UNL     1       7.812  11.530  23.134  0.00  0.00    +0.000 OA
ATOM     14  C   UNL     1       6.780  11.849  23.953  0.00  0.00    +0.000 A 
ATOM     15  O   UNL     1       6.146  10.980  24.544  0.00  0.00    +0.000 OA
ATOM     16  C   UNL     1       6.499  13.302  24.179  0.00  0.00    +0.000 A 
ATOM     17  C   UNL     1       5.653  13.546  25.255  0.00  0.00    +0.000 A 
ATOM     18  C   UNL     1       6.190  14.283  26.287  0.00  0.00    +0.000 A 
ATOM     19  C   UNL     1       7.166  15.219  25.975  0.00  0.00    +0.000 A 
ATOM     20  C   UNL     1       7.718  15.280  24.678  0.00  0.00    +0.000 A 
ATOM     21  C   UNL     1       7.459  14.252  23.776  0.00  0.00    +0.000 A 
ATOM     22  C   UNL     1       8.273  13.832  22.632  0.00  0.00    +0.000 A 
ENDROOT
BRANCH   1  23
ATOM     23  C   UNL     1       8.806  15.888  21.268  0.00  0.00    +0.000 C 
BRANCH  23  24
ATOM     24  C   UNL     1       7.474  16.415  20.725  0.00  0.00    +0.000 C 
BRANCH  24  25
ATOM     25  C   UNL     1       7.275  16.264  19.215  0.00  0.00    +0.000 C 
BRANCH  25  27
ATOM     26  C   UNL     1       5.048  15.597  18.588  0.00  0.00    +0.000 C 
ATOM     27  N   UNL     1       6.408  15.121  18.866  0.00  0.00    +0.000 NA
ATOM     28  C   UNL     1       6.902  14.353  17.722  0.00  0.00    +0.000 C 
ENDBRANCH  25  27
ENDBRANCH  24  25
ENDBRANCH  23  24
ENDBRANCH   1  23
TORSDOF 4
ENDMDL
