MODEL 1
REMARK VINA RESULT:      -6.8      0.000      0.000
REMARK  Name = 
REMARK  8 active torsions:
REMARK  status: ('A' for Active; 'I' for Inactive)
REMARK    1  A    between atoms: C_1  and  C_2
REMARK    2  A    between atoms: C_2  and  C_3
REMARK    3  A    between atoms: C_2  and  C_4
REMARK    4  A    between atoms: C_2  and  O_5
REMARK    5  A    between atoms: O_5  and  C_6
REMARK    6  A    between atoms: N_8  and  C_9
REMARK    7  A    between atoms: C_15  and  C_16
REMARK    8  A    between atoms: C_16  and  O_18
REMARK                            x       y       z     vdW  Elec       q    Type
REMARK                         _______ _______ _______ _____ _____    ______ ____
ROOT
ATOM      1  C   UNL     1       4.254   4.021  19.294  0.00  0.00    +0.000 C 
ATOM      2  C   UNL     1       3.612   5.367  19.660  0.00  0.00    +0.000 C 
ATOM      3  C   UNL     1       2.110   5.463  19.412  0.00  0.00    +0.000 C 
ATOM      4  C   UNL     1       1.282   4.985  20.597  0.00  0.00    +0.000 C 
ATOM      5  C   UNL     1       1.332   3.488  20.864  0.00  0.00    +0.000 C 
ATOM      6  C   UNL     1       2.729   2.899  21.059  0.00  0.00    +0.000 C 
ATOM      7  C   UNL     1       3.519   2.745  19.744  0.00  0.00    +0.000 C 
ENDROOT
BRANCH   1  10
ATOM      8  C   UNL     1       5.851   4.085  17.421  0.00  0.00    +0.000 C 
ATOM      9  O   UNL     1       6.755   4.447  18.156  0.00  0.00    +0.000 OA
ATOM     10  N   UNL     1       4.557   3.935  17.856  0.00  0.00    +0.000 N 
ATOM     11  H   UNL     1       3.850   4.108  17.151  0.00  0.00    +0.000 HD
BRANCH   8  12
ATOM     12  O   UNL     1       5.986   3.667  16.138  0.00  0.00    +0.000 OA
BRANCH  12  14
ATOM     13  C   UNL     1       5.264   5.969  15.527  0.00  0.00    +0.000 C 
ATOM     14  C   UNL     1       5.989   4.683  15.087  0.00  0.00    +0.000 C 
ATOM     15  C   UNL     1       5.387   4.105  13.800  0.00  0.00    +0.000 C 
ATOM     16  C   UNL     1       7.454   5.062  14.822  0.00  0.00    +0.000 C 
ENDBRANCH  12  14
ENDBRANCH   8  12
ENDBRANCH   1  10
BRANCH   7  17
ATOM     17  C   UNL     1       4.543   1.614  19.894  0.00  0.00    +0.000 C 
ATOM     18  O   UNL     1       5.300   1.475  20.844  0.00  0.00    +0.000 OA
BRANCH  17  19
ATOM     19  O   UNL     1       4.513   0.718  18.882  0.00  0.00    +0.000 OA
ATOM     20  H   UNL     1       5.003   1.015  18.090  0.00  0.00    +0.000 HD
ENDBRANCH  17  19
ENDBRANCH   7  17
TORSDOF 5
ENDMDL
MODEL 2
REMARK VINA RESULT:      -6.7      0.221      1.050
REMARK  Name = 
REMARK  8 active torsions:
REMARK  status: ('A' for Active; 'I' for Inactive)
REMARK    1  A    between atoms: C_1  and  C_2
REMARK    2  A    between atoms: C_2  and  C_3
REMARK    3  A    between atoms: C_2  and  C_4
REMARK    4  A    between atoms: C_2  and  O_5
REMARK    5  A    between atoms: O_5  and  C_6
REMARK    6  A    between atoms: N_8  and  C_9
REMARK    7  A    between atoms: C_15  and  C_16
REMARK    8  A    between atoms: C_16  and  O_18
REMARK                            x       y       z     vdW  Elec       q    Type
REMARK                         _______ _______ _______ _____ _____    ______ ____
ROOT
ATOM      1  C   UNL     1       4.344   4.117  19.191  0.00  0.00    +0.000 C 
ATOM      2  C   UNL     1       3.787   5.504  19.540  0.00  0.00    +0.000 C 
ATOM      3  C   UNL     1       2.292   5.687  19.298  0.00  0.00    +0.000 C 
ATOM      4  C   UNL     1       1.443   5.277  20.494  0.00  0.00    +0.000 C 
ATOM      5  C   UNL     1       1.404   3.784  20.782  0.00  0.00    +0.000 C 
ATOM      6  C   UNL     1       2.764   3.114  20.979  0.00  0.00    +0.000 C 
ATOM      7  C   UNL     1       3.535   2.894  19.663  0.00  0.00    +0.000 C 
ENDROOT
BRANCH   1  10
ATOM      8  C   UNL     1       5.907   4.218  17.291  0.00  0.00    +0.000 C 
ATOM      9  O   UNL     1       6.791   4.677  17.996  0.00  0.00    +0.000 OA
ATOM     10  N   UNL     1       4.633   3.992  17.753  0.00  0.00    +0.000 N 
ATOM     11  H   UNL     1       3.906   4.081  17.053  0.00  0.00    +0.000 HD
BRANCH   8  12
ATOM     12  O   UNL     1       6.056   3.757  16.024  0.00  0.00    +0.000 OA
BRANCH  12  14
ATOM     13  C   UNL     1       7.493   5.108  14.506  0.00  0.00    +0.000 C 
ATOM     14  C   UNL     1       6.062   4.736  14.939  0.00  0.00    +0.000 C 
ATOM     15  C   UNL     1       5.254   5.975  15.348  0.00  0.00    +0.000 C 
ATOM     16  C   UNL     1       5.383   4.080  13.727  0.00  0.00    +0.000 C 
ENDBRANCH  12  14
ENDBRANCH   8  12
ENDBRANCH   1  10
BRANCH   7  17
ATOM     17  C   UNL     1       4.490   1.705  19.825  0.00  0.00    +0.000 C 
ATOM     18  O   UNL     1       5.211   1.511  20.793  0.00  0.00    +0.000 OA
BRANCH  17  19
ATOM     19  O   UNL     1       4.439   0.826  18.799  0.00  0.00    +0.000 OA
ATOM     20  H   UNL     1       4.644  -0.092  19.067  0.00  0.00    +0.000 HD
ENDBRANCH  17  19
ENDBRANCH   7  17
TORSDOF 5
ENDMDL
MODEL 3
REMARK VINA RESULT:      -6.5      2.222      3.424
REMARK  Name = 
REMARK  8 active torsions:
REMARK  status: ('A' for Active; 'I' for Inactive)
REMARK    1  A    between atoms: C_1  and  C_2
REMARK    2  A    between atoms: C_2  and  C_3
REMARK    3  A    between atoms: C_2  and  C_4
REMARK    4  A    between atoms: C_2  and  O_5
REMARK    5  A    between atoms: O_5  and  C_6
REMARK    6  A    between atoms: N_8  and  C_9
REMARK    7  A    between atoms: C_15  and  C_16
REMARK    8  A    between atoms: C_16  and  O_18
REMARK                            x       y       z     vdW  Elec       q    Type
REMARK                         _______ _______ _______ _____ _____    ______ ____
ROOT
ATOM      1  C   UNL     1       1.941   4.511  18.286  0.00  0.00    +0.000 C 
ATOM      2  C   UNL     1       1.226   3.174  18.527  0.00  0.00    +0.000 C 
ATOM      3  C   UNL     1       1.942   2.209  19.468  0.00  0.00    +0.000 C 
ATOM      4  C   UNL     1       1.577   2.427  20.930  0.00  0.00    +0.000 C 
ATOM      5  C   UNL     1       2.102   3.715  21.546  0.00  0.00    +0.000 C 
ATOM      6  C   UNL     1       1.715   5.001  20.818  0.00  0.00    +0.000 C 
ATOM      7  C   UNL     1       2.513   5.235  19.520  0.00  0.00    +0.000 C 
ENDROOT
BRANCH   1  10
ATOM      8  C   UNL     1       4.254   4.004  17.613  0.00  0.00    +0.000 C 
ATOM      9  O   UNL     1       4.609   3.901  18.775  0.00  0.00    +0.000 OA
ATOM     10  N   UNL     1       2.986   4.392  17.256  0.00  0.00    +0.000 N 
ATOM     11  H   UNL     1       2.927   4.893  16.377  0.00  0.00    +0.000 HD
BRANCH   8  12
ATOM     12  O   UNL     1       4.980   3.648  16.523  0.00  0.00    +0.000 OA
BRANCH  12  14
ATOM     13  C   UNL     1       7.262   4.562  16.910  0.00  0.00    +0.000 C 
ATOM     14  C   UNL     1       5.990   4.587  16.041  0.00  0.00    +0.000 C 
ATOM     15  C   UNL     1       5.393   5.998  15.952  0.00  0.00    +0.000 C 
ATOM     16  C   UNL     1       6.401   4.134  14.632  0.00  0.00    +0.000 C 
ENDBRANCH  12  14
ENDBRANCH   8  12
ENDBRANCH   1  10
BRANCH   7  17
ATOM     17  C   UNL     1       2.574   6.738  19.223  0.00  0.00    +0.000 C 
ATOM     18  O   UNL     1       2.846   7.228  18.137  0.00  0.00    +0.000 OA
BRANCH  17  19
ATOM     19  O   UNL     1       2.244   7.513  20.281  0.00  0.00    +0.000 OA
ATOM     20  H   UNL     1       1.279   7.569  20.431  0.00  0.00    +0.000 HD
ENDBRANCH  17  19
ENDBRANCH   7  17
TORSDOF 5
ENDMDL
MODEL 4
REMARK VINA RESULT:      -6.4      2.217      3.326
REMARK  Name = 
REMARK  8 active torsions:
REMARK  status: ('A' for Active; 'I' for Inactive)
REMARK    1  A    between atoms: C_1  and  C_2
REMARK    2  A    between atoms: C_2  and  C_3
REMARK    3  A    between atoms: C_2  and  C_4
REMARK    4  A    between atoms: C_2  and  O_5
REMARK    5  A    between atoms: O_5  and  C_6
REMARK    6  A    between atoms: N_8  and  C_9
REMARK    7  A    between atoms: C_15  and  C_16
REMARK    8  A    between atoms: C_16  and  O_18
REMARK                            x       y       z     vdW  Elec       q    Type
REMARK                         _______ _______ _______ _____ _____    ______ ____
ROOT
ATOM      1  C   UNL     1       1.934   4.492  18.277  0.00  0.00    +0.000 C 
ATOM      2  C   UNL     1       1.220   3.157  18.534  0.00  0.00    +0.000 C 
ATOM      3  C   UNL     1       1.935   2.206  19.488  0.00  0.00    +0.000 C 
ATOM      4  C   UNL     1       1.567   2.442  20.947  0.00  0.00    +0.000 C 
ATOM      5  C   UNL     1       2.090   3.737  21.548  0.00  0.00    +0.000 C 
ATOM      6  C   UNL     1       1.703   5.015  20.802  0.00  0.00    +0.000 C 
ATOM      7  C   UNL     1       2.503   5.232  19.503  0.00  0.00    +0.000 C 
ENDROOT
BRANCH   1  10
ATOM      8  C   UNL     1       4.255   4.000  17.618  0.00  0.00    +0.000 C 
ATOM      9  O   UNL     1       4.610   3.934  18.783  0.00  0.00    +0.000 OA
ATOM     10  N   UNL     1       2.981   4.361  17.251  0.00  0.00    +0.000 N 
ATOM     11  H   UNL     1       2.916   4.837  16.358  0.00  0.00    +0.000 HD
BRANCH   8  12
ATOM     12  O   UNL     1       4.986   3.627  16.538  0.00  0.00    +0.000 OA
BRANCH  12  14
ATOM     13  C   UNL     1       5.368   6.037  16.050  0.00  0.00    +0.000 C 
ATOM     14  C   UNL     1       5.920   4.601  15.977  0.00  0.00    +0.000 C 
ATOM     15  C   UNL     1       6.285   4.207  14.540  0.00  0.00    +0.000 C 
ATOM     16  C   UNL     1       7.191   4.565  16.839  0.00  0.00    +0.000 C 
ENDBRANCH  12  14
ENDBRANCH   8  12
ENDBRANCH   1  10
BRANCH   7  17
ATOM     17  C   UNL     1       2.563   6.731  19.187  0.00  0.00    +0.000 C 
ATOM     18  O   UNL     1       2.793   7.208  18.085  0.00  0.00    +0.000 OA
BRANCH  17  19
ATOM     19  O   UNL     1       2.284   7.520  20.249  0.00  0.00    +0.000 OA
ATOM     20  H   UNL     1       1.701   7.091  20.905  0.00  0.00    +0.000 HD
ENDBRANCH  17  19
ENDBRANCH   7  17
TORSDOF 5
ENDMDL
MODEL 5
REMARK VINA RESULT:      -6.4      2.233      3.499
REMARK  Name = 
REMARK  8 active torsions:
REMARK  status: ('A' for Active; 'I' for Inactive)
REMARK    1  A    between atoms: C_1  and  C_2
REMARK    2  A    between atoms: C_2  and  C_3
REMARK    3  A    between atoms: C_2  and  C_4
REMARK    4  A    between atoms: C_2  and  O_5
REMARK    5  A    between atoms: O_5  and  C_6
REMARK    6  A    between atoms: N_8  and  C_9
REMARK    7  A    between atoms: C_15  and  C_16
REMARK    8  A    between atoms: C_16  and  O_18
REMARK                            x       y       z     vdW  Elec       q    Type
REMARK                         _______ _______ _______ _____ _____    ______ ____
ROOT
ATOM      1  C   UNL     1       2.027   4.559  18.251  0.00  0.00    +0.000 C 
ATOM      2  C   UNL     1       1.324   3.207  18.438  0.00  0.00    +0.000 C 
ATOM      3  C   UNL     1       2.009   2.242  19.400  0.00  0.00    +0.000 C 
ATOM      4  C   UNL     1       1.570   2.432  20.845  0.00  0.00    +0.000 C 
ATOM      5  C   UNL     1       2.042   3.719  21.504  0.00  0.00    +0.000 C 
ATOM      6  C   UNL     1       1.668   5.010  20.775  0.00  0.00    +0.000 C 
ATOM      7  C   UNL     1       2.525   5.275  19.521  0.00  0.00    +0.000 C 
ENDROOT
BRANCH   1  10
ATOM      8  C   UNL     1       4.376   4.091  17.684  0.00  0.00    +0.000 C 
ATOM      9  O   UNL     1       4.674   3.968  18.860  0.00  0.00    +0.000 OA
ATOM     10  N   UNL     1       3.122   4.473  17.272  0.00  0.00    +0.000 N 
ATOM     11  H   UNL     1       3.101   4.990  16.401  0.00  0.00    +0.000 HD
BRANCH   8  12
ATOM     12  O   UNL     1       5.159   3.765  16.625  0.00  0.00    +0.000 OA
BRANCH  12  14
ATOM     13  C   UNL     1       6.672   4.498  14.790  0.00  0.00    +0.000 C 
ATOM     14  C   UNL     1       6.219   4.698  16.248  0.00  0.00    +0.000 C 
ATOM     15  C   UNL     1       7.394   4.578  17.228  0.00  0.00    +0.000 C 
ATOM     16  C   UNL     1       5.636   6.116  16.345  0.00  0.00    +0.000 C 
ENDBRANCH  12  14
ENDBRANCH   8  12
ENDBRANCH   1  10
BRANCH   7  17
ATOM     17  C   UNL     1       2.575   6.783  19.248  0.00  0.00    +0.000 C 
ATOM     18  O   UNL     1       2.848   7.293  18.171  0.00  0.00    +0.000 OA
BRANCH  17  19
ATOM     19  O   UNL     1       2.233   7.538  20.316  0.00  0.00    +0.000 OA
ATOM     20  H   UNL     1       2.552   8.460  20.255  0.00  0.00    +0.000 HD
ENDBRANCH  17  19
ENDBRANCH   7  17
TORSDOF 5
ENDMDL
MODEL 6
REMARK VINA RESULT:      -6.3      1.051      1.633
REMARK  Name = 
REMARK  8 active torsions:
REMARK  status: ('A' for Active; 'I' for Inactive)
REMARK    1  A    between atoms: C_1  and  C_2
REMARK    2  A    between atoms: C_2  and  C_3
REMARK    3  A    between atoms: C_2  and  C_4
REMARK    4  A    between atoms: C_2  and  O_5
REMARK    5  A    between atoms: O_5  and  C_6
REMARK    6  A    between atoms: N_8  and  C_9
REMARK    7  A    between atoms: C_15  and  C_16
REMARK    8  A    between atoms: C_16  and  O_18
REMARK                            x       y       z     vdW  Elec       q    Type
REMARK                         _______ _______ _______ _____ _____    ______ ____
ROOT
ATOM      1  C   UNL     1       4.129   4.022  19.878  0.00  0.00    +0.000 C 
ATOM      2  C   UNL     1       3.180   5.193  20.166  0.00  0.00    +0.000 C 
ATOM      3  C   UNL     1       1.821   5.120  19.475  0.00  0.00    +0.000 C 
ATOM      4  C   UNL     1       0.784   4.354  20.286  0.00  0.00    +0.000 C 
ATOM      5  C   UNL     1       1.020   2.856  20.395  0.00  0.00    +0.000 C 
ATOM      6  C   UNL     1       2.382   2.441  20.952  0.00  0.00    +0.000 C 
ATOM      7  C   UNL     1       3.533   2.602  19.939  0.00  0.00    +0.000 C 
ENDROOT
BRANCH   1  10
ATOM      8  C   UNL     1       6.133   4.679  18.609  0.00  0.00    +0.000 C 
ATOM      9  O   UNL     1       6.670   5.118  19.613  0.00  0.00    +0.000 OA
ATOM     10  N   UNL     1       4.845   4.201  18.605  0.00  0.00    +0.000 N 
ATOM     11  H   UNL     1       4.353   4.318  17.727  0.00  0.00    +0.000 HD
BRANCH   8  12
ATOM     12  O   UNL     1       6.731   4.482  17.407  0.00  0.00    +0.000 OA
BRANCH  12  14
ATOM     13  C   UNL     1       7.148   5.101  15.033  0.00  0.00    +0.000 C 
ATOM     14  C   UNL     1       6.634   5.549  16.414  0.00  0.00    +0.000 C 
ATOM     15  C   UNL     1       7.373   6.798  16.915  0.00  0.00    +0.000 C 
ATOM     16  C   UNL     1       5.144   5.888  16.250  0.00  0.00    +0.000 C 
ENDBRANCH  12  14
ENDBRANCH   8  12
ENDBRANCH   1  10
BRANCH   7  17
ATOM     17  C   UNL     1       4.654   1.613  20.280  0.00  0.00    +0.000 C 
ATOM     18  O   UNL     1       5.331   1.643  21.297  0.00  0.00    +0.000 OA
BRANCH  17  19
ATOM     19  O   UNL     1       4.813   0.636  19.359  0.00  0.00    +0.000 OA
ATOM     20  H   UNL     1       5.669   0.683  18.890  0.00  0.00    +0.000 HD
ENDBRANCH  17  19
ENDBRANCH   7  17
TORSDOF 5
ENDMDL
MODEL 7
REMARK VINA RESULT:      -6.1      0.836      1.274
REMARK  Name = 
REMARK  8 active torsions:
REMARK  status: ('A' for Active; 'I' for Inactive)
REMARK    1  A    between atoms: C_1  and  C_2
REMARK    2  A    between atoms: C_2  and  C_3
REMARK    3  A    between atoms: C_2  and  C_4
REMARK    4  A    between atoms: C_2  and  O_5
REMARK    5  A    between atoms: O_5  and  C_6
REMARK    6  A    between atoms: N_8  and  C_9
REMARK    7  A    between atoms: C_15  and  C_16
REMARK    8  A    between atoms: C_16  and  O_18
REMARK                            x       y       z     vdW  Elec       q    Type
REMARK                         _______ _______ _______ _____ _____    ______ ____
ROOT
ATOM      1  C   UNL     1       4.028   4.156  19.430  0.00  0.00    +0.000 C 
ATOM      2  C   UNL     1       3.395   5.408  20.053  0.00  0.00    +0.000 C 
ATOM      3  C   UNL     1       1.960   5.698  19.624  0.00  0.00    +0.000 C 
ATOM      4  C   UNL     1       0.927   4.998  20.497  0.00  0.00    +0.000 C 
ATOM      5  C   UNL     1       0.866   3.486  20.347  0.00  0.00    +0.000 C 
ATOM      6  C   UNL     1       2.184   2.746  20.575  0.00  0.00    +0.000 C 
ATOM      7  C   UNL     1       3.172   2.876  19.399  0.00  0.00    +0.000 C 
ENDROOT
BRANCH   1  10
ATOM      8  C   UNL     1       5.913   4.354  17.858  0.00  0.00    +0.000 C 
ATOM      9  O   UNL     1       6.725   4.231  18.759  0.00  0.00    +0.000 OA
ATOM     10  N   UNL     1       4.559   4.426  18.084  0.00  0.00    +0.000 N 
ATOM     11  H   UNL     1       4.045   4.980  17.408  0.00  0.00    +0.000 HD
BRANCH   8  12
ATOM     12  O   UNL     1       6.184   4.318  16.529  0.00  0.00    +0.000 OA
BRANCH  12  14
ATOM     13  C   UNL     1       7.316   6.524  16.749  0.00  0.00    +0.000 C 
ATOM     14  C   UNL     1       6.482   5.582  15.860  0.00  0.00    +0.000 C 
ATOM     15  C   UNL     1       5.179   6.248  15.396  0.00  0.00    +0.000 C 
ATOM     16  C   UNL     1       7.338   5.256  14.626  0.00  0.00    +0.000 C 
ENDBRANCH  12  14
ENDBRANCH   8  12
ENDBRANCH   1  10
BRANCH   7  17
ATOM     17  C   UNL     1       4.106   1.660  19.381  0.00  0.00    +0.000 C 
ATOM     18  O   UNL     1       3.933   0.652  18.713  0.00  0.00    +0.000 OA
BRANCH  17  19
ATOM     19  O   UNL     1       5.205   1.811  20.154  0.00  0.00    +0.000 OA
ATOM     20  H   UNL     1       5.876   2.402  19.759  0.00  0.00    +0.000 HD
ENDBRANCH  17  19
ENDBRANCH   7  17
TORSDOF 5
ENDMDL
MODEL 8
REMARK VINA RESULT:      -6.1      0.798      1.191
REMARK  Name = 
REMARK  8 active torsions:
REMARK  status: ('A' for Active; 'I' for Inactive)
REMARK    1  A    between atoms: C_1  and  C_2
REMARK    2  A    between atoms: C_2  and  C_3
REMARK    3  A    between atoms: C_2  and  C_4
REMARK    4  A    between atoms: C_2  and  O_5
REMARK    5  A    between atoms: O_5  and  C_6
REMARK    6  A    between atoms: N_8  and  C_9
REMARK    7  A    between atoms: C_15  and  C_16
REMARK    8  A    between atoms: C_16  and  O_18
REMARK                            x       y       z     vdW  Elec       q    Type
REMARK                         _______ _______ _______ _____ _____    ______ ____
ROOT
ATOM      1  C   UNL     1       4.111   4.233  19.383  0.00  0.00    +0.000 C 
ATOM      2  C   UNL     1       3.547   5.526  19.987  0.00  0.00    +0.000 C 
ATOM      3  C   UNL     1       2.120   5.873  19.573  0.00  0.00    +0.000 C 
ATOM      4  C   UNL     1       1.070   5.241  20.476  0.00  0.00    +0.000 C 
ATOM      5  C   UNL     1       0.937   3.730  20.360  0.00  0.00    +0.000 C 
ATOM      6  C   UNL     1       2.222   2.934  20.585  0.00  0.00    +0.000 C 
ATOM      7  C   UNL     1       3.197   2.993  19.392  0.00  0.00    +0.000 C 
ENDROOT
BRANCH   1  10
ATOM      8  C   UNL     1       5.982   4.333  17.785  0.00  0.00    +0.000 C 
ATOM      9  O   UNL     1       6.801   4.213  18.680  0.00  0.00    +0.000 OA
ATOM     10  N   UNL     1       4.634   4.449  18.024  0.00  0.00    +0.000 N 
ATOM     11  H   UNL     1       4.127   4.998  17.338  0.00  0.00    +0.000 HD
BRANCH   8  12
ATOM     12  O   UNL     1       6.236   4.252  16.455  0.00  0.00    +0.000 OA
BRANCH  12  14
ATOM     13  C   UNL     1       5.151   6.252  15.448  0.00  0.00    +0.000 C 
ATOM     14  C   UNL     1       6.465   5.498  15.727  0.00  0.00    +0.000 C 
ATOM     15  C   UNL     1       7.240   5.213  14.434  0.00  0.00    +0.000 C 
ATOM     16  C   UNL     1       7.320   6.403  16.628  0.00  0.00    +0.000 C 
ENDBRANCH  12  14
ENDBRANCH   8  12
ENDBRANCH   1  10
BRANCH   7  17
ATOM     17  C   UNL     1       4.073   1.736  19.388  0.00  0.00    +0.000 C 
ATOM     18  O   UNL     1       3.835   0.716  18.757  0.00  0.00    +0.000 OA
BRANCH  17  19
ATOM     19  O   UNL     1       5.201   1.859  20.124  0.00  0.00    +0.000 OA
ATOM     20  H   UNL     1       5.904   1.233  19.861  0.00  0.00    +0.000 HD
ENDBRANCH  17  19
ENDBRANCH   7  17
TORSDOF 5
ENDMDL
MODEL 9
REMARK VINA RESULT:      -6.0      1.676      5.844
REMARK  Name = 
REMARK  8 active torsions:
REMARK  status: ('A' for Active; 'I' for Inactive)
REMARK    1  A    between atoms: C_1  and  C_2
REMARK    2  A    between atoms: C_2  and  C_3
REMARK    3  A    between atoms: C_2  and  C_4
REMARK    4  A    between atoms: C_2  and  O_5
REMARK    5  A    between atoms: O_5  and  C_6
REMARK    6  A    between atoms: N_8  and  C_9
REMARK    7  A    between atoms: C_15  and  C_16
REMARK    8  A    between atoms: C_16  and  O_18
REMARK                            x       y       z     vdW  Elec       q    Type
REMARK                         _______ _______ _______ _____ _____    ______ ____
ROOT
ATOM      1  C   UNL     1       5.720   4.166  17.913  0.00  0.00    +0.000 C 
ATOM      2  C   UNL     1       5.406   3.417  16.610  0.00  0.00    +0.000 C 
ATOM      3  C   UNL     1       4.858   4.279  15.477  0.00  0.00    +0.000 C 
ATOM      4  C   UNL     1       5.954   4.891  14.614  0.00  0.00    +0.000 C 
ATOM      5  C   UNL     1       6.784   5.972  15.288  0.00  0.00    +0.000 C 
ATOM      6  C   UNL     1       7.456   5.568  16.600  0.00  0.00    +0.000 C 
ATOM      7  C   UNL     1       6.480   5.500  17.792  0.00  0.00    +0.000 C 
ENDROOT
BRANCH   1  10
ATOM      8  C   UNL     1       4.206   3.446  19.715  0.00  0.00    +0.000 C 
ATOM      9  O   UNL     1       4.797   2.387  19.839  0.00  0.00    +0.000 OA
ATOM     10  N   UNL     1       4.515   4.358  18.736  0.00  0.00    +0.000 N 
ATOM     11  H   UNL     1       3.733   4.917  18.414  0.00  0.00    +0.000 HD
BRANCH   8  12
ATOM     12  O   UNL     1       3.266   3.938  20.561  0.00  0.00    +0.000 OA
BRANCH  12  14
ATOM     13  C   UNL     1       1.752   2.459  19.252  0.00  0.00    +0.000 C 
ATOM     14  C   UNL     1       1.909   3.409  20.455  0.00  0.00    +0.000 C 
ATOM     15  C   UNL     1       0.900   4.564  20.400  0.00  0.00    +0.000 C 
ATOM     16  C   UNL     1       1.641   2.578  21.719  0.00  0.00    +0.000 C 
ENDBRANCH  12  14
ENDBRANCH   8  12
ENDBRANCH   1  10
BRANCH   7  17
ATOM     17  C   UNL     1       7.250   5.747  19.095  0.00  0.00    +0.000 C 
ATOM     18  O   UNL     1       7.073   5.140  20.141  0.00  0.00    +0.000 OA
BRANCH  17  19
ATOM     19  O   UNL     1       8.212   6.691  18.985  0.00  0.00    +0.000 OA
ATOM     20  H   UNL     1       9.097   6.373  19.252  0.00  0.00    +0.000 HD
ENDBRANCH  17  19
ENDBRANCH   7  17
TORSDOF 5
ENDMDL
