MODEL 1
REMARK VINA RESULT:      -7.3      0.000      0.000
REMARK  Name = 
REMARK  16 active torsions:
REMARK  status: ('A' for Active; 'I' for Inactive)
REMARK    1  A    between atoms: C_1  and  C_2
REMARK    2  A    between atoms: C_2  and  C_3
REMARK    3  A    between atoms: C_3  and  C_4
REMARK    4  A    between atoms: C_4  and  C_5
REMARK    5  A    between atoms: C_5  and  C_6
REMARK    6  A    between atoms: C_6  and  C_7
REMARK    7  A    between atoms: C_7  and  C_8
REMARK    8  A    between atoms: C_8  and  C_9
REMARK    9  A    between atoms: C_10  and  C_11
REMARK   10  A    between atoms: C_14  and  O_15
REMARK   11  A    between atoms: C_16  and  O_17
REMARK   12  A    between atoms: C_22  and  O_23
REMARK   13  A    between atoms: O_23  and  C_24
REMARK   14  A    between atoms: C_25  and  O_26
REMARK   15  A    between atoms: O_26  and  C_27
REMARK   16  A    between atoms: C_28  and  O_29
REMARK                            x       y       z     vdW  Elec       q    Type
REMARK                         _______ _______ _______ _____ _____    ______ ____
ROOT
ATOM      1  C   UNL     1       3.056   6.983  17.893  0.00  0.00    +0.000 A 
ATOM      2  C   UNL     1       2.560   6.078  18.757  0.00  0.00    +0.000 A 
ATOM      3  O   UNL     1       1.732   6.373  19.815  0.00  0.00    +0.000 OA
ATOM      4  C   UNL     1       1.377   7.679  20.017  0.00  0.00    +0.000 A 
ATOM      5  C   UNL     1       0.589   7.910  21.139  0.00  0.00    +0.000 A 
ATOM      6  C   UNL     1       0.148   9.198  21.455  0.00  0.00    +0.000 A 
ATOM      7  C   UNL     1       0.457  10.261  20.587  0.00  0.00    +0.000 A 
ATOM      8  C   UNL     1       1.254  10.010  19.456  0.00  0.00    +0.000 A 
ATOM      9  C   UNL     1       1.747   8.723  19.181  0.00  0.00    +0.000 A 
ATOM     10  C   UNL     1       2.657   8.412  18.062  0.00  0.00    +0.000 A 
ATOM     11  O   UNL     1       3.080   9.268  17.295  0.00  0.00    +0.000 OA
ENDROOT
BRANCH   2  12
ATOM     12  C   UNL     1       2.878   4.649  18.671  0.00  0.00    +0.000 A 
ATOM     13  C   UNL     1       2.238   3.815  17.737  0.00  0.00    +0.000 A 
ATOM     14  C   UNL     1       2.594   2.465  17.626  0.00  0.00    +0.000 A 
ATOM     15  C   UNL     1       3.585   1.959  18.459  0.00  0.00    +0.000 A 
ATOM     16  C   UNL     1       4.208   2.783  19.393  0.00  0.00    +0.000 A 
ATOM     17  C   UNL     1       3.862   4.120  19.510  0.00  0.00    +0.000 A 
BRANCH  15  18
ATOM     18  O   UNL     1       3.988   0.655  18.394  0.00  0.00    +0.000 OA
ATOM     19  H   UNL     1       4.638   0.502  19.101  0.00  0.00    +0.000 HD
ENDBRANCH  15  18
BRANCH  16  20
ATOM     20  O   UNL     1       5.188   2.288  20.205  0.00  0.00    +0.000 OA
ATOM     21  H   UNL     1       5.468   1.457  19.771  0.00  0.00    +0.000 HD
ENDBRANCH  16  20
ENDBRANCH   2  12
BRANCH   6  22
ATOM     22  O   UNL     1      -0.638   9.416  22.556  0.00  0.00    +0.000 OA
ATOM     23  C   UNL     1       0.045   9.498  23.804  0.00  0.00    +0.000 C 
ENDBRANCH   6  22
BRANCH   7  24
ATOM     24  O   UNL     1       0.079  11.582  20.696  0.00  0.00    +0.000 OA
ATOM     25  C   UNL     1      -1.255  11.925  20.346  0.00  0.00    +0.000 C 
ENDBRANCH   7  24
BRANCH   8  26
ATOM     26  O   UNL     1       1.537  11.053  18.609  0.00  0.00    +0.000 OA
ATOM     27  H   UNL     1       0.970  11.796  18.882  0.00  0.00    +0.000 HD
ENDBRANCH   8  26
BRANCH   1  28
ATOM     28  C   UNL     1       3.985   6.676  16.745  0.00  0.00    +0.000 C 
BRANCH  28  29
ATOM     29  C   UNL     1       5.457   6.720  17.160  0.00  0.00    +0.000 C 
BRANCH  29  30
ATOM     30  C   UNL     1       6.315   5.742  16.364  0.00  0.00    +0.000 C 
BRANCH  30  31
ATOM     31  C   UNL     1       5.698   4.359  16.332  0.00  0.00    +0.000 C 
BRANCH  31  32
ATOM     32  C   UNL     1       5.995   3.699  14.991  0.00  0.00    +0.000 C 
BRANCH  32  33
ATOM     33  C   UNL     1       6.700   4.682  14.070  0.00  0.00    +0.000 C 
BRANCH  33  35
ATOM     34  C   UNL     1       5.608   3.290  12.311  0.00  0.00    +0.000 C 
ATOM     35  C   UNL     1       6.834   4.110  12.665  0.00  0.00    +0.000 C 
ENDBRANCH  33  35
ENDBRANCH  32  33
ENDBRANCH  31  32
ENDBRANCH  30  31
ENDBRANCH  29  30
ENDBRANCH  28  29
ENDBRANCH   1  28
TORSDOF 13
ENDMDL
MODEL 2
REMARK VINA RESULT:      -7.1      0.937      1.388
REMARK  Name = 
REMARK  16 active torsions:
REMARK  status: ('A' for Active; 'I' for Inactive)
REMARK    1  A    between atoms: C_1  and  C_2
REMARK    2  A    between atoms: C_2  and  C_3
REMARK    3  A    between atoms: C_3  and  C_4
REMARK    4  A    between atoms: C_4  and  C_5
REMARK    5  A    between atoms: C_5  and  C_6
REMARK    6  A    between atoms: C_6  and  C_7
REMARK    7  A    between atoms: C_7  and  C_8
REMARK    8  A    between atoms: C_8  and  C_9
REMARK    9  A    between atoms: C_10  and  C_11
REMARK   10  A    between atoms: C_14  and  O_15
REMARK   11  A    between atoms: C_16  and  O_17
REMARK   12  A    between atoms: C_22  and  O_23
REMARK   13  A    between atoms: O_23  and  C_24
REMARK   14  A    between atoms: C_25  and  O_26
REMARK   15  A    between atoms: O_26  and  C_27
REMARK   16  A    between atoms: C_28  and  O_29
REMARK                            x       y       z     vdW  Elec       q    Type
REMARK                         _______ _______ _______ _____ _____    ______ ____
ROOT
ATOM      1  C   UNL     1       2.770   7.493  17.947  0.00  0.00    +0.000 A 
ATOM      2  C   UNL     1       2.599   6.665  18.995  0.00  0.00    +0.000 A 
ATOM      3  O   UNL     1       2.043   7.026  20.200  0.00  0.00    +0.000 OA
ATOM      4  C   UNL     1       1.627   8.319  20.362  0.00  0.00    +0.000 A 
ATOM      5  C   UNL     1       1.132   8.626  21.624  0.00  0.00    +0.000 A 
ATOM      6  C   UNL     1       0.662   9.909  21.920  0.00  0.00    +0.000 A 
ATOM      7  C   UNL     1       0.636  10.880  20.902  0.00  0.00    +0.000 A 
ATOM      8  C   UNL     1       1.140  10.553  19.631  0.00  0.00    +0.000 A 
ATOM      9  C   UNL     1       1.669   9.279  19.361  0.00  0.00    +0.000 A 
ATOM     10  C   UNL     1       2.290   8.901  18.078  0.00  0.00    +0.000 A 
ATOM     11  O   UNL     1       2.418   9.687  17.148  0.00  0.00    +0.000 OA
ENDROOT
BRANCH   2  12
ATOM     12  C   UNL     1       3.023   5.261  18.965  0.00  0.00    +0.000 A 
ATOM     13  C   UNL     1       4.242   4.856  19.537  0.00  0.00    +0.000 A 
ATOM     14  C   UNL     1       4.606   3.504  19.553  0.00  0.00    +0.000 A 
ATOM     15  C   UNL     1       3.749   2.568  18.987  0.00  0.00    +0.000 A 
ATOM     16  C   UNL     1       2.548   2.973  18.407  0.00  0.00    +0.000 A 
ATOM     17  C   UNL     1       2.180   4.309  18.387  0.00  0.00    +0.000 A 
BRANCH  15  18
ATOM     18  O   UNL     1       4.038   1.233  18.979  0.00  0.00    +0.000 OA
ATOM     19  H   UNL     1       3.254   0.753  18.660  0.00  0.00    +0.000 HD
ENDBRANCH  15  18
BRANCH  16  20
ATOM     20  O   UNL     1       1.701   2.053  17.860  0.00  0.00    +0.000 OA
ATOM     21  H   UNL     1       2.109   1.828  16.999  0.00  0.00    +0.000 HD
ENDBRANCH  16  20
ENDBRANCH   2  12
BRANCH   6  22
ATOM     22  O   UNL     1       0.166  10.201  23.162  0.00  0.00    +0.000 OA
ATOM     23  C   UNL     1      -1.254  10.205  23.282  0.00  0.00    +0.000 C 
ENDBRANCH   6  22
BRANCH   7  24
ATOM     24  O   UNL     1       0.172  12.176  20.980  0.00  0.00    +0.000 OA
ATOM     25  C   UNL     1      -1.202  12.410  20.701  0.00  0.00    +0.000 C 
ENDBRANCH   7  24
BRANCH   8  26
ATOM     26  O   UNL     1       1.095  11.505  18.643  0.00  0.00    +0.000 OA
ATOM     27  H   UNL     1       0.409  12.145  18.904  0.00  0.00    +0.000 HD
ENDBRANCH   8  26
BRANCH   1  28
ATOM     28  C   UNL     1       3.401   7.117  16.631  0.00  0.00    +0.000 C 
BRANCH  28  29
ATOM     29  C   UNL     1       4.919   6.960  16.737  0.00  0.00    +0.000 C 
BRANCH  29  30
ATOM     30  C   UNL     1       5.485   6.033  15.667  0.00  0.00    +0.000 C 
BRANCH  30  31
ATOM     31  C   UNL     1       5.862   4.684  16.243  0.00  0.00    +0.000 C 
BRANCH  31  32
ATOM     32  C   UNL     1       5.910   3.647  15.127  0.00  0.00    +0.000 C 
BRANCH  32  33
ATOM     33  C   UNL     1       5.927   4.339  13.773  0.00  0.00    +0.000 C 
BRANCH  33  35
ATOM     34  C   UNL     1       4.776   3.296  11.822  0.00  0.00    +0.000 C 
ATOM     35  C   UNL     1       6.049   3.323  12.645  0.00  0.00    +0.000 C 
ENDBRANCH  33  35
ENDBRANCH  32  33
ENDBRANCH  31  32
ENDBRANCH  30  31
ENDBRANCH  29  30
ENDBRANCH  28  29
ENDBRANCH   1  28
TORSDOF 13
ENDMDL
MODEL 3
REMARK VINA RESULT:      -7.0      1.390      1.531
REMARK  Name = 
REMARK  16 active torsions:
REMARK  status: ('A' for Active; 'I' for Inactive)
REMARK    1  A    between atoms: C_1  and  C_2
REMARK    2  A    between atoms: C_2  and  C_3
REMARK    3  A    between atoms: C_3  and  C_4
REMARK    4  A    between atoms: C_4  and  C_5
REMARK    5  A    between atoms: C_5  and  C_6
REMARK    6  A    between atoms: C_6  and  C_7
REMARK    7  A    between atoms: C_7  and  C_8
REMARK    8  A    between atoms: C_8  and  C_9
REMARK    9  A    between atoms: C_10  and  C_11
REMARK   10  A    between atoms: C_14  and  O_15
REMARK   11  A    between atoms: C_16  and  O_17
REMARK   12  A    between atoms: C_22  and  O_23
REMARK   13  A    between atoms: O_23  and  C_24
REMARK   14  A    between atoms: C_25  and  O_26
REMARK   15  A    between atoms: O_26  and  C_27
REMARK   16  A    between atoms: C_28  and  O_29
REMARK                            x       y       z     vdW  Elec       q    Type
REMARK                         _______ _______ _______ _____ _____    ______ ____
ROOT
ATOM      1  C   UNL     1       2.466   7.386  18.431  0.00  0.00    +0.000 A 
ATOM      2  C   UNL     1       2.333   6.833  19.651  0.00  0.00    +0.000 A 
ATOM      3  O   UNL     1       1.776   7.460  20.742  0.00  0.00    +0.000 OA
ATOM      4  C   UNL     1       1.320   8.741  20.591  0.00  0.00    +0.000 A 
ATOM      5  C   UNL     1       0.827   9.332  21.749  0.00  0.00    +0.000 A 
ATOM      6  C   UNL     1       0.320  10.634  21.732  0.00  0.00    +0.000 A 
ATOM      7  C   UNL     1       0.253  11.327  20.510  0.00  0.00    +0.000 A 
ATOM      8  C   UNL     1       0.755  10.715  19.348  0.00  0.00    +0.000 A 
ATOM      9  C   UNL     1       1.322   9.430  19.387  0.00  0.00    +0.000 A 
ATOM     10  C   UNL     1       1.943   8.769  18.223  0.00  0.00    +0.000 A 
ATOM     11  O   UNL     1       2.037   9.308  17.128  0.00  0.00    +0.000 OA
ENDROOT
BRANCH   2  12
ATOM     12  C   UNL     1       2.801   5.477  19.956  0.00  0.00    +0.000 A 
ATOM     13  C   UNL     1       2.016   4.589  20.713  0.00  0.00    +0.000 A 
ATOM     14  C   UNL     1       2.449   3.277  20.947  0.00  0.00    +0.000 A 
ATOM     15  C   UNL     1       3.673   2.870  20.428  0.00  0.00    +0.000 A 
ATOM     16  C   UNL     1       4.456   3.756  19.692  0.00  0.00    +0.000 A 
ATOM     17  C   UNL     1       4.035   5.055  19.455  0.00  0.00    +0.000 A 
BRANCH  15  18
ATOM     18  O   UNL     1       4.149   1.602  20.610  0.00  0.00    +0.000 OA
ATOM     19  H   UNL     1       4.882   1.641  21.249  0.00  0.00    +0.000 HD
ENDBRANCH  15  18
BRANCH  16  20
ATOM     20  O   UNL     1       5.653   3.353  19.174  0.00  0.00    +0.000 OA
ATOM     21  H   UNL     1       5.473   3.212  18.223  0.00  0.00    +0.000 HD
ENDBRANCH  16  20
ENDBRANCH   2  12
BRANCH   6  22
ATOM     22  O   UNL     1      -0.175  11.205  22.874  0.00  0.00    +0.000 OA
ATOM     23  C   UNL     1      -1.514  10.858  23.217  0.00  0.00    +0.000 C 
ENDBRANCH   6  22
BRANCH   7  24
ATOM     24  O   UNL     1      -0.252  12.589  20.278  0.00  0.00    +0.000 OA
ATOM     25  C   UNL     1      -1.658  12.727  20.127  0.00  0.00    +0.000 C 
ENDBRANCH   7  24
BRANCH   8  26
ATOM     26  O   UNL     1       0.671  11.396  18.159  0.00  0.00    +0.000 OA
ATOM     27  H   UNL     1       1.417  12.022  18.143  0.00  0.00    +0.000 HD
ENDBRANCH   8  26
BRANCH   1  28
ATOM     28  C   UNL     1       3.097   6.719  17.235  0.00  0.00    +0.000 C 
BRANCH  28  29
ATOM     29  C   UNL     1       4.578   7.072  17.086  0.00  0.00    +0.000 C 
BRANCH  29  30
ATOM     30  C   UNL     1       5.192   6.484  15.819  0.00  0.00    +0.000 C 
BRANCH  30  31
ATOM     31  C   UNL     1       6.270   5.470  16.142  0.00  0.00    +0.000 C 
BRANCH  31  32
ATOM     32  C   UNL     1       6.808   4.868  14.850  0.00  0.00    +0.000 C 
BRANCH  32  33
ATOM     33  C   UNL     1       5.730   4.034  14.174  0.00  0.00    +0.000 C 
BRANCH  33  35
ATOM     34  C   UNL     1       5.007   3.332  11.893  0.00  0.00    +0.000 C 
ATOM     35  C   UNL     1       6.196   3.545  12.810  0.00  0.00    +0.000 C 
ENDBRANCH  33  35
ENDBRANCH  32  33
ENDBRANCH  31  32
ENDBRANCH  30  31
ENDBRANCH  29  30
ENDBRANCH  28  29
ENDBRANCH   1  28
TORSDOF 13
ENDMDL
MODEL 4
REMARK VINA RESULT:      -7.0      1.558      2.637
REMARK  Name = 
REMARK  16 active torsions:
REMARK  status: ('A' for Active; 'I' for Inactive)
REMARK    1  A    between atoms: C_1  and  C_2
REMARK    2  A    between atoms: C_2  and  C_3
REMARK    3  A    between atoms: C_3  and  C_4
REMARK    4  A    between atoms: C_4  and  C_5
REMARK    5  A    between atoms: C_5  and  C_6
REMARK    6  A    between atoms: C_6  and  C_7
REMARK    7  A    between atoms: C_7  and  C_8
REMARK    8  A    between atoms: C_8  and  C_9
REMARK    9  A    between atoms: C_10  and  C_11
REMARK   10  A    between atoms: C_14  and  O_15
REMARK   11  A    between atoms: C_16  and  O_17
REMARK   12  A    between atoms: C_22  and  O_23
REMARK   13  A    between atoms: O_23  and  C_24
REMARK   14  A    between atoms: C_25  and  O_26
REMARK   15  A    between atoms: O_26  and  C_27
REMARK   16  A    between atoms: C_28  and  O_29
REMARK                            x       y       z     vdW  Elec       q    Type
REMARK                         _______ _______ _______ _____ _____    ______ ____
ROOT
ATOM      1  C   UNL     1       2.693   7.408  17.976  0.00  0.00    +0.000 A 
ATOM      2  C   UNL     1       2.565   6.615  19.056  0.00  0.00    +0.000 A 
ATOM      3  O   UNL     1       2.033   7.007  20.262  0.00  0.00    +0.000 OA
ATOM      4  C   UNL     1       1.597   8.298  20.389  0.00  0.00    +0.000 A 
ATOM      5  C   UNL     1       1.129   8.641  21.653  0.00  0.00    +0.000 A 
ATOM      6  C   UNL     1       0.643   9.925  21.917  0.00  0.00    +0.000 A 
ATOM      7  C   UNL     1       0.573  10.859  20.867  0.00  0.00    +0.000 A 
ATOM      8  C   UNL     1       1.050  10.496  19.595  0.00  0.00    +0.000 A 
ATOM      9  C   UNL     1       1.595   9.223  19.356  0.00  0.00    +0.000 A 
ATOM     10  C   UNL     1       2.191   8.811  18.070  0.00  0.00    +0.000 A 
ATOM     11  O   UNL     1       2.280   9.566  17.110  0.00  0.00    +0.000 OA
ENDROOT
BRANCH   2  12
ATOM     12  C   UNL     1       3.013   5.218  19.064  0.00  0.00    +0.000 A 
ATOM     13  C   UNL     1       4.298   4.868  19.516  0.00  0.00    +0.000 A 
ATOM     14  C   UNL     1       4.692   3.525  19.573  0.00  0.00    +0.000 A 
ATOM     15  C   UNL     1       3.796   2.543  19.167  0.00  0.00    +0.000 A 
ATOM     16  C   UNL     1       2.529   2.892  18.705  0.00  0.00    +0.000 A 
ATOM     17  C   UNL     1       2.131   4.219  18.646  0.00  0.00    +0.000 A 
BRANCH  15  18
ATOM     18  O   UNL     1       4.113   1.214  19.208  0.00  0.00    +0.000 OA
ATOM     19  H   UNL     1       4.459   1.011  20.094  0.00  0.00    +0.000 HD
ENDBRANCH  15  18
BRANCH  16  20
ATOM     20  O   UNL     1       1.646   1.927  18.316  0.00  0.00    +0.000 OA
ATOM     21  H   UNL     1       2.016   1.580  17.479  0.00  0.00    +0.000 HD
ENDBRANCH  16  20
ENDBRANCH   2  12
BRANCH   6  22
ATOM     22  O   UNL     1       0.173  10.251  23.160  0.00  0.00    +0.000 OA
ATOM     23  C   UNL     1      -1.242  10.201  23.326  0.00  0.00    +0.000 C 
ENDBRANCH   6  22
BRANCH   7  24
ATOM     24  O   UNL     1       0.087  12.148  20.912  0.00  0.00    +0.000 OA
ATOM     25  C   UNL     1      -1.311  12.340  20.739  0.00  0.00    +0.000 C 
ENDBRANCH   7  24
BRANCH   8  26
ATOM     26  O   UNL     1       0.963  11.412  18.576  0.00  0.00    +0.000 OA
ATOM     27  H   UNL     1       0.065  11.789  18.616  0.00  0.00    +0.000 HD
ENDBRANCH   8  26
BRANCH   1  28
ATOM     28  C   UNL     1       3.297   6.997  16.657  0.00  0.00    +0.000 C 
BRANCH  28  29
ATOM     29  C   UNL     1       4.822   7.118  16.654  0.00  0.00    +0.000 C 
BRANCH  29  30
ATOM     30  C   UNL     1       5.510   5.797  16.328  0.00  0.00    +0.000 C 
BRANCH  30  31
ATOM     31  C   UNL     1       7.019   5.925  16.389  0.00  0.00    +0.000 C 
BRANCH  31  32
ATOM     32  C   UNL     1       7.502   5.598  17.797  0.00  0.00    +0.000 C 
BRANCH  32  33
ATOM     33  C   UNL     1       7.818   6.880  18.551  0.00  0.00    +0.000 C 
BRANCH  33  35
ATOM     34  C   UNL     1       8.532   9.258  18.316  0.00  0.00    +0.000 C 
ATOM     35  C   UNL     1       7.962   8.054  17.592  0.00  0.00    +0.000 C 
ENDBRANCH  33  35
ENDBRANCH  32  33
ENDBRANCH  31  32
ENDBRANCH  30  31
ENDBRANCH  29  30
ENDBRANCH  28  29
ENDBRANCH   1  28
TORSDOF 13
ENDMDL
MODEL 5
REMARK VINA RESULT:      -6.8      1.474      1.852
REMARK  Name = 
REMARK  16 active torsions:
REMARK  status: ('A' for Active; 'I' for Inactive)
REMARK    1  A    between atoms: C_1  and  C_2
REMARK    2  A    between atoms: C_2  and  C_3
REMARK    3  A    between atoms: C_3  and  C_4
REMARK    4  A    between atoms: C_4  and  C_5
REMARK    5  A    between atoms: C_5  and  C_6
REMARK    6  A    between atoms: C_6  and  C_7
REMARK    7  A    between atoms: C_7  and  C_8
REMARK    8  A    between atoms: C_8  and  C_9
REMARK    9  A    between atoms: C_10  and  C_11
REMARK   10  A    between atoms: C_14  and  O_15
REMARK   11  A    between atoms: C_16  and  O_17
REMARK   12  A    between atoms: C_22  and  O_23
REMARK   13  A    between atoms: O_23  and  C_24
REMARK   14  A    between atoms: C_25  and  O_26
REMARK   15  A    between atoms: O_26  and  C_27
REMARK   16  A    between atoms: C_28  and  O_29
REMARK                            x       y       z     vdW  Elec       q    Type
REMARK                         _______ _______ _______ _____ _____    ______ ____
ROOT
ATOM      1  C   UNL     1       2.389   7.425  18.555  0.00  0.00    +0.000 A 
ATOM      2  C   UNL     1       2.229   6.827  19.750  0.00  0.00    +0.000 A 
ATOM      3  O   UNL     1       1.655   7.414  20.853  0.00  0.00    +0.000 OA
ATOM      4  C   UNL     1       1.208   8.702  20.744  0.00  0.00    +0.000 A 
ATOM      5  C   UNL     1       0.696   9.251  21.915  0.00  0.00    +0.000 A 
ATOM      6  C   UNL     1       0.195  10.556  21.938  0.00  0.00    +0.000 A 
ATOM      7  C   UNL     1       0.155  11.295  20.742  0.00  0.00    +0.000 A 
ATOM      8  C   UNL     1       0.677  10.726  19.568  0.00  0.00    +0.000 A 
ATOM      9  C   UNL     1       1.237   9.437  19.568  0.00  0.00    +0.000 A 
ATOM     10  C   UNL     1       1.877   8.818  18.391  0.00  0.00    +0.000 A 
ATOM     11  O   UNL     1       1.995   9.399  17.320  0.00  0.00    +0.000 OA
ENDROOT
BRANCH   2  12
ATOM     12  C   UNL     1       2.684   5.457  20.012  0.00  0.00    +0.000 A 
ATOM     13  C   UNL     1       3.844   4.946  19.403  0.00  0.00    +0.000 A 
ATOM     14  C   UNL     1       4.300   3.657  19.707  0.00  0.00    +0.000 A 
ATOM     15  C   UNL     1       3.582   2.885  20.612  0.00  0.00    +0.000 A 
ATOM     16  C   UNL     1       2.424   3.387  21.203  0.00  0.00    +0.000 A 
ATOM     17  C   UNL     1       1.967   4.662  20.909  0.00  0.00    +0.000 A 
BRANCH  15  18
ATOM     18  O   UNL     1       3.977   1.625  20.961  0.00  0.00    +0.000 OA
ATOM     19  H   UNL     1       3.186   1.114  21.207  0.00  0.00    +0.000 HD
ENDBRANCH  15  18
BRANCH  16  20
ATOM     20  O   UNL     1       1.725   2.632  22.101  0.00  0.00    +0.000 OA
ATOM     21  H   UNL     1       0.842   2.522  21.691  0.00  0.00    +0.000 HD
ENDBRANCH  16  20
ENDBRANCH   2  12
BRANCH   6  22
ATOM     22  O   UNL     1      -0.319  11.084  23.092  0.00  0.00    +0.000 OA
ATOM     23  C   UNL     1      -1.737  11.215  23.142  0.00  0.00    +0.000 C 
ENDBRANCH   6  22
BRANCH   7  24
ATOM     24  O   UNL     1      -0.339  12.568  20.550  0.00  0.00    +0.000 OA
ATOM     25  C   UNL     1       0.430  13.662  21.034  0.00  0.00    +0.000 C 
ENDBRANCH   7  24
BRANCH   8  26
ATOM     26  O   UNL     1       0.619  11.453  18.405  0.00  0.00    +0.000 OA
ATOM     27  H   UNL     1      -0.324  11.534  18.172  0.00  0.00    +0.000 HD
ENDBRANCH   8  26
BRANCH   1  28
ATOM     28  C   UNL     1       3.040   6.801  17.346  0.00  0.00    +0.000 C 
BRANCH  28  29
ATOM     29  C   UNL     1       4.521   7.168  17.229  0.00  0.00    +0.000 C 
BRANCH  29  30
ATOM     30  C   UNL     1       5.184   6.527  16.015  0.00  0.00    +0.000 C 
BRANCH  30  31
ATOM     31  C   UNL     1       6.528   5.924  16.369  0.00  0.00    +0.000 C 
BRANCH  31  32
ATOM     32  C   UNL     1       6.381   4.418  16.550  0.00  0.00    +0.000 C 
BRANCH  32  33
ATOM     33  C   UNL     1       5.782   3.798  15.297  0.00  0.00    +0.000 C 
BRANCH  33  35
ATOM     34  C   UNL     1       5.965   3.597  12.817  0.00  0.00    +0.000 C 
ATOM     35  C   UNL     1       6.650   4.085  14.079  0.00  0.00    +0.000 C 
ENDBRANCH  33  35
ENDBRANCH  32  33
ENDBRANCH  31  32
ENDBRANCH  30  31
ENDBRANCH  29  30
ENDBRANCH  28  29
ENDBRANCH   1  28
TORSDOF 13
ENDMDL
MODEL 6
REMARK VINA RESULT:      -6.8      2.130      3.353
REMARK  Name = 
REMARK  16 active torsions:
REMARK  status: ('A' for Active; 'I' for Inactive)
REMARK    1  A    between atoms: C_1  and  C_2
REMARK    2  A    between atoms: C_2  and  C_3
REMARK    3  A    between atoms: C_3  and  C_4
REMARK    4  A    between atoms: C_4  and  C_5
REMARK    5  A    between atoms: C_5  and  C_6
REMARK    6  A    between atoms: C_6  and  C_7
REMARK    7  A    between atoms: C_7  and  C_8
REMARK    8  A    between atoms: C_8  and  C_9
REMARK    9  A    between atoms: C_10  and  C_11
REMARK   10  A    between atoms: C_14  and  O_15
REMARK   11  A    between atoms: C_16  and  O_17
REMARK   12  A    between atoms: C_22  and  O_23
REMARK   13  A    between atoms: O_23  and  C_24
REMARK   14  A    between atoms: C_25  and  O_26
REMARK   15  A    between atoms: O_26  and  C_27
REMARK   16  A    between atoms: C_28  and  O_29
REMARK                            x       y       z     vdW  Elec       q    Type
REMARK                         _______ _______ _______ _____ _____    ______ ____
ROOT
ATOM      1  C   UNL     1       3.343   6.482  17.926  0.00  0.00    +0.000 A 
ATOM      2  C   UNL     1       2.847   5.630  18.843  0.00  0.00    +0.000 A 
ATOM      3  O   UNL     1       1.973   5.977  19.847  0.00  0.00    +0.000 OA
ATOM      4  C   UNL     1       1.568   7.281  19.933  0.00  0.00    +0.000 A 
ATOM      5  C   UNL     1       0.733   7.570  21.007  0.00  0.00    +0.000 A 
ATOM      6  C   UNL     1       0.237   8.862  21.205  0.00  0.00    +0.000 A 
ATOM      7  C   UNL     1       0.541   9.863  20.265  0.00  0.00    +0.000 A 
ATOM      8  C   UNL     1       1.386   9.554  19.184  0.00  0.00    +0.000 A 
ATOM      9  C   UNL     1       1.931   8.269  19.029  0.00  0.00    +0.000 A 
ATOM     10  C   UNL     1       2.891   7.904  17.969  0.00  0.00    +0.000 A 
ATOM     11  O   UNL     1       3.310   8.712  17.150  0.00  0.00    +0.000 OA
ENDROOT
BRANCH   2  12
ATOM     12  C   UNL     1       3.218   4.211  18.881  0.00  0.00    +0.000 A 
ATOM     13  C   UNL     1       2.811   3.326  17.867  0.00  0.00    +0.000 A 
ATOM     14  C   UNL     1       3.220   1.986  17.885  0.00  0.00    +0.000 A 
ATOM     15  C   UNL     1       4.028   1.543  18.926  0.00  0.00    +0.000 A 
ATOM     16  C   UNL     1       4.418   2.418  19.937  0.00  0.00    +0.000 A 
ATOM     17  C   UNL     1       4.017   3.745  19.927  0.00  0.00    +0.000 A 
BRANCH  15  18
ATOM     18  O   UNL     1       4.472   0.253  18.998  0.00  0.00    +0.000 OA
ATOM     19  H   UNL     1       5.084   0.183  19.750  0.00  0.00    +0.000 HD
ENDBRANCH  15  18
BRANCH  16  20
ATOM     20  O   UNL     1       5.219   1.985  20.954  0.00  0.00    +0.000 OA
ATOM     21  H   UNL     1       5.844   2.723  21.104  0.00  0.00    +0.000 HD
ENDBRANCH  16  20
ENDBRANCH   2  12
BRANCH   6  22
ATOM     22  O   UNL     1      -0.593   9.136  22.259  0.00  0.00    +0.000 OA
ATOM     23  C   UNL     1       0.044   9.530  23.471  0.00  0.00    +0.000 C 
ENDBRANCH   6  22
BRANCH   7  24
ATOM     24  O   UNL     1       0.115  11.174  20.257  0.00  0.00    +0.000 OA
ATOM     25  C   UNL     1       0.895  12.133  20.959  0.00  0.00    +0.000 C 
ENDBRANCH   7  24
BRANCH   8  26
ATOM     26  O   UNL     1       1.663  10.537  18.267  0.00  0.00    +0.000 OA
ATOM     27  H   UNL     1       2.632  10.556  18.163  0.00  0.00    +0.000 HD
ENDBRANCH   8  26
BRANCH   1  28
ATOM     28  C   UNL     1       4.322   6.120  16.837  0.00  0.00    +0.000 C 
BRANCH  28  29
ATOM     29  C   UNL     1       5.767   6.093  17.340  0.00  0.00    +0.000 C 
BRANCH  29  30
ATOM     30  C   UNL     1       6.563   7.312  16.887  0.00  0.00    +0.000 C 
BRANCH  30  31
ATOM     31  C   UNL     1       7.714   7.606  17.828  0.00  0.00    +0.000 C 
BRANCH  31  32
ATOM     32  C   UNL     1       8.119   9.069  17.696  0.00  0.00    +0.000 C 
BRANCH  32  33
ATOM     33  C   UNL     1       8.876   9.514  18.938  0.00  0.00    +0.000 C 
BRANCH  33  35
ATOM     34  C   UNL     1      10.402  11.232  19.908  0.00  0.00    +0.000 C 
ATOM     35  C   UNL     1       9.543  10.865  18.713  0.00  0.00    +0.000 C 
ENDBRANCH  33  35
ENDBRANCH  32  33
ENDBRANCH  31  32
ENDBRANCH  30  31
ENDBRANCH  29  30
ENDBRANCH  28  29
ENDBRANCH   1  28
TORSDOF 13
ENDMDL
MODEL 7
REMARK VINA RESULT:      -6.7      1.952      2.877
REMARK  Name = 
REMARK  16 active torsions:
REMARK  status: ('A' for Active; 'I' for Inactive)
REMARK    1  A    between atoms: C_1  and  C_2
REMARK    2  A    between atoms: C_2  and  C_3
REMARK    3  A    between atoms: C_3  and  C_4
REMARK    4  A    between atoms: C_4  and  C_5
REMARK    5  A    between atoms: C_5  and  C_6
REMARK    6  A    between atoms: C_6  and  C_7
REMARK    7  A    between atoms: C_7  and  C_8
REMARK    8  A    between atoms: C_8  and  C_9
REMARK    9  A    between atoms: C_10  and  C_11
REMARK   10  A    between atoms: C_14  and  O_15
REMARK   11  A    between atoms: C_16  and  O_17
REMARK   12  A    between atoms: C_22  and  O_23
REMARK   13  A    between atoms: O_23  and  C_24
REMARK   14  A    between atoms: C_25  and  O_26
REMARK   15  A    between atoms: O_26  and  C_27
REMARK   16  A    between atoms: C_28  and  O_29
REMARK                            x       y       z     vdW  Elec       q    Type
REMARK                         _______ _______ _______ _____ _____    ______ ____
ROOT
ATOM      1  C   UNL     1       2.438   7.475  18.443  0.00  0.00    +0.000 A 
ATOM      2  C   UNL     1       2.246   6.926  19.657  0.00  0.00    +0.000 A 
ATOM      3  O   UNL     1       1.679   7.571  20.732  0.00  0.00    +0.000 OA
ATOM      4  C   UNL     1       1.276   8.869  20.570  0.00  0.00    +0.000 A 
ATOM      5  C   UNL     1       0.770   9.476  21.714  0.00  0.00    +0.000 A 
ATOM      6  C   UNL     1       0.311  10.796  21.685  0.00  0.00    +0.000 A 
ATOM      7  C   UNL     1       0.308  11.493  20.463  0.00  0.00    +0.000 A 
ATOM      8  C   UNL     1       0.823  10.864  19.315  0.00  0.00    +0.000 A 
ATOM      9  C   UNL     1       1.341   9.559  19.368  0.00  0.00    +0.000 A 
ATOM     10  C   UNL     1       1.973   8.877  18.223  0.00  0.00    +0.000 A 
ATOM     11  O   UNL     1       2.121   9.414  17.133  0.00  0.00    +0.000 OA
ENDROOT
BRANCH   2  12
ATOM     12  C   UNL     1       2.653   5.553  19.973  0.00  0.00    +0.000 A 
ATOM     13  C   UNL     1       1.812   4.693  20.702  0.00  0.00    +0.000 A 
ATOM     14  C   UNL     1       2.190   3.366  20.946  0.00  0.00    +0.000 A 
ATOM     15  C   UNL     1       3.413   2.915  20.465  0.00  0.00    +0.000 A 
ATOM     16  C   UNL     1       4.252   3.772  19.757  0.00  0.00    +0.000 A 
ATOM     17  C   UNL     1       3.886   5.086  19.511  0.00  0.00    +0.000 A 
BRANCH  15  18
ATOM     18  O   UNL     1       3.836   1.630  20.658  0.00  0.00    +0.000 OA
ATOM     19  H   UNL     1       4.802   1.642  20.779  0.00  0.00    +0.000 HD
ENDBRANCH  15  18
BRANCH  16  20
ATOM     20  O   UNL     1       5.449   3.326  19.276  0.00  0.00    +0.000 OA
ATOM     21  H   UNL     1       6.052   3.368  20.046  0.00  0.00    +0.000 HD
ENDBRANCH  16  20
ENDBRANCH   2  12
BRANCH   6  22
ATOM     22  O   UNL     1      -0.197  11.383  22.813  0.00  0.00    +0.000 OA
ATOM     23  C   UNL     1      -1.422  10.843  23.300  0.00  0.00    +0.000 C 
ENDBRANCH   6  22
BRANCH   7  24
ATOM     24  O   UNL     1      -0.142  12.773  20.219  0.00  0.00    +0.000 OA
ATOM     25  C   UNL     1      -1.545  12.980  20.131  0.00  0.00    +0.000 C 
ENDBRANCH   7  24
BRANCH   8  26
ATOM     26  O   UNL     1       0.801  11.550  18.126  0.00  0.00    +0.000 OA
ATOM     27  H   UNL     1       1.317  11.022  17.490  0.00  0.00    +0.000 HD
ENDBRANCH   8  26
BRANCH   1  28
ATOM     28  C   UNL     1       3.080   6.786  17.265  0.00  0.00    +0.000 C 
BRANCH  28  29
ATOM     29  C   UNL     1       4.466   7.351  16.947  0.00  0.00    +0.000 C 
BRANCH  29  30
ATOM     30  C   UNL     1       5.260   6.447  16.010  0.00  0.00    +0.000 C 
BRANCH  30  31
ATOM     31  C   UNL     1       6.481   5.869  16.697  0.00  0.00    +0.000 C 
BRANCH  31  32
ATOM     32  C   UNL     1       6.872   6.754  17.874  0.00  0.00    +0.000 C 
BRANCH  32  33
ATOM     33  C   UNL     1       7.776   7.882  17.401  0.00  0.00    +0.000 C 
BRANCH  33  35
ATOM     34  C   UNL     1       8.769   9.985  18.303  0.00  0.00    +0.000 C 
ATOM     35  C   UNL     1       8.516   8.514  18.572  0.00  0.00    +0.000 C 
ENDBRANCH  33  35
ENDBRANCH  32  33
ENDBRANCH  31  32
ENDBRANCH  30  31
ENDBRANCH  29  30
ENDBRANCH  28  29
ENDBRANCH   1  28
TORSDOF 13
ENDMDL
MODEL 8
REMARK VINA RESULT:      -6.7      1.829      2.710
REMARK  Name = 
REMARK  16 active torsions:
REMARK  status: ('A' for Active; 'I' for Inactive)
REMARK    1  A    between atoms: C_1  and  C_2
REMARK    2  A    between atoms: C_2  and  C_3
REMARK    3  A    between atoms: C_3  and  C_4
REMARK    4  A    between atoms: C_4  and  C_5
REMARK    5  A    between atoms: C_5  and  C_6
REMARK    6  A    between atoms: C_6  and  C_7
REMARK    7  A    between atoms: C_7  and  C_8
REMARK    8  A    between atoms: C_8  and  C_9
REMARK    9  A    between atoms: C_10  and  C_11
REMARK   10  A    between atoms: C_14  and  O_15
REMARK   11  A    between atoms: C_16  and  O_17
REMARK   12  A    between atoms: C_22  and  O_23
REMARK   13  A    between atoms: O_23  and  C_24
REMARK   14  A    between atoms: C_25  and  O_26
REMARK   15  A    between atoms: O_26  and  C_27
REMARK   16  A    between atoms: C_28  and  O_29
REMARK                            x       y       z     vdW  Elec       q    Type
REMARK                         _______ _______ _______ _____ _____    ______ ____
ROOT
ATOM      1  C   UNL     1       2.327   7.417  18.559  0.00  0.00    +0.000 A 
ATOM      2  C   UNL     1       2.173   6.887  19.787  0.00  0.00    +0.000 A 
ATOM      3  O   UNL     1       1.621   7.542  20.863  0.00  0.00    +0.000 OA
ATOM      4  C   UNL     1       1.192   8.829  20.688  0.00  0.00    +0.000 A 
ATOM      5  C   UNL     1       0.702   9.449  21.833  0.00  0.00    +0.000 A 
ATOM      6  C   UNL     1       0.221  10.761  21.791  0.00  0.00    +0.000 A 
ATOM      7  C   UNL     1       0.177  11.434  20.556  0.00  0.00    +0.000 A 
ATOM      8  C   UNL     1       0.675  10.793  19.409  0.00  0.00    +0.000 A 
ATOM      9  C   UNL     1       1.216   9.499  19.473  0.00  0.00    +0.000 A 
ATOM     10  C   UNL     1       1.833   8.806  18.325  0.00  0.00    +0.000 A 
ATOM     11  O   UNL     1       1.946   9.326  17.222  0.00  0.00    +0.000 OA
ENDROOT
BRANCH   2  12
ATOM     12  C   UNL     1       2.611   5.526  20.118  0.00  0.00    +0.000 A 
ATOM     13  C   UNL     1       3.823   5.012  19.624  0.00  0.00    +0.000 A 
ATOM     14  C   UNL     1       4.257   3.733  19.996  0.00  0.00    +0.000 A 
ATOM     15  C   UNL     1       3.467   2.976  20.852  0.00  0.00    +0.000 A 
ATOM     16  C   UNL     1       2.260   3.481  21.328  0.00  0.00    +0.000 A 
ATOM     17  C   UNL     1       1.822   4.746  20.966  0.00  0.00    +0.000 A 
BRANCH  15  18
ATOM     18  O   UNL     1       3.837   1.726  21.263  0.00  0.00    +0.000 OA
ATOM     19  H   UNL     1       3.122   1.362  21.813  0.00  0.00    +0.000 HD
ENDBRANCH  15  18
BRANCH  16  20
ATOM     20  O   UNL     1       1.488   2.741  22.178  0.00  0.00    +0.000 OA
ATOM     21  H   UNL     1       1.774   3.019  23.072  0.00  0.00    +0.000 HD
ENDBRANCH  16  20
ENDBRANCH   2  12
BRANCH   6  22
ATOM     22  O   UNL     1      -0.271  11.360  22.919  0.00  0.00    +0.000 OA
ATOM     23  C   UNL     1      -1.653  11.142  23.190  0.00  0.00    +0.000 C 
ENDBRANCH   6  22
BRANCH   7  24
ATOM     24  O   UNL     1      -0.301  12.702  20.301  0.00  0.00    +0.000 OA
ATOM     25  C   UNL     1      -1.688  12.850  20.033  0.00  0.00    +0.000 C 
ENDBRANCH   7  24
BRANCH   8  26
ATOM     26  O   UNL     1       0.614  11.457  18.208  0.00  0.00    +0.000 OA
ATOM     27  H   UNL     1       1.533  11.652  17.950  0.00  0.00    +0.000 HD
ENDBRANCH   8  26
BRANCH   1  28
ATOM     28  C   UNL     1       2.953   6.717  17.379  0.00  0.00    +0.000 C 
BRANCH  28  29
ATOM     29  C   UNL     1       4.428   7.084  17.202  0.00  0.00    +0.000 C 
BRANCH  29  30
ATOM     30  C   UNL     1       4.957   6.715  15.820  0.00  0.00    +0.000 C 
BRANCH  30  31
ATOM     31  C   UNL     1       5.734   5.414  15.851  0.00  0.00    +0.000 C 
BRANCH  31  32
ATOM     32  C   UNL     1       6.561   5.343  17.129  0.00  0.00    +0.000 C 
BRANCH  32  33
ATOM     33  C   UNL     1       7.572   6.479  17.159  0.00  0.00    +0.000 C 
BRANCH  33  35
ATOM     34  C   UNL     1       7.654   5.669  19.517  0.00  0.00    +0.000 C 
ATOM     35  C   UNL     1       7.947   6.834  18.592  0.00  0.00    +0.000 C 
ENDBRANCH  33  35
ENDBRANCH  32  33
ENDBRANCH  31  32
ENDBRANCH  30  31
ENDBRANCH  29  30
ENDBRANCH  28  29
ENDBRANCH   1  28
TORSDOF 13
ENDMDL
MODEL 9
REMARK VINA RESULT:      -6.7      1.543      2.368
REMARK  Name = 
REMARK  16 active torsions:
REMARK  status: ('A' for Active; 'I' for Inactive)
REMARK    1  A    between atoms: C_1  and  C_2
REMARK    2  A    between atoms: C_2  and  C_3
REMARK    3  A    between atoms: C_3  and  C_4
REMARK    4  A    between atoms: C_4  and  C_5
REMARK    5  A    between atoms: C_5  and  C_6
REMARK    6  A    between atoms: C_6  and  C_7
REMARK    7  A    between atoms: C_7  and  C_8
REMARK    8  A    between atoms: C_8  and  C_9
REMARK    9  A    between atoms: C_10  and  C_11
REMARK   10  A    between atoms: C_14  and  O_15
REMARK   11  A    between atoms: C_16  and  O_17
REMARK   12  A    between atoms: C_22  and  O_23
REMARK   13  A    between atoms: O_23  and  C_24
REMARK   14  A    between atoms: C_25  and  O_26
REMARK   15  A    between atoms: O_26  and  C_27
REMARK   16  A    between atoms: C_28  and  O_29
REMARK                            x       y       z     vdW  Elec       q    Type
REMARK                         _______ _______ _______ _____ _____    ______ ____
ROOT
ATOM      1  C   UNL     1       2.524   7.494  18.116  0.00  0.00    +0.000 A 
ATOM      2  C   UNL     1       2.260   6.601  19.088  0.00  0.00    +0.000 A 
ATOM      3  O   UNL     1       1.700   6.908  20.306  0.00  0.00    +0.000 OA
ATOM      4  C   UNL     1       1.381   8.213  20.564  0.00  0.00    +0.000 A 
ATOM      5  C   UNL     1       0.876   8.457  21.837  0.00  0.00    +0.000 A 
ATOM      6  C   UNL     1       0.501   9.746  22.227  0.00  0.00    +0.000 A 
ATOM      7  C   UNL     1       0.579  10.794  21.292  0.00  0.00    +0.000 A 
ATOM      8  C   UNL     1       1.092  10.530  20.009  0.00  0.00    +0.000 A 
ATOM      9  C   UNL     1       1.527   9.244  19.648  0.00  0.00    +0.000 A 
ATOM     10  C   UNL     1       2.153   8.921  18.351  0.00  0.00    +0.000 A 
ATOM     11  O   UNL     1       2.368   9.767  17.492  0.00  0.00    +0.000 OA
ENDROOT
BRANCH   2  12
ATOM     12  C   UNL     1       2.573   5.175  18.953  0.00  0.00    +0.000 A 
ATOM     13  C   UNL     1       1.684   4.292  18.314  0.00  0.00    +0.000 A 
ATOM     14  C   UNL     1       2.022   2.944  18.140  0.00  0.00    +0.000 A 
ATOM     15  C   UNL     1       3.246   2.489  18.616  0.00  0.00    +0.000 A 
ATOM     16  C   UNL     1       4.119   3.362  19.262  0.00  0.00    +0.000 A 
ATOM     17  C   UNL     1       3.793   4.697  19.438  0.00  0.00    +0.000 A 
BRANCH  15  18
ATOM     18  O   UNL     1       3.642   1.190  18.469  0.00  0.00    +0.000 OA
ATOM     19  H   UNL     1       4.604   1.179  18.326  0.00  0.00    +0.000 HD
ENDBRANCH  15  18
BRANCH  16  20
ATOM     20  O   UNL     1       5.325   2.917  19.721  0.00  0.00    +0.000 OA
ATOM     21  H   UNL     1       5.914   2.960  18.940  0.00  0.00    +0.000 HD
ENDBRANCH  16  20
ENDBRANCH   2  12
BRANCH   6  22
ATOM     22  O   UNL     1      -0.007   9.976  23.477  0.00  0.00    +0.000 OA
ATOM     23  C   UNL     1       0.554   9.199  24.532  0.00  0.00    +0.000 C 
ENDBRANCH   6  22
BRANCH   7  24
ATOM     24  O   UNL     1       0.216  12.113  21.466  0.00  0.00    +0.000 OA
ATOM     25  C   UNL     1      -1.169  12.431  21.443  0.00  0.00    +0.000 C 
ENDBRANCH   7  24
BRANCH   8  26
ATOM     26  O   UNL     1       1.150  11.559  19.102  0.00  0.00    +0.000 OA
ATOM     27  H   UNL     1       1.952  11.415  18.568  0.00  0.00    +0.000 HD
ENDBRANCH   8  26
BRANCH   1  28
ATOM     28  C   UNL     1       3.161   7.175  16.787  0.00  0.00    +0.000 C 
BRANCH  28  29
ATOM     29  C   UNL     1       4.689   7.168  16.862  0.00  0.00    +0.000 C 
BRANCH  29  30
ATOM     30  C   UNL     1       5.289   5.854  16.371  0.00  0.00    +0.000 C 
BRANCH  30  31
ATOM     31  C   UNL     1       6.802   5.868  16.455  0.00  0.00    +0.000 C 
BRANCH  31  32
ATOM     32  C   UNL     1       7.237   5.538  17.878  0.00  0.00    +0.000 C 
BRANCH  32  33
ATOM     33  C   UNL     1       7.906   6.747  18.513  0.00  0.00    +0.000 C 
BRANCH  33  35
ATOM     34  C   UNL     1       8.410   9.176  18.248  0.00  0.00    +0.000 C 
ATOM     35  C   UNL     1       7.956   7.915  17.537  0.00  0.00    +0.000 C 
ENDBRANCH  33  35
ENDBRANCH  32  33
ENDBRANCH  31  32
ENDBRANCH  30  31
ENDBRANCH  29  30
ENDBRANCH  28  29
ENDBRANCH   1  28
TORSDOF 13
ENDMDL
