MODEL 1
REMARK VINA RESULT:      -8.3      0.000      0.000
REMARK  Name = 
REMARK  4 active torsions:
REMARK  status: ('A' for Active; 'I' for Inactive)
REMARK    1  A    between atoms: C_2  and  C_21
REMARK    2  A    between atoms: N_3  and  C_4
REMARK    3  A    between atoms: C_7  and  C_8
REMARK    4  A    between atoms: C_9  and  C_10
REMARK                            x       y       z     vdW  Elec       q    Type
REMARK                         _______ _______ _______ _____ _____    ______ ____
ROOT
ATOM      1  C   UNL     1       2.466   7.363  18.797  0.00  0.00    +0.000 A 
ATOM      2  C   UNL     1       2.136   6.868  20.055  0.00  0.00    +0.000 A 
ATOM      3  C   UNL     1       1.347   7.616  20.939  0.00  0.00    +0.000 A 
ATOM      4  C   UNL     1       0.890   8.901  20.613  0.00  0.00    +0.000 A 
ATOM      5  C   UNL     1       1.201   9.390  19.339  0.00  0.00    +0.000 A 
ATOM      6  C   UNL     1       1.994   8.635  18.447  0.00  0.00    +0.000 A 
ENDROOT
BRANCH   1   9
ATOM      7  O   UNL     1       4.787   5.635  19.317  0.00  0.00    +0.000 OA
ATOM      8  C   UNL     1       4.398   5.892  18.185  0.00  0.00    +0.000 C 
ATOM      9  N   UNL     1       3.271   6.648  17.874  0.00  0.00    +0.000 N 
ATOM     10  H   UNL     1       2.957   6.652  16.911  0.00  0.00    +0.000 HD
BRANCH   8  11
ATOM     11  C   UNL     1       5.174   5.334  17.048  0.00  0.00    +0.000 A 
ATOM     12  C   UNL     1       4.772   4.196  16.349  0.00  0.00    +0.000 A 
ATOM     13  F   UNL     1       3.631   3.566  16.666  0.00  0.00    +0.000 F 
ATOM     14  C   UNL     1       5.540   3.676  15.305  0.00  0.00    +0.000 A 
ATOM     15  C   UNL     1       6.734   4.298  14.940  0.00  0.00    +0.000 A 
ATOM     16  C   UNL     1       7.152   5.434  15.626  0.00  0.00    +0.000 A 
ATOM     17  C   UNL     1       6.376   5.943  16.671  0.00  0.00    +0.000 A 
ATOM     18  F   UNL     1       6.819   7.054  17.278  0.00  0.00    +0.000 F 
ENDBRANCH   8  11
ENDBRANCH   1   9
BRANCH   4  19
ATOM     19  C   UNL     1       0.094   9.696  21.584  0.00  0.00    +0.000 C 
ATOM     20  C   UNL     1      -0.281  10.948  21.276  0.00  0.00    +0.000 C 
BRANCH  20  21
ATOM     21  C   UNL     1      -0.971  11.886  22.095  0.00  0.00    +0.000 A 
ATOM     22  N   UNL     1      -0.375  12.999  22.507  0.00  0.00    +0.000 NA
ATOM     23  C   UNL     1      -1.277  13.629  23.309  0.00  0.00    +0.000 A 
ATOM     24  C   UNL     1      -1.166  14.824  24.032  0.00  0.00    +0.000 A 
ATOM     25  C   UNL     1      -2.263  15.232  24.796  0.00  0.00    +0.000 A 
ATOM     26  C   UNL     1      -3.440  14.474  24.826  0.00  0.00    +0.000 A 
ATOM     27  C   UNL     1      -3.565  13.278  24.095  0.00  0.00    +0.000 A 
ATOM     28  C   UNL     1      -2.447  12.896  23.359  0.00  0.00    +0.000 A 
ATOM     29  O   UNL     1      -2.268  11.778  22.583  0.00  0.00    +0.000 OA
ENDBRANCH  20  21
ENDBRANCH   4  19
TORSDOF 4
ENDMDL
MODEL 2
REMARK VINA RESULT:      -8.3      0.111      1.566
REMARK  Name = 
REMARK  4 active torsions:
REMARK  status: ('A' for Active; 'I' for Inactive)
REMARK    1  A    between atoms: C_2  and  C_21
REMARK    2  A    between atoms: N_3  and  C_4
REMARK    3  A    between atoms: C_7  and  C_8
REMARK    4  A    between atoms: C_9  and  C_10
REMARK                            x       y       z     vdW  Elec       q    Type
REMARK                         _______ _______ _______ _____ _____    ______ ____
ROOT
ATOM      1  C   UNL     1       2.543   7.323  18.753  0.00  0.00    +0.000 A 
ATOM      2  C   UNL     1       2.217   6.827  20.012  0.00  0.00    +0.000 A 
ATOM      3  C   UNL     1       1.427   7.572  20.897  0.00  0.00    +0.000 A 
ATOM      4  C   UNL     1       0.963   8.855  20.572  0.00  0.00    +0.000 A 
ATOM      5  C   UNL     1       1.270   9.345  19.297  0.00  0.00    +0.000 A 
ATOM      6  C   UNL     1       2.065   8.593  18.403  0.00  0.00    +0.000 A 
ENDROOT
BRANCH   1   9
ATOM      7  O   UNL     1       4.857   5.585  19.272  0.00  0.00    +0.000 OA
ATOM      8  C   UNL     1       4.473   5.850  18.139  0.00  0.00    +0.000 C 
ATOM      9  N   UNL     1       3.350   6.611  17.829  0.00  0.00    +0.000 N 
ATOM     10  H   UNL     1       3.039   6.622  16.864  0.00  0.00    +0.000 HD
BRANCH   8  11
ATOM     11  C   UNL     1       5.252   5.297  17.002  0.00  0.00    +0.000 A 
ATOM     12  C   UNL     1       6.427   5.887  16.536  0.00  0.00    +0.000 A 
ATOM     13  F   UNL     1       6.922   6.985  17.128  0.00  0.00    +0.000 F 
ATOM     14  C   UNL     1       7.120   5.362  15.444  0.00  0.00    +0.000 A 
ATOM     15  C   UNL     1       6.644   4.221  14.798  0.00  0.00    +0.000 A 
ATOM     16  C   UNL     1       5.473   3.618  15.249  0.00  0.00    +0.000 A 
ATOM     17  C   UNL     1       4.787   4.155  16.340  0.00  0.00    +0.000 A 
ATOM     18  F   UNL     1       3.679   3.516  16.742  0.00  0.00    +0.000 F 
ENDBRANCH   8  11
ENDBRANCH   1   9
BRANCH   4  19
ATOM     19  C   UNL     1       0.166   9.647  21.544  0.00  0.00    +0.000 C 
ATOM     20  C   UNL     1      -0.234  10.889  21.227  0.00  0.00    +0.000 C 
BRANCH  20  21
ATOM     21  C   UNL     1      -0.930  11.824  22.045  0.00  0.00    +0.000 A 
ATOM     22  N   UNL     1      -0.343  12.945  22.448  0.00  0.00    +0.000 NA
ATOM     23  C   UNL     1      -1.248  13.570  23.251  0.00  0.00    +0.000 A 
ATOM     24  C   UNL     1      -1.147  14.770  23.967  0.00  0.00    +0.000 A 
ATOM     25  C   UNL     1      -2.244  15.170  24.734  0.00  0.00    +0.000 A 
ATOM     26  C   UNL     1      -3.413  14.400  24.774  0.00  0.00    +0.000 A 
ATOM     27  C   UNL     1      -3.528  13.199  24.051  0.00  0.00    +0.000 A 
ATOM     28  C   UNL     1      -2.410  12.825  23.311  0.00  0.00    +0.000 A 
ATOM     29  O   UNL     1      -2.223  11.704  22.540  0.00  0.00    +0.000 OA
ENDBRANCH  20  21
ENDBRANCH   4  19
TORSDOF 4
ENDMDL
MODEL 3
REMARK VINA RESULT:      -8.3      0.619      1.111
REMARK  Name = 
REMARK  4 active torsions:
REMARK  status: ('A' for Active; 'I' for Inactive)
REMARK    1  A    between atoms: C_2  and  C_21
REMARK    2  A    between atoms: N_3  and  C_4
REMARK    3  A    between atoms: C_7  and  C_8
REMARK    4  A    between atoms: C_9  and  C_10
REMARK                            x       y       z     vdW  Elec       q    Type
REMARK                         _______ _______ _______ _____ _____    ______ ____
ROOT
ATOM      1  C   UNL     1       2.491   7.293  18.774  0.00  0.00    +0.000 A 
ATOM      2  C   UNL     1       2.154   6.796  20.029  0.00  0.00    +0.000 A 
ATOM      3  C   UNL     1       1.373   7.548  20.915  0.00  0.00    +0.000 A 
ATOM      4  C   UNL     1       0.929   8.839  20.595  0.00  0.00    +0.000 A 
ATOM      5  C   UNL     1       1.246   9.331  19.324  0.00  0.00    +0.000 A 
ATOM      6  C   UNL     1       2.032   8.572  18.429  0.00  0.00    +0.000 A 
ENDROOT
BRANCH   1   9
ATOM      7  O   UNL     1       4.912   5.700  19.265  0.00  0.00    +0.000 OA
ATOM      8  C   UNL     1       4.464   5.887  18.141  0.00  0.00    +0.000 C 
ATOM      9  N   UNL     1       3.289   6.575  17.848  0.00  0.00    +0.000 N 
ATOM     10  H   UNL     1       2.935   6.520  16.900  0.00  0.00    +0.000 HD
BRANCH   8  11
ATOM     11  C   UNL     1       5.217   5.313  16.996  0.00  0.00    +0.000 A 
ATOM     12  C   UNL     1       4.790   4.177  16.308  0.00  0.00    +0.000 A 
ATOM     13  F   UNL     1       3.645   3.563  16.644  0.00  0.00    +0.000 F 
ATOM     14  C   UNL     1       5.537   3.642  15.257  0.00  0.00    +0.000 A 
ATOM     15  C   UNL     1       6.734   4.247  14.871  0.00  0.00    +0.000 A 
ATOM     16  C   UNL     1       7.175   5.381  15.547  0.00  0.00    +0.000 A 
ATOM     17  C   UNL     1       6.421   5.904  16.600  0.00  0.00    +0.000 A 
ATOM     18  F   UNL     1       6.887   7.012  17.195  0.00  0.00    +0.000 F 
ENDBRANCH   8  11
ENDBRANCH   1   9
BRANCH   4  19
ATOM     19  C   UNL     1       0.140   9.638  21.569  0.00  0.00    +0.000 C 
ATOM     20  C   UNL     1      -0.073  10.945  21.346  0.00  0.00    +0.000 C 
BRANCH  20  21
ATOM     21  C   UNL     1      -0.728  11.885  22.190  0.00  0.00    +0.000 A 
ATOM     22  N   UNL     1      -1.959  11.659  22.636  0.00  0.00    +0.000 NA
ATOM     23  C   UNL     1      -2.304  12.764  23.351  0.00  0.00    +0.000 A 
ATOM     24  C   UNL     1      -3.498  13.077  24.015  0.00  0.00    +0.000 A 
ATOM     25  C   UNL     1      -3.583  14.310  24.666  0.00  0.00    +0.000 A 
ATOM     26  C   UNL     1      -2.502  15.200  24.663  0.00  0.00    +0.000 A 
ATOM     27  C   UNL     1      -1.296  14.893  24.008  0.00  0.00    +0.000 A 
ATOM     28  C   UNL     1      -1.255  13.662  23.358  0.00  0.00    +0.000 A 
ATOM     29  O   UNL     1      -0.235  13.111  22.622  0.00  0.00    +0.000 OA
ENDBRANCH  20  21
ENDBRANCH   4  19
TORSDOF 4
ENDMDL
MODEL 4
REMARK VINA RESULT:      -8.3      0.705      1.939
REMARK  Name = 
REMARK  4 active torsions:
REMARK  status: ('A' for Active; 'I' for Inactive)
REMARK    1  A    between atoms: C_2  and  C_21
REMARK    2  A    between atoms: N_3  and  C_4
REMARK    3  A    between atoms: C_7  and  C_8
REMARK    4  A    between atoms: C_9  and  C_10
REMARK                            x       y       z     vdW  Elec       q    Type
REMARK                         _______ _______ _______ _____ _____    ______ ____
ROOT
ATOM      1  C   UNL     1       2.377   7.628  18.893  0.00  0.00    +0.000 A 
ATOM      2  C   UNL     1       2.075   7.183  20.176  0.00  0.00    +0.000 A 
ATOM      3  C   UNL     1       1.226   7.919  21.012  0.00  0.00    +0.000 A 
ATOM      4  C   UNL     1       0.676   9.145  20.612  0.00  0.00    +0.000 A 
ATOM      5  C   UNL     1       0.960   9.582  19.313  0.00  0.00    +0.000 A 
ATOM      6  C   UNL     1       1.814   8.839  18.468  0.00  0.00    +0.000 A 
ENDROOT
BRANCH   1   9
ATOM      7  O   UNL     1       4.311   5.502  19.511  0.00  0.00    +0.000 OA
ATOM      8  C   UNL     1       4.179   5.966  18.385  0.00  0.00    +0.000 C 
ATOM      9  N   UNL     1       3.240   6.924  18.015  0.00  0.00    +0.000 N 
ATOM     10  H   UNL     1       3.116   7.105  17.026  0.00  0.00    +0.000 HD
BRANCH   8  11
ATOM     11  C   UNL     1       5.076   5.447  17.320  0.00  0.00    +0.000 A 
ATOM     12  C   UNL     1       6.308   6.029  17.025  0.00  0.00    +0.000 A 
ATOM     13  F   UNL     1       6.753   7.084  17.725  0.00  0.00    +0.000 F 
ATOM     14  C   UNL     1       7.115   5.539  15.996  0.00  0.00    +0.000 A 
ATOM     15  C   UNL     1       6.695   4.444  15.240  0.00  0.00    +0.000 A 
ATOM     16  C   UNL     1       5.468   3.851  15.521  0.00  0.00    +0.000 A 
ATOM     17  C   UNL     1       4.668   4.352  16.550  0.00  0.00    +0.000 A 
ATOM     18  F   UNL     1       3.508   3.723  16.787  0.00  0.00    +0.000 F 
ENDBRANCH   8  11
ENDBRANCH   1   9
BRANCH   4  19
ATOM     19  C   UNL     1      -0.184   9.932  21.532  0.00  0.00    +0.000 C 
ATOM     20  C   UNL     1      -0.148  11.274  21.498  0.00  0.00    +0.000 C 
BRANCH  20  21
ATOM     21  C   UNL     1      -0.831  12.194  22.344  0.00  0.00    +0.000 A 
ATOM     22  N   UNL     1      -2.147  12.123  22.505  0.00  0.00    +0.000 NA
ATOM     23  C   UNL     1      -2.480  13.168  23.312  0.00  0.00    +0.000 A 
ATOM     24  C   UNL     1      -3.732  13.589  23.779  0.00  0.00    +0.000 A 
ATOM     25  C   UNL     1      -3.780  14.723  24.594  0.00  0.00    +0.000 A 
ATOM     26  C   UNL     1      -2.611  15.409  24.941  0.00  0.00    +0.000 A 
ATOM     27  C   UNL     1      -1.348  14.990  24.485  0.00  0.00    +0.000 A 
ATOM     28  C   UNL     1      -1.341  13.866  23.664  0.00  0.00    +0.000 A 
ATOM     29  O   UNL     1      -0.275  13.251  23.055  0.00  0.00    +0.000 OA
ENDBRANCH  20  21
ENDBRANCH   4  19
TORSDOF 4
ENDMDL
MODEL 5
REMARK VINA RESULT:      -8.1      4.067     11.769
REMARK  Name = 
REMARK  4 active torsions:
REMARK  status: ('A' for Active; 'I' for Inactive)
REMARK    1  A    between atoms: C_2  and  C_21
REMARK    2  A    between atoms: N_3  and  C_4
REMARK    3  A    between atoms: C_7  and  C_8
REMARK    4  A    between atoms: C_9  and  C_10
REMARK                            x       y       z     vdW  Elec       q    Type
REMARK                         _______ _______ _______ _____ _____    ______ ____
ROOT
ATOM      1  C   UNL     1      -1.074  11.671  22.259  0.00  0.00    +0.000 A 
ATOM      2  C   UNL     1      -0.650  11.592  20.936  0.00  0.00    +0.000 A 
ATOM      3  C   UNL     1       0.067  10.481  20.475  0.00  0.00    +0.000 A 
ATOM      4  C   UNL     1       0.419   9.424  21.327  0.00  0.00    +0.000 A 
ATOM      5  C   UNL     1      -0.026   9.491  22.652  0.00  0.00    +0.000 A 
ATOM      6  C   UNL     1      -0.752  10.610  23.117  0.00  0.00    +0.000 A 
ENDROOT
BRANCH   1   9
ATOM      7  O   UNL     1      -3.506  11.696  23.910  0.00  0.00    +0.000 OA
ATOM      8  C   UNL     1      -2.976  12.722  23.503  0.00  0.00    +0.000 C 
ATOM      9  N   UNL     1      -1.791  12.781  22.775  0.00  0.00    +0.000 N 
ATOM     10  H   UNL     1      -1.365  13.690  22.640  0.00  0.00    +0.000 HD
BRANCH   8  11
ATOM     11  C   UNL     1      -3.633  14.013  23.833  0.00  0.00    +0.000 A 
ATOM     12  C   UNL     1      -3.064  14.948  24.697  0.00  0.00    +0.000 A 
ATOM     13  F   UNL     1      -1.863  14.725  25.253  0.00  0.00    +0.000 F 
ATOM     14  C   UNL     1      -3.721  16.139  25.013  0.00  0.00    +0.000 A 
ATOM     15  C   UNL     1      -4.971  16.415  24.459  0.00  0.00    +0.000 A 
ATOM     16  C   UNL     1      -5.555  15.493  23.595  0.00  0.00    +0.000 A 
ATOM     17  C   UNL     1      -4.889  14.304  23.289  0.00  0.00    +0.000 A 
ATOM     18  F   UNL     1      -5.492  13.468  22.432  0.00  0.00    +0.000 F 
ENDBRANCH   8  11
ENDBRANCH   1   9
BRANCH   4  19
ATOM     19  C   UNL     1       1.221   8.277  20.828  0.00  0.00    +0.000 C 
ATOM     20  C   UNL     1       1.725   8.304  19.583  0.00  0.00    +0.000 C 
BRANCH  20  21
ATOM     21  C   UNL     1       2.444   7.281  18.903  0.00  0.00    +0.000 A 
ATOM     22  N   UNL     1       3.414   7.583  18.048  0.00  0.00    +0.000 NA
ATOM     23  C   UNL     1       3.842   6.396  17.537  0.00  0.00    +0.000 A 
ATOM     24  C   UNL     1       4.823   6.126  16.573  0.00  0.00    +0.000 A 
ATOM     25  C   UNL     1       5.048   4.792  16.223  0.00  0.00    +0.000 A 
ATOM     26  C   UNL     1       4.322   3.758  16.826  0.00  0.00    +0.000 A 
ATOM     27  C   UNL     1       3.342   4.017  17.801  0.00  0.00    +0.000 A 
ATOM     28  C   UNL     1       3.136   5.359  18.113  0.00  0.00    +0.000 A 
ATOM     29  O   UNL     1       2.239   5.909  18.995  0.00  0.00    +0.000 OA
ENDBRANCH  20  21
ENDBRANCH   4  19
TORSDOF 4
ENDMDL
MODEL 6
REMARK VINA RESULT:      -8.1      2.235      2.950
REMARK  Name = 
REMARK  4 active torsions:
REMARK  status: ('A' for Active; 'I' for Inactive)
REMARK    1  A    between atoms: C_2  and  C_21
REMARK    2  A    between atoms: N_3  and  C_4
REMARK    3  A    between atoms: C_7  and  C_8
REMARK    4  A    between atoms: C_9  and  C_10
REMARK                            x       y       z     vdW  Elec       q    Type
REMARK                         _______ _______ _______ _____ _____    ______ ____
ROOT
ATOM      1  C   UNL     1       1.435   8.160  20.461  0.00  0.00    +0.000 A 
ATOM      2  C   UNL     1       1.105   9.190  19.585  0.00  0.00    +0.000 A 
ATOM      3  C   UNL     1       0.561  10.390  20.058  0.00  0.00    +0.000 A 
ATOM      4  C   UNL     1       0.292  10.594  21.419  0.00  0.00    +0.000 A 
ATOM      5  C   UNL     1       0.646   9.569  22.304  0.00  0.00    +0.000 A 
ATOM      6  C   UNL     1       1.197   8.358  21.828  0.00  0.00    +0.000 A 
ENDROOT
BRANCH   1   9
ATOM      7  O   UNL     1       3.127   7.598  18.123  0.00  0.00    +0.000 OA
ATOM      8  C   UNL     1       2.724   6.716  18.872  0.00  0.00    +0.000 C 
ATOM      9  N   UNL     1       1.977   6.923  20.028  0.00  0.00    +0.000 N 
ATOM     10  H   UNL     1       1.847   6.135  20.652  0.00  0.00    +0.000 HD
BRANCH   8  11
ATOM     11  C   UNL     1       3.082   5.314  18.538  0.00  0.00    +0.000 A 
ATOM     12  C   UNL     1       2.239   4.477  17.807  0.00  0.00    +0.000 A 
ATOM     13  F   UNL     1       1.061   4.924  17.346  0.00  0.00    +0.000 F 
ATOM     14  C   UNL     1       2.589   3.152  17.535  0.00  0.00    +0.000 A 
ATOM     15  C   UNL     1       3.804   2.642  17.994  0.00  0.00    +0.000 A 
ATOM     16  C   UNL     1       4.657   3.464  18.724  0.00  0.00    +0.000 A 
ATOM     17  C   UNL     1       4.295   4.786  18.993  0.00  0.00    +0.000 A 
ATOM     18  F   UNL     1       5.170   5.533  19.680  0.00  0.00    +0.000 F 
ENDBRANCH   8  11
ENDBRANCH   1   9
BRANCH   4  19
ATOM     19  C   UNL     1      -0.330  11.857  21.893  0.00  0.00    +0.000 C 
ATOM     20  C   UNL     1      -1.339  11.816  22.778  0.00  0.00    +0.000 C 
BRANCH  20  21
ATOM     21  C   UNL     1      -2.108  12.901  23.286  0.00  0.00    +0.000 A 
ATOM     22  N   UNL     1      -3.416  12.971  23.066  0.00  0.00    +0.000 NA
ATOM     23  C   UNL     1      -3.824  14.144  23.625  0.00  0.00    +0.000 A 
ATOM     24  C   UNL     1      -5.094  14.735  23.662  0.00  0.00    +0.000 A 
ATOM     25  C   UNL     1      -5.222  15.971  24.301  0.00  0.00    +0.000 A 
ATOM     26  C   UNL     1      -4.117  16.592  24.896  0.00  0.00    +0.000 A 
ATOM     27  C   UNL     1      -2.841  16.002  24.873  0.00  0.00    +0.000 A 
ATOM     28  C   UNL     1      -2.748  14.779  24.214  0.00  0.00    +0.000 A 
ATOM     29  O   UNL     1      -1.641  13.993  24.009  0.00  0.00    +0.000 OA
ENDBRANCH  20  21
ENDBRANCH   4  19
TORSDOF 4
ENDMDL
MODEL 7
REMARK VINA RESULT:      -8.0      0.699      1.169
REMARK  Name = 
REMARK  4 active torsions:
REMARK  status: ('A' for Active; 'I' for Inactive)
REMARK    1  A    between atoms: C_2  and  C_21
REMARK    2  A    between atoms: N_3  and  C_4
REMARK    3  A    between atoms: C_7  and  C_8
REMARK    4  A    between atoms: C_9  and  C_10
REMARK                            x       y       z     vdW  Elec       q    Type
REMARK                         _______ _______ _______ _____ _____    ______ ____
ROOT
ATOM      1  C   UNL     1       2.295   8.129  18.382  0.00  0.00    +0.000 A 
ATOM      2  C   UNL     1       1.720   9.265  17.820  0.00  0.00    +0.000 A 
ATOM      3  C   UNL     1       0.854  10.076  18.564  0.00  0.00    +0.000 A 
ATOM      4  C   UNL     1       0.501   9.763  19.885  0.00  0.00    +0.000 A 
ATOM      5  C   UNL     1       1.097   8.634  20.459  0.00  0.00    +0.000 A 
ATOM      6  C   UNL     1       1.973   7.817  19.710  0.00  0.00    +0.000 A 
ENDROOT
BRANCH   1   9
ATOM      7  O   UNL     1       3.878   5.856  19.369  0.00  0.00    +0.000 OA
ATOM      8  C   UNL     1       3.936   6.246  18.208  0.00  0.00    +0.000 C 
ATOM      9  N   UNL     1       3.167   7.271  17.665  0.00  0.00    +0.000 N 
ATOM     10  H   UNL     1       3.184   7.389  16.658  0.00  0.00    +0.000 HD
BRANCH   8  11
ATOM     11  C   UNL     1       4.885   5.554  17.299  0.00  0.00    +0.000 A 
ATOM     12  C   UNL     1       4.608   4.313  16.726  0.00  0.00    +0.000 A 
ATOM     13  F   UNL     1       3.439   3.696  16.958  0.00  0.00    +0.000 F 
ATOM     14  C   UNL     1       5.534   3.672  15.899  0.00  0.00    +0.000 A 
ATOM     15  C   UNL     1       6.763   4.274  15.629  0.00  0.00    +0.000 A 
ATOM     16  C   UNL     1       7.056   5.512  16.192  0.00  0.00    +0.000 A 
ATOM     17  C   UNL     1       6.124   6.142  17.020  0.00  0.00    +0.000 A 
ATOM     18  F   UNL     1       6.455   7.344  17.513  0.00  0.00    +0.000 F 
ENDBRANCH   8  11
ENDBRANCH   1   9
BRANCH   4  19
ATOM     19  C   UNL     1      -0.456  10.612  20.640  0.00  0.00    +0.000 C 
ATOM     20  C   UNL     1       0.001  11.606  21.419  0.00  0.00    +0.000 C 
BRANCH  20  21
ATOM     21  C   UNL     1      -0.745  12.468  22.272  0.00  0.00    +0.000 A 
ATOM     22  N   UNL     1      -0.215  13.596  22.732  0.00  0.00    +0.000 NA
ATOM     23  C   UNL     1      -1.155  14.140  23.553  0.00  0.00    +0.000 A 
ATOM     24  C   UNL     1      -1.115  15.309  24.325  0.00  0.00    +0.000 A 
ATOM     25  C   UNL     1      -2.236  15.621  25.099  0.00  0.00    +0.000 A 
ATOM     26  C   UNL     1      -3.367  14.796  25.092  0.00  0.00    +0.000 A 
ATOM     27  C   UNL     1      -3.421  13.626  24.314  0.00  0.00    +0.000 A 
ATOM     28  C   UNL     1      -2.280  13.339  23.568  0.00  0.00    +0.000 A 
ATOM     29  O   UNL     1      -2.035  12.266  22.749  0.00  0.00    +0.000 OA
ENDBRANCH  20  21
ENDBRANCH   4  19
TORSDOF 4
ENDMDL
MODEL 8
REMARK VINA RESULT:      -8.0      4.155     11.765
REMARK  Name = 
REMARK  4 active torsions:
REMARK  status: ('A' for Active; 'I' for Inactive)
REMARK    1  A    between atoms: C_2  and  C_21
REMARK    2  A    between atoms: N_3  and  C_4
REMARK    3  A    between atoms: C_7  and  C_8
REMARK    4  A    between atoms: C_9  and  C_10
REMARK                            x       y       z     vdW  Elec       q    Type
REMARK                         _______ _______ _______ _____ _____    ______ ____
ROOT
ATOM      1  C   UNL     1      -1.165  11.792  22.419  0.00  0.00    +0.000 A 
ATOM      2  C   UNL     1      -0.563  11.811  21.165  0.00  0.00    +0.000 A 
ATOM      3  C   UNL     1       0.164  10.710  20.697  0.00  0.00    +0.000 A 
ATOM      4  C   UNL     1       0.347   9.560  21.480  0.00  0.00    +0.000 A 
ATOM      5  C   UNL     1      -0.278   9.529  22.732  0.00  0.00    +0.000 A 
ATOM      6  C   UNL     1      -1.013  10.640  23.203  0.00  0.00    +0.000 A 
ENDROOT
BRANCH   1   9
ATOM      7  O   UNL     1      -3.676  11.775  23.950  0.00  0.00    +0.000 OA
ATOM      8  C   UNL     1      -3.119  12.811  23.607  0.00  0.00    +0.000 C 
ATOM      9  N   UNL     1      -1.900  12.887  22.940  0.00  0.00    +0.000 N 
ATOM     10  H   UNL     1      -1.463  13.798  22.860  0.00  0.00    +0.000 HD
BRANCH   8  11
ATOM     11  C   UNL     1      -3.784  14.094  23.952  0.00  0.00    +0.000 A 
ATOM     12  C   UNL     1      -5.035  14.451  23.450  0.00  0.00    +0.000 A 
ATOM     13  F   UNL     1      -5.712  13.622  22.641  0.00  0.00    +0.000 F 
ATOM     14  C   UNL     1      -5.621  15.679  23.767  0.00  0.00    +0.000 A 
ATOM     15  C   UNL     1      -4.956  16.575  24.605  0.00  0.00    +0.000 A 
ATOM     16  C   UNL     1      -3.707  16.234  25.115  0.00  0.00    +0.000 A 
ATOM     17  C   UNL     1      -3.130  15.005  24.788  0.00  0.00    +0.000 A 
ATOM     18  F   UNL     1      -1.936  14.725  25.330  0.00  0.00    +0.000 F 
ENDBRANCH   8  11
ENDBRANCH   1   9
BRANCH   4  19
ATOM     19  C   UNL     1       1.162   8.421  20.983  0.00  0.00    +0.000 C 
ATOM     20  C   UNL     1       1.639   8.438  19.727  0.00  0.00    +0.000 C 
BRANCH  20  21
ATOM     21  C   UNL     1       2.365   7.418  19.050  0.00  0.00    +0.000 A 
ATOM     22  N   UNL     1       2.268   6.148  19.426  0.00  0.00    +0.000 NA
ATOM     23  C   UNL     1       3.124   5.456  18.624  0.00  0.00    +0.000 A 
ATOM     24  C   UNL     1       3.444   4.092  18.605  0.00  0.00    +0.000 A 
ATOM     25  C   UNL     1       4.383   3.653  17.668  0.00  0.00    +0.000 A 
ATOM     26  C   UNL     1       4.976   4.548  16.770  0.00  0.00    +0.000 A 
ATOM     27  C   UNL     1       4.655   5.917  16.775  0.00  0.00    +0.000 A 
ATOM     28  C   UNL     1       3.727   6.321  17.731  0.00  0.00    +0.000 A 
ATOM     29  O   UNL     1       3.248   7.581  17.988  0.00  0.00    +0.000 OA
ENDBRANCH  20  21
ENDBRANCH   4  19
TORSDOF 4
ENDMDL
MODEL 9
REMARK VINA RESULT:      -8.0      2.209      2.771
REMARK  Name = 
REMARK  4 active torsions:
REMARK  status: ('A' for Active; 'I' for Inactive)
REMARK    1  A    between atoms: C_2  and  C_21
REMARK    2  A    between atoms: N_3  and  C_4
REMARK    3  A    between atoms: C_7  and  C_8
REMARK    4  A    between atoms: C_9  and  C_10
REMARK                            x       y       z     vdW  Elec       q    Type
REMARK                         _______ _______ _______ _____ _____    ______ ____
ROOT
ATOM      1  C   UNL     1       1.482   8.254  20.334  0.00  0.00    +0.000 A 
ATOM      2  C   UNL     1       1.268   9.268  19.406  0.00  0.00    +0.000 A 
ATOM      3  C   UNL     1       0.711  10.493  19.793  0.00  0.00    +0.000 A 
ATOM      4  C   UNL     1       0.313  10.738  21.116  0.00  0.00    +0.000 A 
ATOM      5  C   UNL     1       0.549   9.728  22.055  0.00  0.00    +0.000 A 
ATOM      6  C   UNL     1       1.114   8.493  21.665  0.00  0.00    +0.000 A 
ENDROOT
BRANCH   1   9
ATOM      7  O   UNL     1       2.902   7.466  17.883  0.00  0.00    +0.000 OA
ATOM      8  C   UNL     1       2.641   6.671  18.779  0.00  0.00    +0.000 C 
ATOM      9  N   UNL     1       2.031   6.993  19.988  0.00  0.00    +0.000 N 
ATOM     10  H   UNL     1       2.021   6.286  20.713  0.00  0.00    +0.000 HD
BRANCH   8  11
ATOM     11  C   UNL     1       3.029   5.252  18.571  0.00  0.00    +0.000 A 
ATOM     12  C   UNL     1       2.216   4.341  17.898  0.00  0.00    +0.000 A 
ATOM     13  F   UNL     1       1.041   4.726  17.377  0.00  0.00    +0.000 F 
ATOM     14  C   UNL     1       2.593   3.005  17.747  0.00  0.00    +0.000 A 
ATOM     15  C   UNL     1       3.806   2.558  18.271  0.00  0.00    +0.000 A 
ATOM     16  C   UNL     1       4.630   3.454  18.946  0.00  0.00    +0.000 A 
ATOM     17  C   UNL     1       4.241   4.787  19.094  0.00  0.00    +0.000 A 
ATOM     18  F   UNL     1       5.088   5.606  19.733  0.00  0.00    +0.000 F 
ENDBRANCH   8  11
ENDBRANCH   1   9
BRANCH   4  19
ATOM     19  C   UNL     1      -0.320  12.028  21.495  0.00  0.00    +0.000 C 
ATOM     20  C   UNL     1      -0.858  12.176  22.717  0.00  0.00    +0.000 C 
BRANCH  20  21
ATOM     21  C   UNL     1      -1.570  13.295  23.234  0.00  0.00    +0.000 A 
ATOM     22  N   UNL     1      -0.927  14.303  23.812  0.00  0.00    +0.000 NA
ATOM     23  C   UNL     1      -1.893  15.160  24.244  0.00  0.00    +0.000 A 
ATOM     24  C   UNL     1      -1.783  16.369  24.944  0.00  0.00    +0.000 A 
ATOM     25  C   UNL     1      -2.961  17.043  25.277  0.00  0.00    +0.000 A 
ATOM     26  C   UNL     1      -4.211  16.530  24.909  0.00  0.00    +0.000 A 
ATOM     27  C   UNL     1      -4.332  15.323  24.197  0.00  0.00    +0.000 A 
ATOM     28  C   UNL     1      -3.138  14.673  23.897  0.00  0.00    +0.000 A 
ATOM     29  O   UNL     1      -2.948  13.479  23.246  0.00  0.00    +0.000 OA
ENDBRANCH  20  21
ENDBRANCH   4  19
TORSDOF 4
ENDMDL
