MODEL 1
REMARK VINA RESULT:      -6.8      0.000      0.000
REMARK  Name = 
REMARK  11 active torsions:
REMARK  status: ('A' for Active; 'I' for Inactive)
REMARK    1  A    between atoms: C_1  and  C_2
REMARK    2  A    between atoms: C_2  and  C_3
REMARK    3  A    between atoms: C_3  and  C_4
REMARK    4  A    between atoms: C_4  and  C_5
REMARK    5  A    between atoms: C_5  and  C_6
REMARK    6  A    between atoms: C_6  and  N_7
REMARK    7  A    between atoms: C_8  and  C_10
REMARK    8  A    between atoms: C_10  and  S_11
REMARK    9  A    between atoms: S_11  and  C_12
REMARK   10  A    between atoms: N_16  and  C_17
REMARK   11  A    between atoms: C_17  and  C_18
REMARK                            x       y       z     vdW  Elec       q    Type
REMARK                         _______ _______ _______ _____ _____    ______ ____
ROOT
ATOM      1  S   UNL     1       5.977   5.532  19.083  0.00  0.00    +0.000 S 
ENDROOT
BRANCH   1   2
ATOM      2  C   UNL     1       4.959   4.129  19.039  0.00  0.00    +0.000 A 
ATOM      3  N   UNL     1       5.233   3.003  19.661  0.00  0.00    +0.000 NA
ATOM      4  C   UNL     1       4.155   2.189  19.444  0.00  0.00    +0.000 A 
ATOM      5  C   UNL     1       3.214   2.826  18.672  0.00  0.00    +0.000 A 
ATOM      6  N   UNL     1       3.751   4.061  18.383  0.00  0.00    +0.000 N 
BRANCH   6   7
ATOM      7  C   UNL     1       3.042   5.102  17.658  0.00  0.00    +0.000 C 
BRANCH   7   8
ATOM      8  C   UNL     1       2.588   6.244  18.535  0.00  0.00    +0.000 A 
ATOM      9  C   UNL     1       2.508   7.555  18.038  0.00  0.00    +0.000 A 
ATOM     10  C   UNL     1       2.008   8.590  18.837  0.00  0.00    +0.000 A 
ATOM     11  C   UNL     1       1.586   8.329  20.139  0.00  0.00    +0.000 A 
ATOM     12  C   UNL     1       1.683   7.037  20.652  0.00  0.00    +0.000 A 
ATOM     13  C   UNL     1       2.185   6.003  19.858  0.00  0.00    +0.000 A 
ENDBRANCH   7   8
ENDBRANCH   6   7
ENDBRANCH   1   2
BRANCH   1  14
ATOM     14  C   UNL     1       7.231   5.045  17.850  0.00  0.00    +0.000 C 
BRANCH  14  16
ATOM     15  N   UNL     1       7.164   4.475  15.471  0.00  0.00    +0.000 N 
ATOM     16  C   UNL     1       6.755   5.372  16.441  0.00  0.00    +0.000 C 
ATOM     17  O   UNL     1       6.073   6.362  16.180  0.00  0.00    +0.000 OA
ATOM     18  H   UNL     1       7.767   3.703  15.730  0.00  0.00    +0.000 HD
BRANCH  15  19
ATOM     19  C   UNL     1       6.799   4.614  14.074  0.00  0.00    +0.000 C 
BRANCH  19  20
ATOM     20  C   UNL     1       5.581   3.775  13.678  0.00  0.00    +0.000 C 
BRANCH  20  21
ATOM     21  C   UNL     1       5.555   3.433  12.185  0.00  0.00    +0.000 C 
BRANCH  21  22
ATOM     22  C   UNL     1       6.965   3.421  11.586  0.00  0.00    +0.000 C 
BRANCH  22  24
ATOM     23  C   UNL     1       6.232   1.045  11.144  0.00  0.00    +0.000 C 
ATOM     24  C   UNL     1       7.413   1.997  11.250  0.00  0.00    +0.000 C 
ENDBRANCH  22  24
ENDBRANCH  21  22
ENDBRANCH  20  21
ENDBRANCH  19  20
ENDBRANCH  15  19
ENDBRANCH  14  16
ENDBRANCH   1  14
TORSDOF 10
ENDMDL
MODEL 2
REMARK VINA RESULT:      -6.8      3.539      5.459
REMARK  Name = 
REMARK  11 active torsions:
REMARK  status: ('A' for Active; 'I' for Inactive)
REMARK    1  A    between atoms: C_1  and  C_2
REMARK    2  A    between atoms: C_2  and  C_3
REMARK    3  A    between atoms: C_3  and  C_4
REMARK    4  A    between atoms: C_4  and  C_5
REMARK    5  A    between atoms: C_5  and  C_6
REMARK    6  A    between atoms: C_6  and  N_7
REMARK    7  A    between atoms: C_8  and  C_10
REMARK    8  A    between atoms: C_10  and  S_11
REMARK    9  A    between atoms: S_11  and  C_12
REMARK   10  A    between atoms: N_16  and  C_17
REMARK   11  A    between atoms: C_17  and  C_18
REMARK                            x       y       z     vdW  Elec       q    Type
REMARK                         _______ _______ _______ _____ _____    ______ ____
ROOT
ATOM      1  S   UNL     1       4.141   4.564  17.044  0.00  0.00    +0.000 S 
ENDROOT
BRANCH   1   2
ATOM      2  C   UNL     1       2.744   4.105  17.963  0.00  0.00    +0.000 A 
ATOM      3  N   UNL     1       1.975   3.081  17.666  0.00  0.00    +0.000 NA
ATOM      4  C   UNL     1       1.047   3.012  18.669  0.00  0.00    +0.000 A 
ATOM      5  C   UNL     1       1.250   4.014  19.586  0.00  0.00    +0.000 A 
ATOM      6  N   UNL     1       2.321   4.737  19.110  0.00  0.00    +0.000 N 
BRANCH   6   7
ATOM      7  C   UNL     1       2.934   5.844  19.826  0.00  0.00    +0.000 C 
BRANCH   7   8
ATOM      8  C   UNL     1       2.351   7.189  19.466  0.00  0.00    +0.000 A 
ATOM      9  C   UNL     1       2.364   7.655  18.141  0.00  0.00    +0.000 A 
ATOM     10  C   UNL     1       1.747   8.866  17.806  0.00  0.00    +0.000 A 
ATOM     11  C   UNL     1       1.114   9.625  18.788  0.00  0.00    +0.000 A 
ATOM     12  C   UNL     1       1.115   9.185  20.110  0.00  0.00    +0.000 A 
ATOM     13  C   UNL     1       1.734   7.979  20.448  0.00  0.00    +0.000 A 
ENDBRANCH   7   8
ENDBRANCH   6   7
ENDBRANCH   1   2
BRANCH   1  14
ATOM     14  C   UNL     1       5.456   4.057  18.204  0.00  0.00    +0.000 C 
BRANCH  14  16
ATOM     15  N   UNL     1       6.837   6.043  18.578  0.00  0.00    +0.000 N 
ATOM     16  C   UNL     1       6.742   4.825  17.928  0.00  0.00    +0.000 C 
ATOM     17  O   UNL     1       7.620   4.406  17.177  0.00  0.00    +0.000 OA
ATOM     18  H   UNL     1       6.063   6.365  19.146  0.00  0.00    +0.000 HD
BRANCH  15  19
ATOM     19  C   UNL     1       7.992   6.909  18.447  0.00  0.00    +0.000 C 
BRANCH  19  20
ATOM     20  C   UNL     1       7.811   8.010  17.398  0.00  0.00    +0.000 C 
BRANCH  20  21
ATOM     21  C   UNL     1       7.974   9.418  17.979  0.00  0.00    +0.000 C 
BRANCH  21  22
ATOM     22  C   UNL     1       9.183   9.503  18.916  0.00  0.00    +0.000 C 
BRANCH  22  24
ATOM     23  C   UNL     1       9.239  11.070  20.895  0.00  0.00    +0.000 C 
ATOM     24  C   UNL     1       9.418  10.939  19.391  0.00  0.00    +0.000 C 
ENDBRANCH  22  24
ENDBRANCH  21  22
ENDBRANCH  20  21
ENDBRANCH  19  20
ENDBRANCH  15  19
ENDBRANCH  14  16
ENDBRANCH   1  14
TORSDOF 10
ENDMDL
MODEL 3
REMARK VINA RESULT:      -6.7      1.882      2.489
REMARK  Name = 
REMARK  11 active torsions:
REMARK  status: ('A' for Active; 'I' for Inactive)
REMARK    1  A    between atoms: C_1  and  C_2
REMARK    2  A    between atoms: C_2  and  C_3
REMARK    3  A    between atoms: C_3  and  C_4
REMARK    4  A    between atoms: C_4  and  C_5
REMARK    5  A    between atoms: C_5  and  C_6
REMARK    6  A    between atoms: C_6  and  N_7
REMARK    7  A    between atoms: C_8  and  C_10
REMARK    8  A    between atoms: C_10  and  S_11
REMARK    9  A    between atoms: S_11  and  C_12
REMARK   10  A    between atoms: N_16  and  C_17
REMARK   11  A    between atoms: C_17  and  C_18
REMARK                            x       y       z     vdW  Elec       q    Type
REMARK                         _______ _______ _______ _____ _____    ______ ____
ROOT
ATOM      1  S   UNL     1       2.803   3.809  17.131  0.00  0.00    +0.000 S 
ENDROOT
BRANCH   1   2
ATOM      2  C   UNL     1       1.928   3.775  18.628  0.00  0.00    +0.000 A 
ATOM      3  N   UNL     1       1.046   2.852  18.942  0.00  0.00    +0.000 NA
ATOM      4  C   UNL     1       0.653   3.136  20.221  0.00  0.00    +0.000 A 
ATOM      5  C   UNL     1       1.299   4.254  20.690  0.00  0.00    +0.000 A 
ATOM      6  N   UNL     1       2.093   4.683  19.649  0.00  0.00    +0.000 N 
BRANCH   6   7
ATOM      7  C   UNL     1       3.024   5.795  19.746  0.00  0.00    +0.000 C 
BRANCH   7   8
ATOM      8  C   UNL     1       2.403   7.130  19.410  0.00  0.00    +0.000 A 
ATOM      9  C   UNL     1       2.455   7.648  18.105  0.00  0.00    +0.000 A 
ATOM     10  C   UNL     1       1.805   8.846  17.788  0.00  0.00    +0.000 A 
ATOM     11  C   UNL     1       1.099   9.540  18.768  0.00  0.00    +0.000 A 
ATOM     12  C   UNL     1       1.060   9.050  20.071  0.00  0.00    +0.000 A 
ATOM     13  C   UNL     1       1.712   7.857  20.391  0.00  0.00    +0.000 A 
ENDBRANCH   7   8
ENDBRANCH   6   7
ENDBRANCH   1   2
BRANCH   1  14
ATOM     14  C   UNL     1       4.507   3.644  17.763  0.00  0.00    +0.000 C 
BRANCH  14  16
ATOM     15  N   UNL     1       6.259   4.050  16.103  0.00  0.00    +0.000 N 
ATOM     16  C   UNL     1       5.438   4.622  17.059  0.00  0.00    +0.000 C 
ATOM     17  O   UNL     1       5.472   5.822  17.327  0.00  0.00    +0.000 OA
ATOM     18  H   UNL     1       6.228   3.049  15.956  0.00  0.00    +0.000 HD
BRANCH  15  19
ATOM     19  C   UNL     1       7.204   4.825  15.321  0.00  0.00    +0.000 C 
BRANCH  19  20
ATOM     20  C   UNL     1       6.945   4.757  13.813  0.00  0.00    +0.000 C 
BRANCH  20  21
ATOM     21  C   UNL     1       6.218   3.476  13.392  0.00  0.00    +0.000 C 
BRANCH  21  22
ATOM     22  C   UNL     1       4.869   3.785  12.735  0.00  0.00    +0.000 C 
BRANCH  22  24
ATOM     23  C   UNL     1       3.450   3.420  10.678  0.00  0.00    +0.000 C 
ATOM     24  C   UNL     1       4.667   2.957  11.464  0.00  0.00    +0.000 C 
ENDBRANCH  22  24
ENDBRANCH  21  22
ENDBRANCH  20  21
ENDBRANCH  19  20
ENDBRANCH  15  19
ENDBRANCH  14  16
ENDBRANCH   1  14
TORSDOF 10
ENDMDL
MODEL 4
REMARK VINA RESULT:      -6.7      2.155      3.585
REMARK  Name = 
REMARK  11 active torsions:
REMARK  status: ('A' for Active; 'I' for Inactive)
REMARK    1  A    between atoms: C_1  and  C_2
REMARK    2  A    between atoms: C_2  and  C_3
REMARK    3  A    between atoms: C_3  and  C_4
REMARK    4  A    between atoms: C_4  and  C_5
REMARK    5  A    between atoms: C_5  and  C_6
REMARK    6  A    between atoms: C_6  and  N_7
REMARK    7  A    between atoms: C_8  and  C_10
REMARK    8  A    between atoms: C_10  and  S_11
REMARK    9  A    between atoms: S_11  and  C_12
REMARK   10  A    between atoms: N_16  and  C_17
REMARK   11  A    between atoms: C_17  and  C_18
REMARK                            x       y       z     vdW  Elec       q    Type
REMARK                         _______ _______ _______ _____ _____    ______ ____
ROOT
ATOM      1  S   UNL     1       4.585   3.765  16.980  0.00  0.00    +0.000 S 
ENDROOT
BRANCH   1   2
ATOM      2  C   UNL     1       4.221   5.409  17.395  0.00  0.00    +0.000 A 
ATOM      3  N   UNL     1       5.088   6.394  17.318  0.00  0.00    +0.000 NA
ATOM      4  C   UNL     1       4.392   7.525  17.649  0.00  0.00    +0.000 A 
ATOM      5  C   UNL     1       3.084   7.222  17.938  0.00  0.00    +0.000 A 
ATOM      6  N   UNL     1       2.986   5.854  17.809  0.00  0.00    +0.000 N 
BRANCH   6   7
ATOM      7  C   UNL     1       1.741   5.116  17.938  0.00  0.00    +0.000 C 
BRANCH   7   8
ATOM      8  C   UNL     1       1.681   4.250  19.173  0.00  0.00    +0.000 A 
ATOM      9  C   UNL     1       1.274   2.907  19.100  0.00  0.00    +0.000 A 
ATOM     10  C   UNL     1       1.302   2.092  20.238  0.00  0.00    +0.000 A 
ATOM     11  C   UNL     1       1.734   2.607  21.458  0.00  0.00    +0.000 A 
ATOM     12  C   UNL     1       2.118   3.943  21.548  0.00  0.00    +0.000 A 
ATOM     13  C   UNL     1       2.087   4.760  20.416  0.00  0.00    +0.000 A 
ENDBRANCH   7   8
ENDBRANCH   6   7
ENDBRANCH   1   2
BRANCH   1  14
ATOM     14  C   UNL     1       6.184   4.005  16.134  0.00  0.00    +0.000 C 
BRANCH  14  16
ATOM     15  N   UNL     1       6.855   3.702  13.800  0.00  0.00    +0.000 N 
ATOM     16  C   UNL     1       5.970   4.327  14.661  0.00  0.00    +0.000 C 
ATOM     17  O   UNL     1       5.092   5.092  14.266  0.00  0.00    +0.000 OA
ATOM     18  H   UNL     1       7.593   3.122  14.180  0.00  0.00    +0.000 HD
BRANCH  15  19
ATOM     19  C   UNL     1       6.800   3.878  12.361  0.00  0.00    +0.000 C 
BRANCH  19  20
ATOM     20  C   UNL     1       6.659   2.561  11.593  0.00  0.00    +0.000 C 
BRANCH  20  21
ATOM     21  C   UNL     1       5.200   2.137  11.403  0.00  0.00    +0.000 C 
BRANCH  21  22
ATOM     22  C   UNL     1       4.262   3.348  11.363  0.00  0.00    +0.000 C 
BRANCH  22  24
ATOM     23  C   UNL     1       2.874   4.403   9.536  0.00  0.00    +0.000 C 
ATOM     24  C   UNL     1       3.134   3.144  10.349  0.00  0.00    +0.000 C 
ENDBRANCH  22  24
ENDBRANCH  21  22
ENDBRANCH  20  21
ENDBRANCH  19  20
ENDBRANCH  15  19
ENDBRANCH  14  16
ENDBRANCH   1  14
TORSDOF 10
ENDMDL
MODEL 5
REMARK VINA RESULT:      -6.6      3.085      4.953
REMARK  Name = 
REMARK  11 active torsions:
REMARK  status: ('A' for Active; 'I' for Inactive)
REMARK    1  A    between atoms: C_1  and  C_2
REMARK    2  A    between atoms: C_2  and  C_3
REMARK    3  A    between atoms: C_3  and  C_4
REMARK    4  A    between atoms: C_4  and  C_5
REMARK    5  A    between atoms: C_5  and  C_6
REMARK    6  A    between atoms: C_6  and  N_7
REMARK    7  A    between atoms: C_8  and  C_10
REMARK    8  A    between atoms: C_10  and  S_11
REMARK    9  A    between atoms: S_11  and  C_12
REMARK   10  A    between atoms: N_16  and  C_17
REMARK   11  A    between atoms: C_17  and  C_18
REMARK                            x       y       z     vdW  Elec       q    Type
REMARK                         _______ _______ _______ _____ _____    ______ ____
ROOT
ATOM      1  S   UNL     1       4.176   2.550  19.067  0.00  0.00    +0.000 S 
ENDROOT
BRANCH   1   2
ATOM      2  C   UNL     1       2.655   3.175  19.618  0.00  0.00    +0.000 A 
ATOM      3  N   UNL     1       1.599   2.429  19.861  0.00  0.00    +0.000 NA
ATOM      4  C   UNL     1       0.648   3.283  20.349  0.00  0.00    +0.000 A 
ATOM      5  C   UNL     1       1.128   4.568  20.396  0.00  0.00    +0.000 A 
ATOM      6  N   UNL     1       2.408   4.501  19.892  0.00  0.00    +0.000 N 
BRANCH   6   7
ATOM      7  C   UNL     1       3.321   5.632  19.846  0.00  0.00    +0.000 C 
BRANCH   7   8
ATOM      8  C   UNL     1       2.660   6.920  19.416  0.00  0.00    +0.000 A 
ATOM      9  C   UNL     1       2.680   7.334  18.074  0.00  0.00    +0.000 A 
ATOM     10  C   UNL     1       1.993   8.487  17.675  0.00  0.00    +0.000 A 
ATOM     11  C   UNL     1       1.284   9.239  18.608  0.00  0.00    +0.000 A 
ATOM     12  C   UNL     1       1.276   8.851  19.947  0.00  0.00    +0.000 A 
ATOM     13  C   UNL     1       1.964   7.704  20.349  0.00  0.00    +0.000 A 
ENDBRANCH   7   8
ENDBRANCH   6   7
ENDBRANCH   1   2
BRANCH   1  14
ATOM     14  C   UNL     1       4.149   3.145  17.342  0.00  0.00    +0.000 C 
BRANCH  14  16
ATOM     15  N   UNL     1       6.109   4.382  18.128  0.00  0.00    +0.000 N 
ATOM     16  C   UNL     1       5.421   3.918  17.021  0.00  0.00    +0.000 C 
ATOM     17  O   UNL     1       5.801   4.129  15.870  0.00  0.00    +0.000 OA
ATOM     18  H   UNL     1       5.727   4.225  19.052  0.00  0.00    +0.000 HD
BRANCH  15  19
ATOM     19  C   UNL     1       7.348   5.129  18.020  0.00  0.00    +0.000 C 
BRANCH  19  20
ATOM     20  C   UNL     1       7.140   6.605  17.674  0.00  0.00    +0.000 C 
BRANCH  20  21
ATOM     21  C   UNL     1       8.226   7.512  18.259  0.00  0.00    +0.000 C 
BRANCH  21  22
ATOM     22  C   UNL     1       8.027   8.973  17.839  0.00  0.00    +0.000 C 
BRANCH  22  24
ATOM     23  C   UNL     1       9.131  11.238  17.994  0.00  0.00    +0.000 C 
ATOM     24  C   UNL     1       8.865   9.919  18.701  0.00  0.00    +0.000 C 
ENDBRANCH  22  24
ENDBRANCH  21  22
ENDBRANCH  20  21
ENDBRANCH  19  20
ENDBRANCH  15  19
ENDBRANCH  14  16
ENDBRANCH   1  14
TORSDOF 10
ENDMDL
MODEL 6
REMARK VINA RESULT:      -6.6      1.977      3.706
REMARK  Name = 
REMARK  11 active torsions:
REMARK  status: ('A' for Active; 'I' for Inactive)
REMARK    1  A    between atoms: C_1  and  C_2
REMARK    2  A    between atoms: C_2  and  C_3
REMARK    3  A    between atoms: C_3  and  C_4
REMARK    4  A    between atoms: C_4  and  C_5
REMARK    5  A    between atoms: C_5  and  C_6
REMARK    6  A    between atoms: C_6  and  N_7
REMARK    7  A    between atoms: C_8  and  C_10
REMARK    8  A    between atoms: C_10  and  S_11
REMARK    9  A    between atoms: S_11  and  C_12
REMARK   10  A    between atoms: N_16  and  C_17
REMARK   11  A    between atoms: C_17  and  C_18
REMARK                            x       y       z     vdW  Elec       q    Type
REMARK                         _______ _______ _______ _____ _____    ______ ____
ROOT
ATOM      1  S   UNL     1       5.177   5.322  18.723  0.00  0.00    +0.000 S 
ENDROOT
BRANCH   1   2
ATOM      2  C   UNL     1       4.023   6.574  18.391  0.00  0.00    +0.000 A 
ATOM      3  N   UNL     1       4.097   7.385  17.358  0.00  0.00    +0.000 NA
ATOM      4  C   UNL     1       2.969   8.157  17.414  0.00  0.00    +0.000 A 
ATOM      5  C   UNL     1       2.201   7.817  18.501  0.00  0.00    +0.000 A 
ATOM      6  N   UNL     1       2.901   6.822  19.148  0.00  0.00    +0.000 N 
BRANCH   6   7
ATOM      7  C   UNL     1       2.401   6.105  20.309  0.00  0.00    +0.000 C 
BRANCH   7   8
ATOM      8  C   UNL     1       1.974   4.690  20.003  0.00  0.00    +0.000 A 
ATOM      9  C   UNL     1       1.903   3.717  21.014  0.00  0.00    +0.000 A 
ATOM     10  C   UNL     1       1.427   2.431  20.733  0.00  0.00    +0.000 A 
ATOM     11  C   UNL     1       1.020   2.101  19.442  0.00  0.00    +0.000 A 
ATOM     12  C   UNL     1       1.108   3.050  18.425  0.00  0.00    +0.000 A 
ATOM     13  C   UNL     1       1.586   4.333  18.702  0.00  0.00    +0.000 A 
ENDBRANCH   7   8
ENDBRANCH   6   7
ENDBRANCH   1   2
BRANCH   1  14
ATOM     14  C   UNL     1       5.011   4.335  17.197  0.00  0.00    +0.000 C 
BRANCH  14  16
ATOM     15  N   UNL     1       5.988   4.139  14.962  0.00  0.00    +0.000 N 
ATOM     16  C   UNL     1       6.172   4.609  16.250  0.00  0.00    +0.000 C 
ATOM     17  O   UNL     1       7.197   5.188  16.603  0.00  0.00    +0.000 OA
ATOM     18  H   UNL     1       5.147   3.623  14.736  0.00  0.00    +0.000 HD
BRANCH  15  19
ATOM     19  C   UNL     1       6.980   4.316  13.918  0.00  0.00    +0.000 C 
BRANCH  19  20
ATOM     20  C   UNL     1       6.508   3.833  12.544  0.00  0.00    +0.000 C 
BRANCH  20  21
ATOM     21  C   UNL     1       5.045   3.381  12.542  0.00  0.00    +0.000 C 
BRANCH  21  22
ATOM     22  C   UNL     1       4.615   2.872  11.162  0.00  0.00    +0.000 C 
BRANCH  22  24
ATOM     23  C   UNL     1       3.094   4.088   9.554  0.00  0.00    +0.000 C 
ATOM     24  C   UNL     1       3.176   3.284  10.842  0.00  0.00    +0.000 C 
ENDBRANCH  22  24
ENDBRANCH  21  22
ENDBRANCH  20  21
ENDBRANCH  19  20
ENDBRANCH  15  19
ENDBRANCH  14  16
ENDBRANCH   1  14
TORSDOF 10
ENDMDL
MODEL 7
REMARK VINA RESULT:      -6.5      1.184      1.539
REMARK  Name = 
REMARK  11 active torsions:
REMARK  status: ('A' for Active; 'I' for Inactive)
REMARK    1  A    between atoms: C_1  and  C_2
REMARK    2  A    between atoms: C_2  and  C_3
REMARK    3  A    between atoms: C_3  and  C_4
REMARK    4  A    between atoms: C_4  and  C_5
REMARK    5  A    between atoms: C_5  and  C_6
REMARK    6  A    between atoms: C_6  and  N_7
REMARK    7  A    between atoms: C_8  and  C_10
REMARK    8  A    between atoms: C_10  and  S_11
REMARK    9  A    between atoms: S_11  and  C_12
REMARK   10  A    between atoms: N_16  and  C_17
REMARK   11  A    between atoms: C_17  and  C_18
REMARK                            x       y       z     vdW  Elec       q    Type
REMARK                         _______ _______ _______ _____ _____    ______ ____
ROOT
ATOM      1  S   UNL     1       6.073   5.201  18.613  0.00  0.00    +0.000 S 
ENDROOT
BRANCH   1   2
ATOM      2  C   UNL     1       4.549   4.465  18.235  0.00  0.00    +0.000 A 
ATOM      3  N   UNL     1       4.399   3.493  17.362  0.00  0.00    +0.000 NA
ATOM      4  C   UNL     1       3.077   3.145  17.420  0.00  0.00    +0.000 A 
ATOM      5  C   UNL     1       2.411   3.921  18.337  0.00  0.00    +0.000 A 
ATOM      6  N   UNL     1       3.354   4.794  18.834  0.00  0.00    +0.000 N 
BRANCH   6   7
ATOM      7  C   UNL     1       3.095   5.741  19.906  0.00  0.00    +0.000 C 
BRANCH   7   8
ATOM      8  C   UNL     1       2.542   7.060  19.422  0.00  0.00    +0.000 A 
ATOM      9  C   UNL     1       2.793   7.519  18.118  0.00  0.00    +0.000 A 
ATOM     10  C   UNL     1       2.207   8.702  17.654  0.00  0.00    +0.000 A 
ATOM     11  C   UNL     1       1.368   9.441  18.485  0.00  0.00    +0.000 A 
ATOM     12  C   UNL     1       1.130   9.009  19.788  0.00  0.00    +0.000 A 
ATOM     13  C   UNL     1       1.716   7.830  20.255  0.00  0.00    +0.000 A 
ENDBRANCH   7   8
ENDBRANCH   6   7
ENDBRANCH   1   2
BRANCH   1  14
ATOM     14  C   UNL     1       7.101   4.483  17.287  0.00  0.00    +0.000 C 
BRANCH  14  16
ATOM     15  N   UNL     1       6.239   3.768  15.111  0.00  0.00    +0.000 N 
ATOM     16  C   UNL     1       6.545   4.850  15.917  0.00  0.00    +0.000 C 
ATOM     17  O   UNL     1       6.393   6.013  15.549  0.00  0.00    +0.000 OA
ATOM     18  H   UNL     1       6.430   2.831  15.443  0.00  0.00    +0.000 HD
BRANCH  15  19
ATOM     19  C   UNL     1       5.688   3.919  13.778  0.00  0.00    +0.000 C 
BRANCH  19  20
ATOM     20  C   UNL     1       6.756   4.037  12.688  0.00  0.00    +0.000 C 
BRANCH  20  21
ATOM     21  C   UNL     1       6.342   3.368  11.374  0.00  0.00    +0.000 C 
BRANCH  21  22
ATOM     22  C   UNL     1       5.728   1.986  11.616  0.00  0.00    +0.000 C 
BRANCH  22  24
ATOM     23  C   UNL     1       5.991  -0.496  11.230  0.00  0.00    +0.000 C 
ATOM     24  C   UNL     1       6.637   0.873  11.089  0.00  0.00    +0.000 C 
ENDBRANCH  22  24
ENDBRANCH  21  22
ENDBRANCH  20  21
ENDBRANCH  19  20
ENDBRANCH  15  19
ENDBRANCH  14  16
ENDBRANCH   1  14
TORSDOF 10
ENDMDL
MODEL 8
REMARK VINA RESULT:      -6.5      1.150      1.470
REMARK  Name = 
REMARK  11 active torsions:
REMARK  status: ('A' for Active; 'I' for Inactive)
REMARK    1  A    between atoms: C_1  and  C_2
REMARK    2  A    between atoms: C_2  and  C_3
REMARK    3  A    between atoms: C_3  and  C_4
REMARK    4  A    between atoms: C_4  and  C_5
REMARK    5  A    between atoms: C_5  and  C_6
REMARK    6  A    between atoms: C_6  and  N_7
REMARK    7  A    between atoms: C_8  and  C_10
REMARK    8  A    between atoms: C_10  and  S_11
REMARK    9  A    between atoms: S_11  and  C_12
REMARK   10  A    between atoms: N_16  and  C_17
REMARK   11  A    between atoms: C_17  and  C_18
REMARK                            x       y       z     vdW  Elec       q    Type
REMARK                         _______ _______ _______ _____ _____    ______ ____
ROOT
ATOM      1  S   UNL     1       6.252   5.266  19.371  0.00  0.00    +0.000 S 
ENDROOT
BRANCH   1   2
ATOM      2  C   UNL     1       4.886   4.652  18.495  0.00  0.00    +0.000 A 
ATOM      3  N   UNL     1       4.978   3.814  17.486  0.00  0.00    +0.000 NA
ATOM      4  C   UNL     1       3.690   3.517  17.134  0.00  0.00    +0.000 A 
ATOM      5  C   UNL     1       2.801   4.191  17.935  0.00  0.00    +0.000 A 
ATOM      6  N   UNL     1       3.574   4.948  18.787  0.00  0.00    +0.000 N 
BRANCH   6   7
ATOM      7  C   UNL     1       3.035   5.753  19.871  0.00  0.00    +0.000 C 
BRANCH   7   8
ATOM      8  C   UNL     1       2.497   7.088  19.417  0.00  0.00    +0.000 A 
ATOM      9  C   UNL     1       2.669   7.530  18.094  0.00  0.00    +0.000 A 
ATOM     10  C   UNL     1       2.095   8.732  17.664  0.00  0.00    +0.000 A 
ATOM     11  C   UNL     1       1.346   9.506  18.547  0.00  0.00    +0.000 A 
ATOM     12  C   UNL     1       1.188   9.091  19.868  0.00  0.00    +0.000 A 
ATOM     13  C   UNL     1       1.763   7.894  20.301  0.00  0.00    +0.000 A 
ENDBRANCH   7   8
ENDBRANCH   6   7
ENDBRANCH   1   2
BRANCH   1  14
ATOM     14  C   UNL     1       7.559   5.019  18.122  0.00  0.00    +0.000 C 
BRANCH  14  16
ATOM     15  N   UNL     1       7.182   4.762  15.717  0.00  0.00    +0.000 N 
ATOM     16  C   UNL     1       7.153   5.636  16.790  0.00  0.00    +0.000 C 
ATOM     17  O   UNL     1       6.839   6.819  16.671  0.00  0.00    +0.000 OA
ATOM     18  H   UNL     1       7.497   3.810  15.859  0.00  0.00    +0.000 HD
BRANCH  15  19
ATOM     19  C   UNL     1       6.817   5.165  14.373  0.00  0.00    +0.000 C 
BRANCH  19  20
ATOM     20  C   UNL     1       6.724   3.993  13.391  0.00  0.00    +0.000 C 
BRANCH  20  21
ATOM     21  C   UNL     1       5.288   3.707  12.941  0.00  0.00    +0.000 C 
BRANCH  21  22
ATOM     22  C   UNL     1       5.250   3.089  11.540  0.00  0.00    +0.000 C 
BRANCH  22  24
ATOM     23  C   UNL     1       7.170   1.598  10.854  0.00  0.00    +0.000 C 
ATOM     24  C   UNL     1       5.817   1.667  11.544  0.00  0.00    +0.000 C 
ENDBRANCH  22  24
ENDBRANCH  21  22
ENDBRANCH  20  21
ENDBRANCH  19  20
ENDBRANCH  15  19
ENDBRANCH  14  16
ENDBRANCH   1  14
TORSDOF 10
ENDMDL
MODEL 9
REMARK VINA RESULT:      -6.4      3.591      5.267
REMARK  Name = 
REMARK  11 active torsions:
REMARK  status: ('A' for Active; 'I' for Inactive)
REMARK    1  A    between atoms: C_1  and  C_2
REMARK    2  A    between atoms: C_2  and  C_3
REMARK    3  A    between atoms: C_3  and  C_4
REMARK    4  A    between atoms: C_4  and  C_5
REMARK    5  A    between atoms: C_5  and  C_6
REMARK    6  A    between atoms: C_6  and  N_7
REMARK    7  A    between atoms: C_8  and  C_10
REMARK    8  A    between atoms: C_10  and  S_11
REMARK    9  A    between atoms: S_11  and  C_12
REMARK   10  A    between atoms: N_16  and  C_17
REMARK   11  A    between atoms: C_17  and  C_18
REMARK                            x       y       z     vdW  Elec       q    Type
REMARK                         _______ _______ _______ _____ _____    ______ ____
ROOT
ATOM      1  S   UNL     1       4.514   2.870  19.612  0.00  0.00    +0.000 S 
ENDROOT
BRANCH   1   2
ATOM      2  C   UNL     1       2.795   2.942  19.395  0.00  0.00    +0.000 A 
ATOM      3  N   UNL     1       2.097   2.026  18.761  0.00  0.00    +0.000 NA
ATOM      4  C   UNL     1       0.789   2.410  18.882  0.00  0.00    +0.000 A 
ATOM      5  C   UNL     1       0.691   3.580  19.594  0.00  0.00    +0.000 A 
ATOM      6  N   UNL     1       1.987   3.939  19.892  0.00  0.00    +0.000 N 
BRANCH   6   7
ATOM      7  C   UNL     1       2.341   5.079  20.721  0.00  0.00    +0.000 C 
BRANCH   7   8
ATOM      8  C   UNL     1       2.078   6.409  20.057  0.00  0.00    +0.000 A 
ATOM      9  C   UNL     1       1.553   7.493  20.782  0.00  0.00    +0.000 A 
ATOM     10  C   UNL     1       1.391   8.743  20.175  0.00  0.00    +0.000 A 
ATOM     11  C   UNL     1       1.747   8.927  18.841  0.00  0.00    +0.000 A 
ATOM     12  C   UNL     1       2.246   7.854  18.104  0.00  0.00    +0.000 A 
ATOM     13  C   UNL     1       2.405   6.604  18.706  0.00  0.00    +0.000 A 
ENDBRANCH   7   8
ENDBRANCH   6   7
ENDBRANCH   1   2
BRANCH   1  14
ATOM     14  C   UNL     1       5.056   3.732  18.098  0.00  0.00    +0.000 C 
BRANCH  14  16
ATOM     15  N   UNL     1       5.735   5.951  17.320  0.00  0.00    +0.000 N 
ATOM     16  C   UNL     1       5.530   5.143  18.424  0.00  0.00    +0.000 C 
ATOM     17  O   UNL     1       5.731   5.530  19.573  0.00  0.00    +0.000 OA
ATOM     18  H   UNL     1       5.604   5.568  16.392  0.00  0.00    +0.000 HD
BRANCH  15  19
ATOM     19  C   UNL     1       6.175   7.329  17.432  0.00  0.00    +0.000 C 
BRANCH  19  20
ATOM     20  C   UNL     1       7.658   7.466  17.786  0.00  0.00    +0.000 C 
BRANCH  20  21
ATOM     21  C   UNL     1       8.222   8.851  17.456  0.00  0.00    +0.000 C 
BRANCH  21  22
ATOM     22  C   UNL     1       8.809   9.531  18.698  0.00  0.00    +0.000 C 
BRANCH  22  24
ATOM     23  C   UNL     1      10.465  11.363  18.174  0.00  0.00    +0.000 C 
ATOM     24  C   UNL     1       9.011  11.030  18.468  0.00  0.00    +0.000 C 
ENDBRANCH  22  24
ENDBRANCH  21  22
ENDBRANCH  20  21
ENDBRANCH  19  20
ENDBRANCH  15  19
ENDBRANCH  14  16
ENDBRANCH   1  14
TORSDOF 10
ENDMDL
