MODEL 1
REMARK VINA RESULT:      -6.6      0.000      0.000
REMARK  Name = 
REMARK  6 active torsions:
REMARK  status: ('A' for Active; 'I' for Inactive)
REMARK    1  A    between atoms: C_1  and  C_2
REMARK    2  A    between atoms: C_2  and  C_3
REMARK    3  A    between atoms: C_2  and  O_4
REMARK    4  A    between atoms: O_4  and  C_5
REMARK    5  A    between atoms: C_5  and  C_6
REMARK    6  A    between atoms: C_9  and  C_10
REMARK                            x       y       z     vdW  Elec       q    Type
REMARK                         _______ _______ _______ _____ _____    ______ ____
ROOT
ATOM      1  C   UNL     1       3.232   2.966  18.312  0.00  0.00    +0.000 A 
ATOM      2  N   UNL     1       2.948   3.450  17.094  0.00  0.00    +0.000 NA
ATOM      3  O   UNL     1       4.096   4.169  16.760  0.00  0.00    +0.000 OA
ATOM      4  C   UNL     1       4.946   4.055  17.821  0.00  0.00    +0.000 A 
ATOM      5  N   UNL     1       4.462   3.336  18.806  0.00  0.00    +0.000 NA
ENDROOT
BRANCH   4   6
ATOM      6  C   UNL     1       6.226   4.798  17.726  0.00  0.00    +0.000 C 
ATOM      7  C   UNL     1       6.579   5.515  19.034  0.00  0.00    +0.000 C 
ATOM      8  C   UNL     1       7.864   6.323  18.851  0.00  0.00    +0.000 C 
ATOM      9  C   UNL     1       7.769   7.231  17.630  0.00  0.00    +0.000 C 
ATOM     10  O   UNL     1       7.436   6.486  16.459  0.00  0.00    +0.000 OA
ATOM     11  C   UNL     1       6.177   5.816  16.586  0.00  0.00    +0.000 C 
ENDBRANCH   4   6
BRANCH   1  12
ATOM     12  C   UNL     1       2.267   2.154  19.103  0.00  0.00    +0.000 C 
BRANCH  12  13
ATOM     13  O   UNL     1       1.031   2.845  19.313  0.00  0.00    +0.000 OA
BRANCH  13  15
ATOM     14  C   UNL     1       1.701   2.602  21.576  0.00  0.00    +0.000 C 
ATOM     15  C   UNL     1       0.926   3.474  20.593  0.00  0.00    +0.000 C 
ATOM     16  C   UNL     1       1.514   4.882  20.574  0.00  0.00    +0.000 C 
ENDBRANCH  13  15
ENDBRANCH  12  13
ENDBRANCH   1  12
TORSDOF 4
ENDMDL
MODEL 2
REMARK VINA RESULT:      -6.4      3.058      6.183
REMARK  Name = 
REMARK  6 active torsions:
REMARK  status: ('A' for Active; 'I' for Inactive)
REMARK    1  A    between atoms: C_1  and  C_2
REMARK    2  A    between atoms: C_2  and  C_3
REMARK    3  A    between atoms: C_2  and  O_4
REMARK    4  A    between atoms: O_4  and  C_5
REMARK    5  A    between atoms: C_5  and  C_6
REMARK    6  A    between atoms: C_9  and  C_10
REMARK                            x       y       z     vdW  Elec       q    Type
REMARK                         _______ _______ _______ _____ _____    ______ ____
ROOT
ATOM      1  C   UNL     1       6.690   4.450  16.092  0.00  0.00    +0.000 A 
ATOM      2  N   UNL     1       7.723   4.545  16.941  0.00  0.00    +0.000 NA
ATOM      3  O   UNL     1       7.121   4.412  18.192  0.00  0.00    +0.000 OA
ATOM      4  C   UNL     1       5.784   4.266  17.965  0.00  0.00    +0.000 A 
ATOM      5  N   UNL     1       5.462   4.293  16.693  0.00  0.00    +0.000 NA
ENDROOT
BRANCH   4   6
ATOM      6  C   UNL     1       4.915   4.169  19.163  0.00  0.00    +0.000 C 
ATOM      7  C   UNL     1       4.206   2.813  19.256  0.00  0.00    +0.000 C 
ATOM      8  C   UNL     1       3.270   2.801  20.465  0.00  0.00    +0.000 C 
ATOM      9  C   UNL     1       2.339   4.008  20.446  0.00  0.00    +0.000 C 
ATOM     10  O   UNL     1       3.078   5.226  20.356  0.00  0.00    +0.000 OA
ATOM     11  C   UNL     1       3.872   5.288  19.167  0.00  0.00    +0.000 C 
ENDBRANCH   4   6
BRANCH   1  12
ATOM     12  C   UNL     1       6.844   4.579  14.616  0.00  0.00    +0.000 C 
BRANCH  12  13
ATOM     13  O   UNL     1       5.725   4.033  13.910  0.00  0.00    +0.000 OA
BRANCH  13  15
ATOM     14  C   UNL     1       4.797   3.382  11.825  0.00  0.00    +0.000 C 
ATOM     15  C   UNL     1       6.067   3.409  12.670  0.00  0.00    +0.000 C 
ATOM     16  C   UNL     1       7.160   4.182  11.937  0.00  0.00    +0.000 C 
ENDBRANCH  13  15
ENDBRANCH  12  13
ENDBRANCH   1  12
TORSDOF 4
ENDMDL
MODEL 3
REMARK VINA RESULT:      -6.4      1.249      5.900
REMARK  Name = 
REMARK  6 active torsions:
REMARK  status: ('A' for Active; 'I' for Inactive)
REMARK    1  A    between atoms: C_1  and  C_2
REMARK    2  A    between atoms: C_2  and  C_3
REMARK    3  A    between atoms: C_2  and  O_4
REMARK    4  A    between atoms: O_4  and  C_5
REMARK    5  A    between atoms: C_5  and  C_6
REMARK    6  A    between atoms: C_9  and  C_10
REMARK                            x       y       z     vdW  Elec       q    Type
REMARK                         _______ _______ _______ _____ _____    ______ ____
ROOT
ATOM      1  C   UNL     1       5.187   5.057  16.391  0.00  0.00    +0.000 A 
ATOM      2  N   UNL     1       5.393   3.732  16.369  0.00  0.00    +0.000 NA
ATOM      3  O   UNL     1       4.322   3.230  17.108  0.00  0.00    +0.000 OA
ATOM      4  C   UNL     1       3.591   4.309  17.511  0.00  0.00    +0.000 A 
ATOM      5  N   UNL     1       4.083   5.457  17.108  0.00  0.00    +0.000 NA
ENDROOT
BRANCH   4   6
ATOM      6  C   UNL     1       2.419   4.029  18.377  0.00  0.00    +0.000 C 
ATOM      7  C   UNL     1       2.442   4.853  19.669  0.00  0.00    +0.000 C 
ATOM      8  C   UNL     1       1.255   4.466  20.552  0.00  0.00    +0.000 C 
ATOM      9  C   UNL     1       1.199   2.957  20.758  0.00  0.00    +0.000 C 
ATOM     10  O   UNL     1       1.183   2.266  19.509  0.00  0.00    +0.000 OA
ATOM     11  C   UNL     1       2.349   2.542  18.726  0.00  0.00    +0.000 C 
ENDBRANCH   4   6
BRANCH   1  12
ATOM     12  C   UNL     1       6.119   6.029  15.755  0.00  0.00    +0.000 C 
BRANCH  12  13
ATOM     13  O   UNL     1       7.340   6.163  16.491  0.00  0.00    +0.000 OA
BRANCH  13  15
ATOM     14  C   UNL     1       7.816   6.025  18.811  0.00  0.00    +0.000 C 
ATOM     15  C   UNL     1       7.205   6.891  17.713  0.00  0.00    +0.000 C 
ATOM     16  C   UNL     1       7.930   8.232  17.648  0.00  0.00    +0.000 C 
ENDBRANCH  13  15
ENDBRANCH  12  13
ENDBRANCH   1  12
TORSDOF 4
ENDMDL
MODEL 4
REMARK VINA RESULT:      -6.3      2.119      6.452
REMARK  Name = 
REMARK  6 active torsions:
REMARK  status: ('A' for Active; 'I' for Inactive)
REMARK    1  A    between atoms: C_1  and  C_2
REMARK    2  A    between atoms: C_2  and  C_3
REMARK    3  A    between atoms: C_2  and  O_4
REMARK    4  A    between atoms: O_4  and  C_5
REMARK    5  A    between atoms: C_5  and  C_6
REMARK    6  A    between atoms: C_9  and  C_10
REMARK                            x       y       z     vdW  Elec       q    Type
REMARK                         _______ _______ _______ _____ _____    ______ ____
ROOT
ATOM      1  C   UNL     1       6.339   4.876  17.504  0.00  0.00    +0.000 A 
ATOM      2  N   UNL     1       6.868   4.667  18.718  0.00  0.00    +0.000 NA
ATOM      3  O   UNL     1       5.856   3.986  19.394  0.00  0.00    +0.000 OA
ATOM      4  C   UNL     1       4.816   3.870  18.520  0.00  0.00    +0.000 A 
ATOM      5  N   UNL     1       5.054   4.408  17.347  0.00  0.00    +0.000 NA
ENDROOT
BRANCH   4   6
ATOM      6  C   UNL     1       3.583   3.228  19.039  0.00  0.00    +0.000 C 
ATOM      7  C   UNL     1       2.529   3.030  17.945  0.00  0.00    +0.000 C 
ATOM      8  C   UNL     1       1.257   2.436  18.552  0.00  0.00    +0.000 C 
ATOM      9  C   UNL     1       0.790   3.258  19.749  0.00  0.00    +0.000 C 
ATOM     10  O   UNL     1       1.830   3.396  20.716  0.00  0.00    +0.000 OA
ATOM     11  C   UNL     1       2.983   4.052  20.178  0.00  0.00    +0.000 C 
ENDBRANCH   4   6
BRANCH   1  12
ATOM     12  C   UNL     1       7.052   5.620  16.429  0.00  0.00    +0.000 C 
BRANCH  12  13
ATOM     13  O   UNL     1       7.506   4.752  15.385  0.00  0.00    +0.000 OA
BRANCH  13  15
ATOM     14  C   UNL     1       7.971   5.282  13.120  0.00  0.00    +0.000 C 
ATOM     15  C   UNL     1       6.866   4.972  14.126  0.00  0.00    +0.000 C 
ATOM     16  C   UNL     1       6.083   3.744  13.673  0.00  0.00    +0.000 C 
ENDBRANCH  13  15
ENDBRANCH  12  13
ENDBRANCH   1  12
TORSDOF 4
ENDMDL
MODEL 5
REMARK VINA RESULT:      -6.2      2.830      6.341
REMARK  Name = 
REMARK  6 active torsions:
REMARK  status: ('A' for Active; 'I' for Inactive)
REMARK    1  A    between atoms: C_1  and  C_2
REMARK    2  A    between atoms: C_2  and  C_3
REMARK    3  A    between atoms: C_2  and  O_4
REMARK    4  A    between atoms: O_4  and  C_5
REMARK    5  A    between atoms: C_5  and  C_6
REMARK    6  A    between atoms: C_9  and  C_10
REMARK                            x       y       z     vdW  Elec       q    Type
REMARK                         _______ _______ _______ _____ _____    ______ ____
ROOT
ATOM      1  C   UNL     1       5.134   4.418  16.092  0.00  0.00    +0.000 A 
ATOM      2  N   UNL     1       4.808   5.669  16.451  0.00  0.00    +0.000 NA
ATOM      3  O   UNL     1       3.955   5.476  17.537  0.00  0.00    +0.000 OA
ATOM      4  C   UNL     1       3.843   4.128  17.708  0.00  0.00    +0.000 A 
ATOM      5  N   UNL     1       4.538   3.429  16.841  0.00  0.00    +0.000 NA
ENDROOT
BRANCH   4   6
ATOM      6  C   UNL     1       2.924   3.669  18.779  0.00  0.00    +0.000 C 
ATOM      7  C   UNL     1       2.056   4.808  19.325  0.00  0.00    +0.000 C 
ATOM      8  C   UNL     1       1.189   4.293  20.474  0.00  0.00    +0.000 C 
ATOM      9  C   UNL     1       2.038   3.579  21.521  0.00  0.00    +0.000 C 
ATOM     10  O   UNL     1       2.814   2.538  20.929  0.00  0.00    +0.000 OA
ATOM     11  C   UNL     1       3.709   3.034  19.928  0.00  0.00    +0.000 C 
ENDBRANCH   4   6
BRANCH   1  12
ATOM     12  C   UNL     1       6.011   4.117  14.927  0.00  0.00    +0.000 C 
BRANCH  12  13
ATOM     13  O   UNL     1       5.308   4.224  13.684  0.00  0.00    +0.000 OA
BRANCH  13  15
ATOM     14  C   UNL     1       4.695   3.199  11.634  0.00  0.00    +0.000 C 
ATOM     15  C   UNL     1       5.817   3.374  12.653  0.00  0.00    +0.000 C 
ATOM     16  C   UNL     1       7.040   3.986  11.976  0.00  0.00    +0.000 C 
ENDBRANCH  13  15
ENDBRANCH  12  13
ENDBRANCH   1  12
TORSDOF 4
ENDMDL
MODEL 6
REMARK VINA RESULT:      -6.1      1.833      2.842
REMARK  Name = 
REMARK  6 active torsions:
REMARK  status: ('A' for Active; 'I' for Inactive)
REMARK    1  A    between atoms: C_1  and  C_2
REMARK    2  A    between atoms: C_2  and  C_3
REMARK    3  A    between atoms: C_2  and  O_4
REMARK    4  A    between atoms: O_4  and  C_5
REMARK    5  A    between atoms: C_5  and  C_6
REMARK    6  A    between atoms: C_9  and  C_10
REMARK                            x       y       z     vdW  Elec       q    Type
REMARK                         _______ _______ _______ _____ _____    ______ ____
ROOT
ATOM      1  C   UNL     1       3.262   5.515  19.533  0.00  0.00    +0.000 A 
ATOM      2  N   UNL     1       4.404   4.995  20.006  0.00  0.00    +0.000 NA
ATOM      3  O   UNL     1       5.237   4.986  18.887  0.00  0.00    +0.000 OA
ATOM      4  C   UNL     1       4.503   5.487  17.853  0.00  0.00    +0.000 A 
ATOM      5  N   UNL     1       3.278   5.819  18.191  0.00  0.00    +0.000 NA
ENDROOT
BRANCH   4   6
ATOM      6  C   UNL     1       5.163   5.519  16.525  0.00  0.00    +0.000 C 
ATOM      7  C   UNL     1       4.963   4.213  15.747  0.00  0.00    +0.000 C 
ATOM      8  C   UNL     1       5.728   4.276  14.425  0.00  0.00    +0.000 C 
ATOM      9  C   UNL     1       7.185   4.665  14.655  0.00  0.00    +0.000 C 
ATOM     10  O   UNL     1       7.281   5.888  15.386  0.00  0.00    +0.000 OA
ATOM     11  C   UNL     1       6.660   5.796  16.673  0.00  0.00    +0.000 C 
ENDBRANCH   4   6
BRANCH   1  12
ATOM     12  C   UNL     1       2.044   5.682  20.373  0.00  0.00    +0.000 C 
BRANCH  12  13
ATOM     13  O   UNL     1       1.075   4.657  20.125  0.00  0.00    +0.000 OA
BRANCH  13  15
ATOM     14  C   UNL     1       1.472   2.713  21.425  0.00  0.00    +0.000 C 
ATOM     15  C   UNL     1       1.628   3.341  20.044  0.00  0.00    +0.000 C 
ATOM     16  C   UNL     1       0.903   2.493  19.004  0.00  0.00    +0.000 C 
ENDBRANCH  13  15
ENDBRANCH  12  13
ENDBRANCH   1  12
TORSDOF 4
ENDMDL
MODEL 7
REMARK VINA RESULT:      -6.1      2.279      6.336
REMARK  Name = 
REMARK  6 active torsions:
REMARK  status: ('A' for Active; 'I' for Inactive)
REMARK    1  A    between atoms: C_1  and  C_2
REMARK    2  A    between atoms: C_2  and  C_3
REMARK    3  A    between atoms: C_2  and  O_4
REMARK    4  A    between atoms: O_4  and  C_5
REMARK    5  A    between atoms: C_5  and  C_6
REMARK    6  A    between atoms: C_9  and  C_10
REMARK                            x       y       z     vdW  Elec       q    Type
REMARK                         _______ _______ _______ _____ _____    ______ ____
ROOT
ATOM      1  C   UNL     1       6.147   4.596  17.136  0.00  0.00    +0.000 A 
ATOM      2  N   UNL     1       6.697   4.424  18.347  0.00  0.00    +0.000 NA
ATOM      3  O   UNL     1       5.605   4.092  19.148  0.00  0.00    +0.000 OA
ATOM      4  C   UNL     1       4.508   4.114  18.338  0.00  0.00    +0.000 A 
ATOM      5  N   UNL     1       4.781   4.428  17.093  0.00  0.00    +0.000 NA
ENDROOT
BRANCH   4   6
ATOM      6  C   UNL     1       3.200   3.851  18.986  0.00  0.00    +0.000 C 
ATOM      7  C   UNL     1       2.796   4.970  19.952  0.00  0.00    +0.000 C 
ATOM      8  C   UNL     1       1.482   4.607  20.644  0.00  0.00    +0.000 C 
ATOM      9  C   UNL     1       1.561   3.220  21.272  0.00  0.00    +0.000 C 
ATOM     10  O   UNL     1       1.945   2.240  20.307  0.00  0.00    +0.000 OA
ATOM     11  C   UNL     1       3.227   2.519  19.736  0.00  0.00    +0.000 C 
ENDBRANCH   4   6
BRANCH   1  12
ATOM     12  C   UNL     1       6.936   5.009  15.942  0.00  0.00    +0.000 C 
BRANCH  12  13
ATOM     13  O   UNL     1       6.167   4.930  14.737  0.00  0.00    +0.000 OA
BRANCH  13  15
ATOM     14  C   UNL     1       5.701   3.599  12.829  0.00  0.00    +0.000 C 
ATOM     15  C   UNL     1       6.809   4.208  13.683  0.00  0.00    +0.000 C 
ATOM     16  C   UNL     1       7.679   5.123  12.827  0.00  0.00    +0.000 C 
ENDBRANCH  13  15
ENDBRANCH  12  13
ENDBRANCH   1  12
TORSDOF 4
ENDMDL
MODEL 8
REMARK VINA RESULT:      -6.1      3.258      6.385
REMARK  Name = 
REMARK  6 active torsions:
REMARK  status: ('A' for Active; 'I' for Inactive)
REMARK    1  A    between atoms: C_1  and  C_2
REMARK    2  A    between atoms: C_2  and  C_3
REMARK    3  A    between atoms: C_2  and  O_4
REMARK    4  A    between atoms: O_4  and  C_5
REMARK    5  A    between atoms: C_5  and  C_6
REMARK    6  A    between atoms: C_9  and  C_10
REMARK                            x       y       z     vdW  Elec       q    Type
REMARK                         _______ _______ _______ _____ _____    ______ ____
ROOT
ATOM      1  C   UNL     1       5.600   4.992  15.342  0.00  0.00    +0.000 A 
ATOM      2  N   UNL     1       5.225   6.247  15.630  0.00  0.00    +0.000 NA
ATOM      3  O   UNL     1       4.444   6.091  16.775  0.00  0.00    +0.000 OA
ATOM      4  C   UNL     1       4.419   4.754  17.047  0.00  0.00    +0.000 A 
ATOM      5  N   UNL     1       5.103   4.031  16.193  0.00  0.00    +0.000 NA
ENDROOT
BRANCH   4   6
ATOM      6  C   UNL     1       3.588   4.329  18.200  0.00  0.00    +0.000 C 
ATOM      7  C   UNL     1       2.107   4.191  17.828  0.00  0.00    +0.000 C 
ATOM      8  C   UNL     1       1.293   3.826  19.070  0.00  0.00    +0.000 C 
ATOM      9  C   UNL     1       1.577   4.796  20.212  0.00  0.00    +0.000 C 
ATOM     10  O   UNL     1       2.975   4.867  20.492  0.00  0.00    +0.000 OA
ATOM     11  C   UNL     1       3.729   5.315  19.361  0.00  0.00    +0.000 C 
ENDBRANCH   4   6
BRANCH   1  12
ATOM     12  C   UNL     1       6.428   4.652  14.151  0.00  0.00    +0.000 C 
BRANCH  12  13
ATOM     13  O   UNL     1       6.003   3.431  13.534  0.00  0.00    +0.000 OA
BRANCH  13  15
ATOM     14  C   UNL     1       6.853   2.440  11.553  0.00  0.00    +0.000 C 
ATOM     15  C   UNL     1       5.909   3.501  12.109  0.00  0.00    +0.000 C 
ATOM     16  C   UNL     1       4.486   3.232  11.629  0.00  0.00    +0.000 C 
ENDBRANCH  13  15
ENDBRANCH  12  13
ENDBRANCH   1  12
TORSDOF 4
ENDMDL
MODEL 9
REMARK VINA RESULT:      -6.1      1.967      2.829
REMARK  Name = 
REMARK  6 active torsions:
REMARK  status: ('A' for Active; 'I' for Inactive)
REMARK    1  A    between atoms: C_1  and  C_2
REMARK    2  A    between atoms: C_2  and  C_3
REMARK    3  A    between atoms: C_2  and  O_4
REMARK    4  A    between atoms: O_4  and  C_5
REMARK    5  A    between atoms: C_5  and  C_6
REMARK    6  A    between atoms: C_9  and  C_10
REMARK                            x       y       z     vdW  Elec       q    Type
REMARK                         _______ _______ _______ _____ _____    ______ ____
ROOT
ATOM      1  C   UNL     1       2.668   5.910  19.643  0.00  0.00    +0.000 A 
ATOM      2  N   UNL     1       2.393   7.135  19.173  0.00  0.00    +0.000 NA
ATOM      3  O   UNL     1       3.281   7.274  18.107  0.00  0.00    +0.000 OA
ATOM      4  C   UNL     1       4.010   6.122  18.057  0.00  0.00    +0.000 A 
ATOM      5  N   UNL     1       3.682   5.253  18.985  0.00  0.00    +0.000 NA
ENDROOT
BRANCH   4   6
ATOM      6  C   UNL     1       5.078   6.057  17.030  0.00  0.00    +0.000 C 
ATOM      7  C   UNL     1       4.782   5.010  15.950  0.00  0.00    +0.000 C 
ATOM      8  C   UNL     1       5.950   4.937  14.966  0.00  0.00    +0.000 C 
ATOM      9  C   UNL     1       7.271   4.740  15.701  0.00  0.00    +0.000 C 
ATOM     10  O   UNL     1       7.467   5.753  16.688  0.00  0.00    +0.000 OA
ATOM     11  C   UNL     1       6.430   5.752  17.675  0.00  0.00    +0.000 C 
ENDBRANCH   4   6
BRANCH   1  12
ATOM     12  C   UNL     1       1.983   5.330  20.832  0.00  0.00    +0.000 C 
BRANCH  12  13
ATOM     13  O   UNL     1       0.890   4.483  20.462  0.00  0.00    +0.000 OA
BRANCH  13  15
ATOM     14  C   UNL     1       1.331   2.459  19.305  0.00  0.00    +0.000 C 
ATOM     15  C   UNL     1       1.132   3.091  20.679  0.00  0.00    +0.000 C 
ATOM     16  C   UNL     1       2.373   2.866  21.538  0.00  0.00    +0.000 C 
ENDBRANCH  13  15
ENDBRANCH  12  13
ENDBRANCH   1  12
TORSDOF 4
ENDMDL
