MODEL 1
REMARK VINA RESULT:      -7.8      0.000      0.000
REMARK  Name = 
REMARK  7 active torsions:
REMARK  status: ('A' for Active; 'I' for Inactive)
REMARK    1  A    between atoms: C_1  and  O_2
REMARK    2  A    between atoms: O_2  and  C_3
REMARK    3  A    between atoms: C_8  and  C_9
REMARK    4  A    between atoms: N_11  and  C_12
REMARK    5  A    between atoms: C_15  and  C_16
REMARK    6  A    between atoms: C_16  and  N_17
REMARK    7  A    between atoms: N_20  and  C_21
REMARK                            x       y       z     vdW  Elec       q    Type
REMARK                         _______ _______ _______ _____ _____    ______ ____
ROOT
ATOM      1  C   UNL     1       0.372   9.788  20.596  0.00  0.00    +0.000 A 
ATOM      2  C   UNL     1       0.701   8.634  21.311  0.00  0.00    +0.000 A 
ATOM      3  C   UNL     1       1.496   7.640  20.743  0.00  0.00    +0.000 A 
ATOM      4  C   UNL     1       1.994   7.789  19.447  0.00  0.00    +0.000 A 
ATOM      5  C   UNL     1       1.659   8.944  18.725  0.00  0.00    +0.000 A 
ATOM      6  C   UNL     1       0.835   9.926  19.284  0.00  0.00    +0.000 A 
ENDROOT
BRANCH   1   9
ATOM      7  C   UNL     1      -0.590  11.072  22.493  0.00  0.00    +0.000 C 
ATOM      8  O   UNL     1      -0.036  10.451  23.402  0.00  0.00    +0.000 OA
ATOM      9  N   UNL     1      -0.424  10.823  21.144  0.00  0.00    +0.000 N 
ATOM     10  H   UNL     1      -0.795  11.497  20.487  0.00  0.00    +0.000 HD
BRANCH   7  16
ATOM     11  C   UNL     1      -3.660  12.701  23.917  0.00  0.00    +0.000 A 
ATOM     12  C   UNL     1      -3.352  14.055  23.852  0.00  0.00    +0.000 A 
ATOM     13  C   UNL     1      -2.131  14.472  23.315  0.00  0.00    +0.000 A 
ATOM     14  C   UNL     1      -1.199  13.542  22.840  0.00  0.00    +0.000 A 
ATOM     15 CL   UNL     1       0.293  14.185  22.248  0.00  0.00    +0.000 Cl
ATOM     16  C   UNL     1      -1.497  12.178  22.899  0.00  0.00    +0.000 A 
ATOM     17  C   UNL     1      -2.734  11.773  23.441  0.00  0.00    +0.000 A 
BRANCH  11  19
ATOM     18  C   UNL     1      -6.034  12.723  23.958  0.00  0.00    +0.000 C 
ATOM     19  O   UNL     1      -4.810  12.165  24.423  0.00  0.00    +0.000 OA
ENDBRANCH  11  19
ENDBRANCH   7  16
ENDBRANCH   1   9
BRANCH   4  20
ATOM     20  C   UNL     1       2.813   6.683  18.817  0.00  0.00    +0.000 C 
BRANCH  20  21
ATOM     21  N   UNL     1       2.370   5.338  19.208  0.00  0.00    +0.000 NA
ATOM     22  C   UNL     1       3.501   4.548  19.734  0.00  0.00    +0.000 C 
ATOM     23  C   UNL     1       3.074   3.117  20.147  0.00  0.00    +0.000 C 
ATOM     24  N   UNL     1       2.362   2.345  19.105  0.00  0.00    +0.000 NA
ATOM     25  C   UNL     1       3.269   1.876  18.062  0.00  0.00    +0.000 C 
ATOM     26  C   UNL     1       1.286   3.183  18.544  0.00  0.00    +0.000 C 
ATOM     27  C   UNL     1       1.730   4.595  18.106  0.00  0.00    +0.000 C 
ENDBRANCH  20  21
ENDBRANCH   4  20
TORSDOF 5
ENDMDL
MODEL 2
REMARK VINA RESULT:      -7.7      7.940     10.104
REMARK  Name = 
REMARK  7 active torsions:
REMARK  status: ('A' for Active; 'I' for Inactive)
REMARK    1  A    between atoms: C_1  and  O_2
REMARK    2  A    between atoms: O_2  and  C_3
REMARK    3  A    between atoms: C_8  and  C_9
REMARK    4  A    between atoms: N_11  and  C_12
REMARK    5  A    between atoms: C_15  and  C_16
REMARK    6  A    between atoms: C_16  and  N_17
REMARK    7  A    between atoms: N_20  and  C_21
REMARK                            x       y       z     vdW  Elec       q    Type
REMARK                         _______ _______ _______ _____ _____    ______ ____
ROOT
ATOM      1  C   UNL     1       7.941   7.720  18.294  0.00  0.00    +0.000 A 
ATOM      2  C   UNL     1       6.872   7.981  17.434  0.00  0.00    +0.000 A 
ATOM      3  C   UNL     1       6.006   6.964  17.038  0.00  0.00    +0.000 A 
ATOM      4  C   UNL     1       6.183   5.662  17.510  0.00  0.00    +0.000 A 
ATOM      5  C   UNL     1       7.260   5.397  18.370  0.00  0.00    +0.000 A 
ATOM      6  C   UNL     1       8.147   6.412  18.740  0.00  0.00    +0.000 A 
ENDROOT
BRANCH   1   9
ATOM      7  C   UNL     1       8.779  10.059  18.350  0.00  0.00    +0.000 C 
ATOM      8  O   UNL     1       7.919  10.553  17.619  0.00  0.00    +0.000 OA
ATOM      9  N   UNL     1       8.835   8.730  18.726  0.00  0.00    +0.000 N 
ATOM     10  H   UNL     1       9.483   8.470  19.459  0.00  0.00    +0.000 HD
BRANCH   7  16
ATOM     11  C   UNL     1      11.625  12.506  18.216  0.00  0.00    +0.000 A 
ATOM     12  C   UNL     1      11.801  12.851  19.552  0.00  0.00    +0.000 A 
ATOM     13  C   UNL     1      11.001  12.269  20.539  0.00  0.00    +0.000 A 
ATOM     14  C   UNL     1      10.010  11.338  20.205  0.00  0.00    +0.000 A 
ATOM     15 CL   UNL     1       9.056  10.732  21.513  0.00  0.00    +0.000 Cl
ATOM     16  C   UNL     1       9.823  10.982  18.866  0.00  0.00    +0.000 A 
ATOM     17  C   UNL     1      10.641  11.575  17.883  0.00  0.00    +0.000 A 
BRANCH  11  19
ATOM     18  C   UNL     1      12.151  14.386  16.866  0.00  0.00    +0.000 C 
ATOM     19  O   UNL     1      12.333  13.006  17.161  0.00  0.00    +0.000 OA
ENDBRANCH  11  19
ENDBRANCH   7  16
ENDBRANCH   1   9
BRANCH   4  20
ATOM     20  C   UNL     1       5.270   4.551  17.036  0.00  0.00    +0.000 C 
BRANCH  20  21
ATOM     21  N   UNL     1       4.585   3.854  18.133  0.00  0.00    +0.000 NA
ATOM     22  C   UNL     1       3.891   2.651  17.634  0.00  0.00    +0.000 C 
ATOM     23  C   UNL     1       3.146   1.895  18.762  0.00  0.00    +0.000 C 
ATOM     24  N   UNL     1       2.215   2.716  19.566  0.00  0.00    +0.000 NA
ATOM     25  C   UNL     1       0.991   3.023  18.833  0.00  0.00    +0.000 C 
ATOM     26  C   UNL     1       2.909   3.946  19.989  0.00  0.00    +0.000 C 
ATOM     27  C   UNL     1       3.621   4.709  18.850  0.00  0.00    +0.000 C 
ENDBRANCH  20  21
ENDBRANCH   4  20
TORSDOF 5
ENDMDL
MODEL 3
REMARK VINA RESULT:      -7.7      7.907     10.017
REMARK  Name = 
REMARK  7 active torsions:
REMARK  status: ('A' for Active; 'I' for Inactive)
REMARK    1  A    between atoms: C_1  and  O_2
REMARK    2  A    between atoms: O_2  and  C_3
REMARK    3  A    between atoms: C_8  and  C_9
REMARK    4  A    between atoms: N_11  and  C_12
REMARK    5  A    between atoms: C_15  and  C_16
REMARK    6  A    between atoms: C_16  and  N_17
REMARK    7  A    between atoms: N_20  and  C_21
REMARK                            x       y       z     vdW  Elec       q    Type
REMARK                         _______ _______ _______ _____ _____    ______ ____
ROOT
ATOM      1  C   UNL     1       8.106   7.642  18.506  0.00  0.00    +0.000 A 
ATOM      2  C   UNL     1       8.203   6.356  19.040  0.00  0.00    +0.000 A 
ATOM      3  C   UNL     1       7.399   5.320  18.567  0.00  0.00    +0.000 A 
ATOM      4  C   UNL     1       6.489   5.549  17.533  0.00  0.00    +0.000 A 
ATOM      5  C   UNL     1       6.386   6.843  16.999  0.00  0.00    +0.000 A 
ATOM      6  C   UNL     1       7.171   7.888  17.498  0.00  0.00    +0.000 A 
ENDROOT
BRANCH   1   9
ATOM      7  C   UNL     1       8.851  10.012  18.482  0.00  0.00    +0.000 C 
ATOM      8  O   UNL     1       8.056  10.420  17.633  0.00  0.00    +0.000 OA
ATOM      9  N   UNL     1       8.914   8.715  18.955  0.00  0.00    +0.000 N 
ATOM     10  H   UNL     1       9.490   8.533  19.766  0.00  0.00    +0.000 HD
BRANCH   7  16
ATOM     11  C   UNL     1      11.570  12.604  18.460  0.00  0.00    +0.000 A 
ATOM     12  C   UNL     1      11.622  13.011  19.789  0.00  0.00    +0.000 A 
ATOM     13  C   UNL     1      10.777  12.426  20.736  0.00  0.00    +0.000 A 
ATOM     14  C   UNL     1       9.864  11.430  20.368  0.00  0.00    +0.000 A 
ATOM     15 CL   UNL     1       8.842  10.825  21.624  0.00  0.00    +0.000 Cl
ATOM     16  C   UNL     1       9.803  11.011  19.036  0.00  0.00    +0.000 A 
ATOM     17  C   UNL     1      10.665  11.608  18.093  0.00  0.00    +0.000 A 
BRANCH  11  19
ATOM     18  C   UNL     1      11.643  13.489  16.259  0.00  0.00    +0.000 C 
ATOM     19  O   UNL     1      12.333  13.099  17.441  0.00  0.00    +0.000 OA
ENDBRANCH  11  19
ENDBRANCH   7  16
ENDBRANCH   1   9
BRANCH   4  20
ATOM     20  C   UNL     1       5.582   4.434  17.059  0.00  0.00    +0.000 C 
BRANCH  20  21
ATOM     21  N   UNL     1       4.785   3.835  18.138  0.00  0.00    +0.000 NA
ATOM     22  C   UNL     1       4.049   2.652  17.649  0.00  0.00    +0.000 C 
ATOM     23  C   UNL     1       3.187   1.999  18.758  0.00  0.00    +0.000 C 
ATOM     24  N   UNL     1       2.261   2.914  19.460  0.00  0.00    +0.000 NA
ATOM     25  C   UNL     1       1.108   3.258  18.634  0.00  0.00    +0.000 C 
ATOM     26  C   UNL     1       3.004   4.120  19.872  0.00  0.00    +0.000 C 
ATOM     27  C   UNL     1       3.833   4.781  18.750  0.00  0.00    +0.000 C 
ENDBRANCH  20  21
ENDBRANCH   4  20
TORSDOF 5
ENDMDL
MODEL 4
REMARK VINA RESULT:      -7.7      3.955     10.098
REMARK  Name = 
REMARK  7 active torsions:
REMARK  status: ('A' for Active; 'I' for Inactive)
REMARK    1  A    between atoms: C_1  and  O_2
REMARK    2  A    between atoms: O_2  and  C_3
REMARK    3  A    between atoms: C_8  and  C_9
REMARK    4  A    between atoms: N_11  and  C_12
REMARK    5  A    between atoms: C_15  and  C_16
REMARK    6  A    between atoms: C_16  and  N_17
REMARK    7  A    between atoms: N_20  and  C_21
REMARK                            x       y       z     vdW  Elec       q    Type
REMARK                         _______ _______ _______ _____ _____    ______ ____
ROOT
ATOM      1  C   UNL     1       1.043   9.627  18.182  0.00  0.00    +0.000 A 
ATOM      2  C   UNL     1       1.517  10.687  18.957  0.00  0.00    +0.000 A 
ATOM      3  C   UNL     1       0.658  11.689  19.405  0.00  0.00    +0.000 A 
ATOM      4  C   UNL     1      -0.704  11.640  19.099  0.00  0.00    +0.000 A 
ATOM      5  C   UNL     1      -1.181  10.578  18.316  0.00  0.00    +0.000 A 
ATOM      6  C   UNL     1      -0.311   9.592  17.840  0.00  0.00    +0.000 A 
ENDROOT
BRANCH   1   9
ATOM      7  C   UNL     1       2.425   7.587  18.505  0.00  0.00    +0.000 C 
ATOM      8  O   UNL     1       2.215   7.442  19.711  0.00  0.00    +0.000 OA
ATOM      9  N   UNL     1       1.885   8.587  17.719  0.00  0.00    +0.000 N 
ATOM     10  H   UNL     1       1.991   8.512  16.715  0.00  0.00    +0.000 HD
BRANCH   7  16
ATOM     11  C   UNL     1       5.529   6.271  16.849  0.00  0.00    +0.000 A 
ATOM     12  C   UNL     1       5.258   4.914  16.716  0.00  0.00    +0.000 A 
ATOM     13  C   UNL     1       4.034   4.396  17.148  0.00  0.00    +0.000 A 
ATOM     14  C   UNL     1       3.065   5.227  17.724  0.00  0.00    +0.000 A 
ATOM     15 CL   UNL     1       1.616   4.454  18.262  0.00  0.00    +0.000 Cl
ATOM     16  C   UNL     1       3.324   6.593  17.863  0.00  0.00    +0.000 A 
ATOM     17  C   UNL     1       4.563   7.101  17.419  0.00  0.00    +0.000 A 
BRANCH  11  19
ATOM     18  C   UNL     1       7.501   7.406  17.523  0.00  0.00    +0.000 C 
ATOM     19  O   UNL     1       6.684   6.898  16.476  0.00  0.00    +0.000 OA
ENDBRANCH  11  19
ENDBRANCH   7  16
ENDBRANCH   1   9
BRANCH   4  20
ATOM     20  C   UNL     1      -1.623  12.757  19.545  0.00  0.00    +0.000 C 
BRANCH  20  21
ATOM     21  N   UNL     1      -2.558  12.353  20.603  0.00  0.00    +0.000 NA
ATOM     22  C   UNL     1      -3.867  13.008  20.422  0.00  0.00    +0.000 C 
ATOM     23  C   UNL     1      -4.878  12.614  21.527  0.00  0.00    +0.000 C 
ATOM     24  N   UNL     1      -4.405  12.810  22.915  0.00  0.00    +0.000 NA
ATOM     25  C   UNL     1      -4.397  14.220  23.292  0.00  0.00    +0.000 C 
ATOM     26  C   UNL     1      -3.064  12.212  23.050  0.00  0.00    +0.000 C 
ATOM     27  C   UNL     1      -2.055  12.637  21.961  0.00  0.00    +0.000 C 
ENDBRANCH  20  21
ENDBRANCH   4  20
TORSDOF 5
ENDMDL
MODEL 5
REMARK VINA RESULT:      -7.5      2.265      3.011
REMARK  Name = 
REMARK  7 active torsions:
REMARK  status: ('A' for Active; 'I' for Inactive)
REMARK    1  A    between atoms: C_1  and  O_2
REMARK    2  A    between atoms: O_2  and  C_3
REMARK    3  A    between atoms: C_8  and  C_9
REMARK    4  A    between atoms: N_11  and  C_12
REMARK    5  A    between atoms: C_15  and  C_16
REMARK    6  A    between atoms: C_16  and  N_17
REMARK    7  A    between atoms: N_20  and  C_21
REMARK                            x       y       z     vdW  Elec       q    Type
REMARK                         _______ _______ _______ _____ _____    ______ ____
ROOT
ATOM      1  C   UNL     1       0.832   9.474  19.803  0.00  0.00    +0.000 A 
ATOM      2  C   UNL     1       1.158   9.549  18.447  0.00  0.00    +0.000 A 
ATOM      3  C   UNL     1       1.915   8.550  17.835  0.00  0.00    +0.000 A 
ATOM      4  C   UNL     1       2.348   7.444  18.568  0.00  0.00    +0.000 A 
ATOM      5  C   UNL     1       2.026   7.370  19.931  0.00  0.00    +0.000 A 
ATOM      6  C   UNL     1       1.294   8.388  20.551  0.00  0.00    +0.000 A 
ENDROOT
BRANCH   1   9
ATOM      7  C   UNL     1       0.565  11.519  21.187  0.00  0.00    +0.000 C 
ATOM      8  O   UNL     1       1.763  11.767  21.339  0.00  0.00    +0.000 OA
ATOM      9  N   UNL     1       0.057  10.463  20.455  0.00  0.00    +0.000 N 
ATOM     10  H   UNL     1      -0.936  10.453  20.261  0.00  0.00    +0.000 HD
BRANCH   7  16
ATOM     11  C   UNL     1      -2.394  12.573  23.248  0.00  0.00    +0.000 A 
ATOM     12  C   UNL     1      -2.282  13.959  23.265  0.00  0.00    +0.000 A 
ATOM     13  C   UNL     1      -1.241  14.589  22.578  0.00  0.00    +0.000 A 
ATOM     14  C   UNL     1      -0.293  13.842  21.869  0.00  0.00    +0.000 A 
ATOM     15 CL   UNL     1       0.973  14.738  21.106  0.00  0.00    +0.000 Cl
ATOM     16  C   UNL     1      -0.394  12.448  21.843  0.00  0.00    +0.000 A 
ATOM     17  C   UNL     1      -1.452  11.828  22.538  0.00  0.00    +0.000 A 
BRANCH  11  19
ATOM     18  C   UNL     1      -4.461  12.560  24.415  0.00  0.00    +0.000 C 
ATOM     19  O   UNL     1      -3.356  11.839  23.882  0.00  0.00    +0.000 OA
ENDBRANCH  11  19
ENDBRANCH   7  16
ENDBRANCH   1   9
BRANCH   4  20
ATOM     20  C   UNL     1       3.212   6.389  17.910  0.00  0.00    +0.000 C 
BRANCH  20  21
ATOM     21  N   UNL     1       4.635   6.504  18.260  0.00  0.00    +0.000 NA
ATOM     22  C   UNL     1       5.452   6.733  17.052  0.00  0.00    +0.000 C 
ATOM     23  C   UNL     1       6.961   6.848  17.380  0.00  0.00    +0.000 C 
ATOM     24  N   UNL     1       7.525   5.729  18.165  0.00  0.00    +0.000 NA
ATOM     25  C   UNL     1       7.696   4.528  17.353  0.00  0.00    +0.000 C 
ATOM     26  C   UNL     1       6.650   5.472  19.324  0.00  0.00    +0.000 C 
ATOM     27  C   UNL     1       5.151   5.326  18.981  0.00  0.00    +0.000 C 
ENDBRANCH  20  21
ENDBRANCH   4  20
TORSDOF 5
ENDMDL
MODEL 6
REMARK VINA RESULT:      -7.4      3.912     10.062
REMARK  Name = 
REMARK  7 active torsions:
REMARK  status: ('A' for Active; 'I' for Inactive)
REMARK    1  A    between atoms: C_1  and  O_2
REMARK    2  A    between atoms: O_2  and  C_3
REMARK    3  A    between atoms: C_8  and  C_9
REMARK    4  A    between atoms: N_11  and  C_12
REMARK    5  A    between atoms: C_15  and  C_16
REMARK    6  A    between atoms: C_16  and  N_17
REMARK    7  A    between atoms: N_20  and  C_21
REMARK                            x       y       z     vdW  Elec       q    Type
REMARK                         _______ _______ _______ _____ _____    ______ ____
ROOT
ATOM      1  C   UNL     1       1.290   9.543  17.957  0.00  0.00    +0.000 A 
ATOM      2  C   UNL     1      -0.102   9.470  17.884  0.00  0.00    +0.000 A 
ATOM      3  C   UNL     1      -0.900  10.538  18.293  0.00  0.00    +0.000 A 
ATOM      4  C   UNL     1      -0.315  11.712  18.770  0.00  0.00    +0.000 A 
ATOM      5  C   UNL     1       1.084  11.786  18.850  0.00  0.00    +0.000 A 
ATOM      6  C   UNL     1       1.881  10.701  18.470  0.00  0.00    +0.000 A 
ENDROOT
BRANCH   1   9
ATOM      7  C   UNL     1       2.601   7.471  18.356  0.00  0.00    +0.000 C 
ATOM      8  O   UNL     1       2.319   7.331  19.547  0.00  0.00    +0.000 OA
ATOM      9  N   UNL     1       2.131   8.483  17.541  0.00  0.00    +0.000 N 
ATOM     10  H   UNL     1       2.293   8.405  16.545  0.00  0.00    +0.000 HD
BRANCH   7  16
ATOM     11  C   UNL     1       5.758   6.081  16.870  0.00  0.00    +0.000 A 
ATOM     12  C   UNL     1       5.465   4.729  16.727  0.00  0.00    +0.000 A 
ATOM     13  C   UNL     1       4.209   4.240  17.095  0.00  0.00    +0.000 A 
ATOM     14  C   UNL     1       3.229   5.093  17.616  0.00  0.00    +0.000 A 
ATOM     15 CL   UNL     1       1.738   4.354  18.080  0.00  0.00    +0.000 Cl
ATOM     16  C   UNL     1       3.511   6.454  17.765  0.00  0.00    +0.000 A 
ATOM     17  C   UNL     1       4.782   6.933  17.385  0.00  0.00    +0.000 A 
BRANCH  11  19
ATOM     18  C   UNL     1       7.535   7.493  17.563  0.00  0.00    +0.000 C 
ATOM     19  O   UNL     1       6.945   6.681  16.556  0.00  0.00    +0.000 OA
ENDBRANCH  11  19
ENDBRANCH   7  16
ENDBRANCH   1   9
BRANCH   4  20
ATOM     20  C   UNL     1      -1.187  12.848  19.261  0.00  0.00    +0.000 C 
BRANCH  20  21
ATOM     21  N   UNL     1      -1.016  13.135  20.692  0.00  0.00    +0.000 NA
ATOM     22  C   UNL     1      -1.466  11.992  21.511  0.00  0.00    +0.000 C 
ATOM     23  C   UNL     1      -1.312  12.261  23.028  0.00  0.00    +0.000 C 
ATOM     24  N   UNL     1      -1.940  13.508  23.516  0.00  0.00    +0.000 NA
ATOM     25  C   UNL     1      -3.393  13.393  23.588  0.00  0.00    +0.000 C 
ATOM     26  C   UNL     1      -1.534  14.621  22.637  0.00  0.00    +0.000 C 
ATOM     27  C   UNL     1      -1.723  14.353  21.128  0.00  0.00    +0.000 C 
ENDBRANCH  20  21
ENDBRANCH   4  20
TORSDOF 5
ENDMDL
MODEL 7
REMARK VINA RESULT:      -7.4      3.642     10.152
REMARK  Name = 
REMARK  7 active torsions:
REMARK  status: ('A' for Active; 'I' for Inactive)
REMARK    1  A    between atoms: C_1  and  O_2
REMARK    2  A    between atoms: O_2  and  C_3
REMARK    3  A    between atoms: C_8  and  C_9
REMARK    4  A    between atoms: N_11  and  C_12
REMARK    5  A    between atoms: C_15  and  C_16
REMARK    6  A    between atoms: C_16  and  N_17
REMARK    7  A    between atoms: N_20  and  C_21
REMARK                            x       y       z     vdW  Elec       q    Type
REMARK                         _______ _______ _______ _____ _____    ______ ____
ROOT
ATOM      1  C   UNL     1       1.354   8.517  20.582  0.00  0.00    +0.000 A 
ATOM      2  C   UNL     1       1.364   8.525  21.979  0.00  0.00    +0.000 A 
ATOM      3  C   UNL     1       0.530   9.381  22.697  0.00  0.00    +0.000 A 
ATOM      4  C   UNL     1      -0.346  10.238  22.029  0.00  0.00    +0.000 A 
ATOM      5  C   UNL     1      -0.353  10.236  20.626  0.00  0.00    +0.000 A 
ATOM      6  C   UNL     1       0.507   9.400  19.907  0.00  0.00    +0.000 A 
ENDROOT
BRANCH   1   9
ATOM      7  C   UNL     1       2.226   6.280  19.944  0.00  0.00    +0.000 C 
ATOM      8  O   UNL     1       1.527   5.613  20.709  0.00  0.00    +0.000 OA
ATOM      9  N   UNL     1       2.179   7.655  19.820  0.00  0.00    +0.000 N 
ATOM     10  H   UNL     1       2.676   8.080  19.047  0.00  0.00    +0.000 HD
BRANCH   7  16
ATOM     11  C   UNL     1       5.534   4.911  18.807  0.00  0.00    +0.000 A 
ATOM     12  C   UNL     1       5.183   4.113  17.724  0.00  0.00    +0.000 A 
ATOM     13  C   UNL     1       3.848   4.021  17.322  0.00  0.00    +0.000 A 
ATOM     14  C   UNL     1       2.843   4.721  18.000  0.00  0.00    +0.000 A 
ATOM     15 CL   UNL     1       1.227   4.481  17.435  0.00  0.00    +0.000 Cl
ATOM     16  C   UNL     1       3.182   5.527  19.090  0.00  0.00    +0.000 A 
ATOM     17  C   UNL     1       4.534   5.612  19.481  0.00  0.00    +0.000 A 
BRANCH  11  19
ATOM     18  C   UNL     1       7.626   6.019  18.629  0.00  0.00    +0.000 C 
ATOM     19  O   UNL     1       6.795   5.080  19.302  0.00  0.00    +0.000 OA
ENDBRANCH  11  19
ENDBRANCH   7  16
ENDBRANCH   1   9
BRANCH   4  20
ATOM     20  C   UNL     1      -1.212  11.201  22.813  0.00  0.00    +0.000 C 
BRANCH  20  21
ATOM     21  N   UNL     1      -1.572  12.407  22.055  0.00  0.00    +0.000 NA
ATOM     22  C   UNL     1      -0.865  13.588  22.588  0.00  0.00    +0.000 C 
ATOM     23  C   UNL     1      -1.228  14.884  21.820  0.00  0.00    +0.000 C 
ATOM     24  N   UNL     1      -2.675  15.169  21.712  0.00  0.00    +0.000 NA
ATOM     25  C   UNL     1      -3.230  15.649  22.974  0.00  0.00    +0.000 C 
ATOM     26  C   UNL     1      -3.367  13.952  21.250  0.00  0.00    +0.000 C 
ATOM     27  C   UNL     1      -3.022  12.673  22.044  0.00  0.00    +0.000 C 
ENDBRANCH  20  21
ENDBRANCH   4  20
TORSDOF 5
ENDMDL
MODEL 8
REMARK VINA RESULT:      -7.4      0.988      1.410
REMARK  Name = 
REMARK  7 active torsions:
REMARK  status: ('A' for Active; 'I' for Inactive)
REMARK    1  A    between atoms: C_1  and  O_2
REMARK    2  A    between atoms: O_2  and  C_3
REMARK    3  A    between atoms: C_8  and  C_9
REMARK    4  A    between atoms: N_11  and  C_12
REMARK    5  A    between atoms: C_15  and  C_16
REMARK    6  A    between atoms: C_16  and  N_17
REMARK    7  A    between atoms: N_20  and  C_21
REMARK                            x       y       z     vdW  Elec       q    Type
REMARK                         _______ _______ _______ _____ _____    ______ ____
ROOT
ATOM      1  C   UNL     1       0.894   9.687  19.771  0.00  0.00    +0.000 A 
ATOM      2  C   UNL     1       1.285   9.710  18.430  0.00  0.00    +0.000 A 
ATOM      3  C   UNL     1       2.021   8.663  17.879  0.00  0.00    +0.000 A 
ATOM      4  C   UNL     1       2.369   7.558  18.659  0.00  0.00    +0.000 A 
ATOM      5  C   UNL     1       1.982   7.536  20.007  0.00  0.00    +0.000 A 
ATOM      6  C   UNL     1       1.271   8.603  20.567  0.00  0.00    +0.000 A 
ENDROOT
BRANCH   1   9
ATOM      7  C   UNL     1       0.063  10.991  21.715  0.00  0.00    +0.000 C 
ATOM      8  O   UNL     1       0.678  10.379  22.591  0.00  0.00    +0.000 OA
ATOM      9  N   UNL     1       0.137  10.728  20.361  0.00  0.00    +0.000 N 
ATOM     10  H   UNL     1      -0.278  11.396  19.724  0.00  0.00    +0.000 HD
BRANCH   7  16
ATOM     11  C   UNL     1      -2.976  12.638  23.186  0.00  0.00    +0.000 A 
ATOM     12  C   UNL     1      -2.622  13.983  23.202  0.00  0.00    +0.000 A 
ATOM     13  C   UNL     1      -1.381  14.389  22.707  0.00  0.00    +0.000 A 
ATOM     14  C   UNL     1      -0.471  13.457  22.194  0.00  0.00    +0.000 A 
ATOM     15 CL   UNL     1       1.049  14.083  21.661  0.00  0.00    +0.000 Cl
ATOM     16  C   UNL     1      -0.814  12.102  22.171  0.00  0.00    +0.000 A 
ATOM     17  C   UNL     1      -2.072  11.708  22.671  0.00  0.00    +0.000 A 
BRANCH  11  19
ATOM     18  C   UNL     1      -4.524  12.452  24.975  0.00  0.00    +0.000 C 
ATOM     19  O   UNL     1      -4.150  12.113  23.645  0.00  0.00    +0.000 OA
ENDBRANCH  11  19
ENDBRANCH   7  16
ENDBRANCH   1   9
BRANCH   4  20
ATOM     20  C   UNL     1       3.212   6.448  18.069  0.00  0.00    +0.000 C 
BRANCH  20  21
ATOM     21  N   UNL     1       3.198   5.218  18.874  0.00  0.00    +0.000 NA
ATOM     22  C   UNL     1       4.478   4.494  18.743  0.00  0.00    +0.000 C 
ATOM     23  C   UNL     1       4.497   3.185  19.569  0.00  0.00    +0.000 C 
ATOM     24  N   UNL     1       3.369   2.262  19.318  0.00  0.00    +0.000 NA
ATOM     25  C   UNL     1       3.507   1.570  18.041  0.00  0.00    +0.000 C 
ATOM     26  C   UNL     1       2.108   3.025  19.381  0.00  0.00    +0.000 C 
ATOM     27  C   UNL     1       2.089   4.311  18.527  0.00  0.00    +0.000 C 
ENDBRANCH  20  21
ENDBRANCH   4  20
TORSDOF 5
ENDMDL
MODEL 9
REMARK VINA RESULT:      -7.4      2.348      2.919
REMARK  Name = 
REMARK  7 active torsions:
REMARK  status: ('A' for Active; 'I' for Inactive)
REMARK    1  A    between atoms: C_1  and  O_2
REMARK    2  A    between atoms: O_2  and  C_3
REMARK    3  A    between atoms: C_8  and  C_9
REMARK    4  A    between atoms: N_11  and  C_12
REMARK    5  A    between atoms: C_15  and  C_16
REMARK    6  A    between atoms: C_16  and  N_17
REMARK    7  A    between atoms: N_20  and  C_21
REMARK                            x       y       z     vdW  Elec       q    Type
REMARK                         _______ _______ _______ _____ _____    ______ ____
ROOT
ATOM      1  C   UNL     1       1.129   8.849  19.949  0.00  0.00    +0.000 A 
ATOM      2  C   UNL     1       1.380   7.714  20.722  0.00  0.00    +0.000 A 
ATOM      3  C   UNL     1       2.096   6.636  20.204  0.00  0.00    +0.000 A 
ATOM      4  C   UNL     1       2.592   6.680  18.899  0.00  0.00    +0.000 A 
ATOM      5  C   UNL     1       2.335   7.817  18.118  0.00  0.00    +0.000 A 
ATOM      6  C   UNL     1       1.589   8.884  18.630  0.00  0.00    +0.000 A 
ENDROOT
BRANCH   1   9
ATOM      7  C   UNL     1       0.445  10.416  21.751  0.00  0.00    +0.000 C 
ATOM      8  O   UNL     1       1.129   9.929  22.654  0.00  0.00    +0.000 OA
ATOM      9  N   UNL     1       0.415   9.966  20.445  0.00  0.00    +0.000 N 
ATOM     10  H   UNL     1      -0.052  10.541  19.756  0.00  0.00    +0.000 HD
BRANCH   7  16
ATOM     11  C   UNL     1      -2.434  12.276  23.287  0.00  0.00    +0.000 A 
ATOM     12  C   UNL     1      -2.120  13.605  23.024  0.00  0.00    +0.000 A 
ATOM     13  C   UNL     1      -0.961  13.926  22.314  0.00  0.00    +0.000 A 
ATOM     14  C   UNL     1      -0.095  12.923  21.859  0.00  0.00    +0.000 A 
ATOM     15 CL   UNL     1       1.329  13.456  21.037  0.00  0.00    +0.000 Cl
ATOM     16  C   UNL     1      -0.400  11.584  22.115  0.00  0.00    +0.000 A 
ATOM     17  C   UNL     1      -1.575  11.276  22.831  0.00  0.00    +0.000 A 
BRANCH  11  19
ATOM     18  C   UNL     1      -4.456  12.822  24.405  0.00  0.00    +0.000 C 
ATOM     19  O   UNL     1      -3.527  11.833  23.975  0.00  0.00    +0.000 OA
ENDBRANCH  11  19
ENDBRANCH   7  16
ENDBRANCH   1   9
BRANCH   4  20
ATOM     20  C   UNL     1       3.324   5.487  18.325  0.00  0.00    +0.000 C 
BRANCH  20  21
ATOM     21  N   UNL     1       4.767   5.711  18.168  0.00  0.00    +0.000 NA
ATOM     22  C   UNL     1       5.042   6.518  16.963  0.00  0.00    +0.000 C 
ATOM     23  C   UNL     1       6.557   6.766  16.757  0.00  0.00    +0.000 C 
ATOM     24  N   UNL     1       7.402   5.552  16.754  0.00  0.00    +0.000 NA
ATOM     25  C   UNL     1       7.261   4.797  15.513  0.00  0.00    +0.000 C 
ATOM     26  C   UNL     1       7.055   4.727  17.926  0.00  0.00    +0.000 C 
ATOM     27  C   UNL     1       5.545   4.459  18.102  0.00  0.00    +0.000 C 
ENDBRANCH  20  21
ENDBRANCH   4  20
TORSDOF 5
ENDMDL
