MODEL 1
REMARK VINA RESULT:      -8.6      0.000      0.000
REMARK  Name = 
REMARK  6 active torsions:
REMARK  status: ('A' for Active; 'I' for Inactive)
REMARK    1  A    between atoms: C_1  and  C_2
REMARK    2  A    between atoms: C_2  and  C_3
REMARK    3  A    between atoms: C_5  and  O_6
REMARK    4  A    between atoms: C_8  and  C_9
REMARK    5  A    between atoms: C_8  and  C_10
REMARK    6  A    between atoms: C_10  and  N_11
REMARK                            x       y       z     vdW  Elec       q    Type
REMARK                         _______ _______ _______ _____ _____    ______ ____
ROOT
ATOM      1  C   UNL     1       4.222   5.773  17.242  0.00  0.00    +0.000 C 
ENDROOT
BRANCH   1   2
ATOM      2  N   UNL     1       4.619   4.761  16.268  0.00  0.00    +0.000 N 
ATOM      3  C   UNL     1       5.737   4.944  15.523  0.00  0.00    +0.000 A 
ATOM      4  N   UNL     1       6.790   5.677  15.888  0.00  0.00    +0.000 NA
ATOM      5  N   UNL     1       7.632   5.582  14.850  0.00  0.00    +0.000 N 
ATOM      6  C   UNL     1       7.161   4.844  13.803  0.00  0.00    +0.000 A 
ATOM      7  C   UNL     1       7.709   4.554  12.549  0.00  0.00    +0.000 A 
ATOM      8  C   UNL     1       6.948   3.753  11.691  0.00  0.00    +0.000 A 
ATOM      9  C   UNL     1       5.706   3.257  12.084  0.00  0.00    +0.000 A 
ATOM     10  C   UNL     1       5.178   3.557  13.348  0.00  0.00    +0.000 A 
ATOM     11  C   UNL     1       5.919   4.378  14.223  0.00  0.00    +0.000 A 
ATOM     12  H   UNL     1       3.839   4.289  15.825  0.00  0.00    +0.000 HD
ATOM     13  H   UNL     1       8.522   6.065  14.912  0.00  0.00    +0.000 HD
ENDBRANCH   1   2
BRANCH   1  20
ATOM     14  C   UNL     1       2.699   2.550  20.393  0.00  0.00    +0.000 C 
ATOM     15  C   UNL     1       1.876   3.427  19.432  0.00  0.00    +0.000 C 
ATOM     16  C   UNL     1       0.774   2.520  18.839  0.00  0.00    +0.000 C 
ATOM     17  C   UNL     1       1.207   4.593  20.184  0.00  0.00    +0.000 C 
ATOM     18  C   UNL     1       2.182   5.706  20.572  0.00  0.00    +0.000 C 
ATOM     19  C   UNL     1       2.946   6.236  19.357  0.00  0.00    +0.000 C 
ATOM     20  C   UNL     1       3.708   5.140  18.573  0.00  0.00    +0.000 C 
ATOM     21  C   UNL     1       4.946   4.685  19.374  0.00  0.00    +0.000 C 
ATOM     22  C   UNL     1       2.735   3.971  18.260  0.00  0.00    +0.000 C 
BRANCH  18  23
ATOM     23  O   UNL     1       1.457   6.776  21.177  0.00  0.00    +0.000 OA
ATOM     24  H   UNL     1       0.573   6.810  20.771  0.00  0.00    +0.000 HD
ENDBRANCH  18  23
ENDBRANCH   1  20
TORSDOF 3
ENDMDL
MODEL 2
REMARK VINA RESULT:      -8.4      1.701      2.328
REMARK  Name = 
REMARK  6 active torsions:
REMARK  status: ('A' for Active; 'I' for Inactive)
REMARK    1  A    between atoms: C_1  and  C_2
REMARK    2  A    between atoms: C_2  and  C_3
REMARK    3  A    between atoms: C_5  and  O_6
REMARK    4  A    between atoms: C_8  and  C_9
REMARK    5  A    between atoms: C_8  and  C_10
REMARK    6  A    between atoms: C_10  and  N_11
REMARK                            x       y       z     vdW  Elec       q    Type
REMARK                         _______ _______ _______ _____ _____    ______ ____
ROOT
ATOM      1  C   UNL     1       5.270   4.719  18.049  0.00  0.00    +0.000 C 
ENDROOT
BRANCH   1   2
ATOM      2  N   UNL     1       5.672   3.978  16.857  0.00  0.00    +0.000 N 
ATOM      3  C   UNL     1       6.469   4.569  15.933  0.00  0.00    +0.000 A 
ATOM      4  N   UNL     1       7.336   5.552  16.184  0.00  0.00    +0.000 NA
ATOM      5  N   UNL     1       7.881   5.823  14.991  0.00  0.00    +0.000 N 
ATOM      6  C   UNL     1       7.383   5.081  13.959  0.00  0.00    +0.000 A 
ATOM      7  C   UNL     1       7.655   5.097  12.587  0.00  0.00    +0.000 A 
ATOM      8  C   UNL     1       6.954   4.189  11.788  0.00  0.00    +0.000 A 
ATOM      9  C   UNL     1       6.038   3.298  12.345  0.00  0.00    +0.000 A 
ATOM     10  C   UNL     1       5.784   3.296  13.725  0.00  0.00    +0.000 A 
ATOM     11  C   UNL     1       6.466   4.216  14.548  0.00  0.00    +0.000 A 
ATOM     12  H   UNL     1       4.966   3.335  16.517  0.00  0.00    +0.000 HD
ATOM     13  H   UNL     1       8.588   6.547  14.943  0.00  0.00    +0.000 HD
ENDBRANCH   1   2
BRANCH   1  20
ATOM     14  C   UNL     1       1.147   4.791  20.423  0.00  0.00    +0.000 C 
ATOM     15  C   UNL     1       2.231   3.698  20.400  0.00  0.00    +0.000 C 
ATOM     16  C   UNL     1       2.398   3.210  21.857  0.00  0.00    +0.000 C 
ATOM     17  C   UNL     1       1.795   2.507  19.525  0.00  0.00    +0.000 C 
ATOM     18  C   UNL     1       1.871   2.795  18.025  0.00  0.00    +0.000 C 
ATOM     19  C   UNL     1       3.265   3.269  17.609  0.00  0.00    +0.000 C 
ATOM     20  C   UNL     1       3.762   4.508  18.392  0.00  0.00    +0.000 C 
ATOM     21  C   UNL     1       3.002   5.766  17.922  0.00  0.00    +0.000 C 
ATOM     22  C   UNL     1       3.598   4.245  19.914  0.00  0.00    +0.000 C 
BRANCH  18  23
ATOM     23  O   UNL     1       1.540   1.610  17.302  0.00  0.00    +0.000 OA
ATOM     24  H   UNL     1       0.862   1.836  16.642  0.00  0.00    +0.000 HD
ENDBRANCH  18  23
ENDBRANCH   1  20
TORSDOF 3
ENDMDL
MODEL 3
REMARK VINA RESULT:      -8.3      4.867      8.111
REMARK  Name = 
REMARK  6 active torsions:
REMARK  status: ('A' for Active; 'I' for Inactive)
REMARK    1  A    between atoms: C_1  and  C_2
REMARK    2  A    between atoms: C_2  and  C_3
REMARK    3  A    between atoms: C_5  and  O_6
REMARK    4  A    between atoms: C_8  and  C_9
REMARK    5  A    between atoms: C_8  and  C_10
REMARK    6  A    between atoms: C_10  and  N_11
REMARK                            x       y       z     vdW  Elec       q    Type
REMARK                         _______ _______ _______ _____ _____    ______ ____
ROOT
ATOM      1  C   UNL     1       2.691   7.036  19.655  0.00  0.00    +0.000 C 
ENDROOT
BRANCH   1   2
ATOM      2  N   UNL     1       1.505   7.486  20.379  0.00  0.00    +0.000 N 
ATOM      3  C   UNL     1       1.071   8.762  20.234  0.00  0.00    +0.000 A 
ATOM      4  N   UNL     1       1.277   9.525  19.159  0.00  0.00    +0.000 NA
ATOM      5  N   UNL     1       0.691  10.690  19.465  0.00  0.00    +0.000 N 
ATOM      6  C   UNL     1       0.136  10.735  20.712  0.00  0.00    +0.000 A 
ATOM      7  C   UNL     1      -0.513  11.763  21.403  0.00  0.00    +0.000 A 
ATOM      8  C   UNL     1      -0.969  11.474  22.693  0.00  0.00    +0.000 A 
ATOM      9  C   UNL     1      -0.793  10.209  23.251  0.00  0.00    +0.000 A 
ATOM     10  C   UNL     1      -0.144   9.192  22.538  0.00  0.00    +0.000 A 
ATOM     11  C   UNL     1       0.341   9.465  21.242  0.00  0.00    +0.000 A 
ATOM     12  H   UNL     1       1.396   7.060  21.292  0.00  0.00    +0.000 HD
ATOM     13  H   UNL     1       0.717  11.432  18.775  0.00  0.00    +0.000 HD
ENDBRANCH   1   2
BRANCH   1  20
ATOM     14  C   UNL     1       1.066   2.582  19.252  0.00  0.00    +0.000 C 
ATOM     15  C   UNL     1       1.897   3.209  20.386  0.00  0.00    +0.000 C 
ATOM     16  C   UNL     1       1.293   2.695  21.713  0.00  0.00    +0.000 C 
ATOM     17  C   UNL     1       3.369   2.762  20.305  0.00  0.00    +0.000 C 
ATOM     18  C   UNL     1       4.150   3.444  19.181  0.00  0.00    +0.000 C 
ATOM     19  C   UNL     1       4.070   4.969  19.280  0.00  0.00    +0.000 C 
ATOM     20  C   UNL     1       2.623   5.517  19.301  0.00  0.00    +0.000 C 
ATOM     21  C   UNL     1       1.996   5.400  17.895  0.00  0.00    +0.000 C 
ATOM     22  C   UNL     1       1.808   4.758  20.383  0.00  0.00    +0.000 C 
BRANCH  18  23
ATOM     23  O   UNL     1       5.517   3.038  19.246  0.00  0.00    +0.000 OA
ATOM     24  H   UNL     1       5.987   3.433  18.491  0.00  0.00    +0.000 HD
ENDBRANCH  18  23
ENDBRANCH   1  20
TORSDOF 3
ENDMDL
MODEL 4
REMARK VINA RESULT:      -8.2      1.554      2.214
REMARK  Name = 
REMARK  6 active torsions:
REMARK  status: ('A' for Active; 'I' for Inactive)
REMARK    1  A    between atoms: C_1  and  C_2
REMARK    2  A    between atoms: C_2  and  C_3
REMARK    3  A    between atoms: C_5  and  O_6
REMARK    4  A    between atoms: C_8  and  C_9
REMARK    5  A    between atoms: C_8  and  C_10
REMARK    6  A    between atoms: C_10  and  N_11
REMARK                            x       y       z     vdW  Elec       q    Type
REMARK                         _______ _______ _______ _____ _____    ______ ____
ROOT
ATOM      1  C   UNL     1       4.959   4.602  17.634  0.00  0.00    +0.000 C 
ENDROOT
BRANCH   1   2
ATOM      2  N   UNL     1       5.375   3.849  16.453  0.00  0.00    +0.000 N 
ATOM      3  C   UNL     1       6.255   4.397  15.580  0.00  0.00    +0.000 A 
ATOM      4  N   UNL     1       7.168   5.320  15.889  0.00  0.00    +0.000 NA
ATOM      5  N   UNL     1       7.790   5.568  14.728  0.00  0.00    +0.000 N 
ATOM      6  C   UNL     1       7.301   4.871  13.662  0.00  0.00    +0.000 A 
ATOM      7  C   UNL     1       7.644   4.884  12.306  0.00  0.00    +0.000 A 
ATOM      8  C   UNL     1       6.929   4.031  11.460  0.00  0.00    +0.000 A 
ATOM      9  C   UNL     1       5.930   3.195  11.957  0.00  0.00    +0.000 A 
ATOM     10  C   UNL     1       5.606   3.195  13.322  0.00  0.00    +0.000 A 
ATOM     11  C   UNL     1       6.301   4.060  14.191  0.00  0.00    +0.000 A 
ATOM     12  H   UNL     1       4.649   3.256  16.069  0.00  0.00    +0.000 HD
ATOM     13  H   UNL     1       8.544   6.246  14.727  0.00  0.00    +0.000 HD
ENDBRANCH   1   2
BRANCH   1  20
ATOM     14  C   UNL     1       0.726   3.625  19.573  0.00  0.00    +0.000 C 
ATOM     15  C   UNL     1       1.912   4.397  20.179  0.00  0.00    +0.000 C 
ATOM     16  C   UNL     1       1.317   5.624  20.908  0.00  0.00    +0.000 C 
ATOM     17  C   UNL     1       2.669   3.530  21.204  0.00  0.00    +0.000 C 
ATOM     18  C   UNL     1       3.534   2.445  20.562  0.00  0.00    +0.000 C 
ATOM     19  C   UNL     1       4.516   3.033  19.546  0.00  0.00    +0.000 C 
ATOM     20  C   UNL     1       3.838   3.868  18.434  0.00  0.00    +0.000 C 
ATOM     21  C   UNL     1       3.103   2.935  17.449  0.00  0.00    +0.000 C 
ATOM     22  C   UNL     1       2.890   4.910  19.089  0.00  0.00    +0.000 C 
BRANCH  18  23
ATOM     23  O   UNL     1       4.263   1.761  21.581  0.00  0.00    +0.000 OA
ATOM     24  H   UNL     1       3.713   1.028  21.907  0.00  0.00    +0.000 HD
ENDBRANCH  18  23
ENDBRANCH   1  20
TORSDOF 3
ENDMDL
MODEL 5
REMARK VINA RESULT:      -8.1      1.503      2.182
REMARK  Name = 
REMARK  6 active torsions:
REMARK  status: ('A' for Active; 'I' for Inactive)
REMARK    1  A    between atoms: C_1  and  C_2
REMARK    2  A    between atoms: C_2  and  C_3
REMARK    3  A    between atoms: C_5  and  O_6
REMARK    4  A    between atoms: C_8  and  C_9
REMARK    5  A    between atoms: C_8  and  C_10
REMARK    6  A    between atoms: C_10  and  N_11
REMARK                            x       y       z     vdW  Elec       q    Type
REMARK                         _______ _______ _______ _____ _____    ______ ____
ROOT
ATOM      1  C   UNL     1       3.830   5.470  17.461  0.00  0.00    +0.000 C 
ENDROOT
BRANCH   1   2
ATOM      2  N   UNL     1       4.367   4.553  16.459  0.00  0.00    +0.000 N 
ATOM      3  C   UNL     1       5.511   4.866  15.805  0.00  0.00    +0.000 A 
ATOM      4  N   UNL     1       6.479   5.650  16.284  0.00  0.00    +0.000 NA
ATOM      5  N   UNL     1       7.391   5.685  15.302  0.00  0.00    +0.000 N 
ATOM      6  C   UNL     1       7.047   4.982  14.184  0.00  0.00    +0.000 A 
ATOM      7  C   UNL     1       7.695   4.813  12.956  0.00  0.00    +0.000 A 
ATOM      8  C   UNL     1       7.056   4.015  12.003  0.00  0.00    +0.000 A 
ATOM      9  C   UNL     1       5.833   3.404  12.279  0.00  0.00    +0.000 A 
ATOM     10  C   UNL     1       5.204   3.583  13.519  0.00  0.00    +0.000 A 
ATOM     11  C   UNL     1       5.821   4.399  14.489  0.00  0.00    +0.000 A 
ATOM     12  H   UNL     1       3.655   4.055  15.937  0.00  0.00    +0.000 HD
ATOM     13  H   UNL     1       8.234   6.227  15.454  0.00  0.00    +0.000 HD
ENDBRANCH   1   2
BRANCH   1  20
ATOM     14  C   UNL     1       2.596   3.425  21.577  0.00  0.00    +0.000 C 
ATOM     15  C   UNL     1       3.232   2.783  20.330  0.00  0.00    +0.000 C 
ATOM     16  C   UNL     1       4.322   1.813  20.840  0.00  0.00    +0.000 C 
ATOM     17  C   UNL     1       2.189   1.980  19.529  0.00  0.00    +0.000 C 
ATOM     18  C   UNL     1       1.219   2.861  18.740  0.00  0.00    +0.000 C 
ATOM     19  C   UNL     1       1.960   3.828  17.814  0.00  0.00    +0.000 C 
ATOM     20  C   UNL     1       2.986   4.728  18.545  0.00  0.00    +0.000 C 
ATOM     21  C   UNL     1       2.249   5.803  19.371  0.00  0.00    +0.000 C 
ATOM     22  C   UNL     1       3.912   3.836  19.417  0.00  0.00    +0.000 C 
BRANCH  18  23
ATOM     23  O   UNL     1       0.358   2.030  17.962  0.00  0.00    +0.000 OA
ATOM     24  H   UNL     1      -0.196   1.512  18.572  0.00  0.00    +0.000 HD
ENDBRANCH  18  23
ENDBRANCH   1  20
TORSDOF 3
ENDMDL
MODEL 6
REMARK VINA RESULT:      -8.1      3.756      7.464
REMARK  Name = 
REMARK  6 active torsions:
REMARK  status: ('A' for Active; 'I' for Inactive)
REMARK    1  A    between atoms: C_1  and  C_2
REMARK    2  A    between atoms: C_2  and  C_3
REMARK    3  A    between atoms: C_5  and  O_6
REMARK    4  A    between atoms: C_8  and  C_9
REMARK    5  A    between atoms: C_8  and  C_10
REMARK    6  A    between atoms: C_10  and  N_11
REMARK                            x       y       z     vdW  Elec       q    Type
REMARK                         _______ _______ _______ _____ _____    ______ ____
ROOT
ATOM      1  C   UNL     1       3.044   5.336  17.773  0.00  0.00    +0.000 C 
ENDROOT
BRANCH   1   2
ATOM      2  N   UNL     1       2.892   6.780  17.927  0.00  0.00    +0.000 N 
ATOM      3  C   UNL     1       2.336   7.283  19.056  0.00  0.00    +0.000 A 
ATOM      4  N   UNL     1       2.354   6.687  20.250  0.00  0.00    +0.000 NA
ATOM      5  N   UNL     1       1.683   7.529  21.048  0.00  0.00    +0.000 N 
ATOM      6  C   UNL     1       1.197   8.639  20.419  0.00  0.00    +0.000 A 
ATOM      7  C   UNL     1       0.426   9.708  20.886  0.00  0.00    +0.000 A 
ATOM      8  C   UNL     1       0.089  10.702  19.962  0.00  0.00    +0.000 A 
ATOM      9  C   UNL     1       0.522  10.630  18.639  0.00  0.00    +0.000 A 
ATOM     10  C   UNL     1       1.300   9.551  18.194  0.00  0.00    +0.000 A 
ATOM     11  C   UNL     1       1.636   8.528  19.104  0.00  0.00    +0.000 A 
ATOM     12  H   UNL     1       2.699   7.266  17.059  0.00  0.00    +0.000 HD
ATOM     13  H   UNL     1       1.577   7.278  22.024  0.00  0.00    +0.000 HD
ENDBRANCH   1   2
BRANCH   1  20
ATOM     14  C   UNL     1       7.746   5.222  18.492  0.00  0.00    +0.000 C 
ATOM     15  C   UNL     1       6.950   5.993  17.424  0.00  0.00    +0.000 C 
ATOM     16  C   UNL     1       7.579   7.402  17.335  0.00  0.00    +0.000 C 
ATOM     17  C   UNL     1       7.065   5.310  16.048  0.00  0.00    +0.000 C 
ATOM     18  C   UNL     1       6.233   4.032  15.932  0.00  0.00    +0.000 C 
ATOM     19  C   UNL     1       4.762   4.283  16.271  0.00  0.00    +0.000 C 
ATOM     20  C   UNL     1       4.542   4.909  17.669  0.00  0.00    +0.000 C 
ATOM     21  C   UNL     1       4.797   3.853  18.765  0.00  0.00    +0.000 C 
ATOM     22  C   UNL     1       5.458   6.156  17.816  0.00  0.00    +0.000 C 
BRANCH  18  23
ATOM     23  O   UNL     1       6.331   3.528  14.601  0.00  0.00    +0.000 OA
ATOM     24  H   UNL     1       7.138   3.891  14.197  0.00  0.00    +0.000 HD
ENDBRANCH  18  23
ENDBRANCH   1  20
TORSDOF 3
ENDMDL
MODEL 7
REMARK VINA RESULT:      -7.6      4.712      7.444
REMARK  Name = 
REMARK  6 active torsions:
REMARK  status: ('A' for Active; 'I' for Inactive)
REMARK    1  A    between atoms: C_1  and  C_2
REMARK    2  A    between atoms: C_2  and  C_3
REMARK    3  A    between atoms: C_5  and  O_6
REMARK    4  A    between atoms: C_8  and  C_9
REMARK    5  A    between atoms: C_8  and  C_10
REMARK    6  A    between atoms: C_10  and  N_11
REMARK                            x       y       z     vdW  Elec       q    Type
REMARK                         _______ _______ _______ _____ _____    ______ ____
ROOT
ATOM      1  C   UNL     1       2.976   6.983  19.598  0.00  0.00    +0.000 C 
ENDROOT
BRANCH   1   2
ATOM      2  N   UNL     1       1.717   7.662  19.889  0.00  0.00    +0.000 N 
ATOM      3  C   UNL     1       1.400   8.804  19.231  0.00  0.00    +0.000 A 
ATOM      4  N   UNL     1       1.836   9.135  18.014  0.00  0.00    +0.000 NA
ATOM      5  N   UNL     1       1.285  10.334  17.782  0.00  0.00    +0.000 N 
ATOM      6  C   UNL     1       0.531  10.820  18.810  0.00  0.00    +0.000 A 
ATOM      7  C   UNL     1      -0.157  12.028  18.968  0.00  0.00    +0.000 A 
ATOM      8  C   UNL     1      -0.844  12.217  20.171  0.00  0.00    +0.000 A 
ATOM      9  C   UNL     1      -0.851  11.232  21.158  0.00  0.00    +0.000 A 
ATOM     10  C   UNL     1      -0.158  10.027  20.976  0.00  0.00    +0.000 A 
ATOM     11  C   UNL     1       0.557   9.821  19.778  0.00  0.00    +0.000 A 
ATOM     12  H   UNL     1       1.426   7.589  20.857  0.00  0.00    +0.000 HD
ATOM     13  H   UNL     1       1.477  10.783  16.893  0.00  0.00    +0.000 HD
ENDBRANCH   1   2
BRANCH   1  20
ATOM     14  C   UNL     1       0.946   2.687  19.330  0.00  0.00    +0.000 C 
ATOM     15  C   UNL     1       1.823   3.275  20.451  0.00  0.00    +0.000 C 
ATOM     16  C   UNL     1       1.165   2.866  21.788  0.00  0.00    +0.000 C 
ATOM     17  C   UNL     1       3.248   2.690  20.400  0.00  0.00    +0.000 C 
ATOM     18  C   UNL     1       4.097   3.256  19.262  0.00  0.00    +0.000 C 
ATOM     19  C   UNL     1       4.159   4.784  19.308  0.00  0.00    +0.000 C 
ATOM     20  C   UNL     1       2.769   5.465  19.295  0.00  0.00    +0.000 C 
ATOM     21  C   UNL     1       2.144   5.357  17.888  0.00  0.00    +0.000 C 
ATOM     22  C   UNL     1       1.879   4.824  20.394  0.00  0.00    +0.000 C 
BRANCH  18  23
ATOM     23  O   UNL     1       5.420   2.728  19.355  0.00  0.00    +0.000 OA
ATOM     24  H   UNL     1       5.683   2.412  18.473  0.00  0.00    +0.000 HD
ENDBRANCH  18  23
ENDBRANCH   1  20
TORSDOF 3
ENDMDL
MODEL 8
REMARK VINA RESULT:      -7.5      1.573      2.227
REMARK  Name = 
REMARK  6 active torsions:
REMARK  status: ('A' for Active; 'I' for Inactive)
REMARK    1  A    between atoms: C_1  and  C_2
REMARK    2  A    between atoms: C_2  and  C_3
REMARK    3  A    between atoms: C_5  and  O_6
REMARK    4  A    between atoms: C_8  and  C_9
REMARK    5  A    between atoms: C_8  and  C_10
REMARK    6  A    between atoms: C_10  and  N_11
REMARK                            x       y       z     vdW  Elec       q    Type
REMARK                         _______ _______ _______ _____ _____    ______ ____
ROOT
ATOM      1  C   UNL     1       5.812   4.609  17.984  0.00  0.00    +0.000 C 
ENDROOT
BRANCH   1   2
ATOM      2  N   UNL     1       5.938   3.863  16.735  0.00  0.00    +0.000 N 
ATOM      3  C   UNL     1       6.625   4.399  15.697  0.00  0.00    +0.000 A 
ATOM      4  N   UNL     1       7.612   5.290  15.809  0.00  0.00    +0.000 NA
ATOM      5  N   UNL     1       7.976   5.539  14.543  0.00  0.00    +0.000 N 
ATOM      6  C   UNL     1       7.246   4.873  13.602  0.00  0.00    +0.000 A 
ATOM      7  C   UNL     1       7.288   4.897  12.204  0.00  0.00    +0.000 A 
ATOM      8  C   UNL     1       6.380   4.078  11.525  0.00  0.00    +0.000 A 
ATOM      9  C   UNL     1       5.487   3.264  12.220  0.00  0.00    +0.000 A 
ATOM     10  C   UNL     1       5.466   3.252  13.622  0.00  0.00    +0.000 A 
ATOM     11  C   UNL     1       6.360   4.083  14.328  0.00  0.00    +0.000 A 
ATOM     12  H   UNL     1       5.128   3.297  16.512  0.00  0.00    +0.000 HD
ATOM     13  H   UNL     1       8.732   6.195  14.385  0.00  0.00    +0.000 HD
ENDBRANCH   1   2
BRANCH   1  20
ATOM     14  C   UNL     1       1.999   6.454  20.151  0.00  0.00    +0.000 C 
ATOM     15  C   UNL     1       2.495   4.997  20.141  0.00  0.00    +0.000 C 
ATOM     16  C   UNL     1       2.342   4.468  21.586  0.00  0.00    +0.000 C 
ATOM     17  C   UNL     1       1.637   4.128  19.202  0.00  0.00    +0.000 C 
ATOM     18  C   UNL     1       1.922   4.372  17.719  0.00  0.00    +0.000 C 
ATOM     19  C   UNL     1       3.406   4.190  17.392  0.00  0.00    +0.000 C 
ATOM     20  C   UNL     1       4.345   5.077  18.244  0.00  0.00    +0.000 C 
ATOM     21  C   UNL     1       4.242   6.546  17.785  0.00  0.00    +0.000 C 
ATOM     22  C   UNL     1       3.991   4.894  19.745  0.00  0.00    +0.000 C 
BRANCH  18  23
ATOM     23  O   UNL     1       1.151   3.460  16.937  0.00  0.00    +0.000 OA
ATOM     24  H   UNL     1       0.265   3.396  17.332  0.00  0.00    +0.000 HD
ENDBRANCH  18  23
ENDBRANCH   1  20
TORSDOF 3
ENDMDL
MODEL 9
REMARK VINA RESULT:      -7.5      4.709      7.591
REMARK  Name = 
REMARK  6 active torsions:
REMARK  status: ('A' for Active; 'I' for Inactive)
REMARK    1  A    between atoms: C_1  and  C_2
REMARK    2  A    between atoms: C_2  and  C_3
REMARK    3  A    between atoms: C_5  and  O_6
REMARK    4  A    between atoms: C_8  and  C_9
REMARK    5  A    between atoms: C_8  and  C_10
REMARK    6  A    between atoms: C_10  and  N_11
REMARK                            x       y       z     vdW  Elec       q    Type
REMARK                         _______ _______ _______ _____ _____    ______ ____
ROOT
ATOM      1  C   UNL     1       2.415   7.347  20.108  0.00  0.00    +0.000 C 
ENDROOT
BRANCH   1   2
ATOM      2  N   UNL     1       1.764   8.292  19.205  0.00  0.00    +0.000 N 
ATOM      3  C   UNL     1       1.012   9.299  19.712  0.00  0.00    +0.000 A 
ATOM      4  N   UNL     1       1.174   9.845  20.919  0.00  0.00    +0.000 NA
ATOM      5  N   UNL     1       0.213  10.776  20.991  0.00  0.00    +0.000 N 
ATOM      6  C   UNL     1      -0.595  10.842  19.892  0.00  0.00    +0.000 A 
ATOM      7  C   UNL     1      -1.713  11.633  19.607  0.00  0.00    +0.000 A 
ATOM      8  C   UNL     1      -2.325  11.446  18.365  0.00  0.00    +0.000 A 
ATOM      9  C   UNL     1      -1.827  10.520  17.449  0.00  0.00    +0.000 A 
ATOM     10  C   UNL     1      -0.702   9.740  17.755  0.00  0.00    +0.000 A 
ATOM     11  C   UNL     1      -0.079   9.899  19.009  0.00  0.00    +0.000 A 
ATOM     12  H   UNL     1       1.459   7.880  18.331  0.00  0.00    +0.000 HD
ATOM     13  H   UNL     1       0.151  11.333  21.835  0.00  0.00    +0.000 HD
ENDBRANCH   1   2
BRANCH   1  20
ATOM     14  C   UNL     1       1.106   2.920  18.955  0.00  0.00    +0.000 C 
ATOM     15  C   UNL     1       1.865   3.410  20.201  0.00  0.00    +0.000 C 
ATOM     16  C   UNL     1       1.267   2.654  21.410  0.00  0.00    +0.000 C 
ATOM     17  C   UNL     1       3.366   3.076  20.100  0.00  0.00    +0.000 C 
ATOM     18  C   UNL     1       4.125   3.975  19.124  0.00  0.00    +0.000 C 
ATOM     19  C   UNL     1       3.940   5.457  19.459  0.00  0.00    +0.000 C 
ATOM     20  C   UNL     1       2.458   5.902  19.517  0.00  0.00    +0.000 C 
ATOM     21  C   UNL     1       1.874   5.971  18.091  0.00  0.00    +0.000 C 
ATOM     22  C   UNL     1       1.672   4.931  20.439  0.00  0.00    +0.000 C 
BRANCH  18  23
ATOM     23  O   UNL     1       5.514   3.652  19.170  0.00  0.00    +0.000 OA
ATOM     24  H   UNL     1       5.741   3.421  20.087  0.00  0.00    +0.000 HD
ENDBRANCH  18  23
ENDBRANCH   1  20
TORSDOF 3
ENDMDL
