MODEL 1
REMARK VINA RESULT:      -8.8      0.000      0.000
REMARK  Name = 
REMARK  5 active torsions:
REMARK  status: ('A' for Active; 'I' for Inactive)
REMARK    1  A    between atoms: C_1  and  C_2
REMARK    2  A    between atoms: C_6  and  C_8
REMARK    3  A    between atoms: C_8  and  C_9
REMARK    4  A    between atoms: C_21  and  C_22
REMARK    5  A    between atoms: C_25  and  O_26
REMARK                            x       y       z     vdW  Elec       q    Type
REMARK                         _______ _______ _______ _____ _____    ______ ____
ROOT
ATOM      1  C   UNL     1       3.660   3.470  19.679  0.00  0.00    +0.000 C 
ATOM      2  C   UNL     1       3.243   4.885  19.478  0.00  0.00    +0.000 A 
ATOM      3  S   UNL     1       2.007   5.565  20.479  0.00  0.00    +0.000 S 
ATOM      4  C   UNL     1       2.184   7.051  19.670  0.00  0.00    +0.000 A 
ATOM      5  N   UNL     1       1.342   8.048  20.075  0.00  0.00    +0.000 N 
ATOM      6  C   UNL     1       1.307   9.239  19.393  0.00  0.00    +0.000 C 
ATOM      7  O   UNL     1       1.983   9.573  18.428  0.00  0.00    +0.000 OA
ATOM      8  N   UNL     1       3.094   7.091  18.737  0.00  0.00    +0.000 NA
ATOM      9  C   UNL     1       3.697   5.856  18.593  0.00  0.00    +0.000 A 
ATOM     10  H   UNL     1       0.687   7.849  20.815  0.00  0.00    +0.000 HD
ENDROOT
BRANCH   9  11
ATOM     11  C   UNL     1       4.753   5.697  17.595  0.00  0.00    +0.000 A 
ATOM     12  C   UNL     1       4.509   4.901  16.463  0.00  0.00    +0.000 A 
ATOM     13  C   UNL     1       5.490   4.724  15.481  0.00  0.00    +0.000 A 
ATOM     14  C   UNL     1       6.724   5.341  15.632  0.00  0.00    +0.000 A 
ATOM     15  C   UNL     1       6.998   6.110  16.758  0.00  0.00    +0.000 A 
ATOM     16  C   UNL     1       6.020   6.274  17.742  0.00  0.00    +0.000 A 
BRANCH  14  17
ATOM     17  O   UNL     1       7.715   5.208  14.703  0.00  0.00    +0.000 OA
ATOM     18  H   UNL     1       8.163   6.066  14.618  0.00  0.00    +0.000 HD
ENDBRANCH  14  17
ENDBRANCH   9  11
BRANCH   6  19
ATOM     19  C   UNL     1       0.255  10.205  19.896  0.00  0.00    +0.000 C 
ATOM     20  C   UNL     1      -0.006  10.328  21.393  0.00  0.00    +0.000 C 
ATOM     21  C   UNL     1       0.817  11.372  20.710  0.00  0.00    +0.000 C 
BRANCH  19  22
ATOM     22  C   UNL     1      -0.881  10.481  18.909  0.00  0.00    +0.000 A 
ATOM     23  C   UNL     1      -0.907   9.804  17.660  0.00  0.00    +0.000 A 
ATOM     24  C   UNL     1      -1.996   9.895  16.786  0.00  0.00    +0.000 A 
ATOM     25  C   UNL     1      -3.053  10.685  17.167  0.00  0.00    +0.000 A 
ATOM     26  C   UNL     1      -3.040  11.381  18.351  0.00  0.00    +0.000 A 
ATOM     27  C   UNL     1      -1.978  11.304  19.232  0.00  0.00    +0.000 A 
ATOM     28  O   UNL     1      -4.181  12.096  18.545  0.00  0.00    +0.000 OA
ATOM     29  C   UNL     1      -4.914  11.767  17.344  0.00  0.00    +0.000 C 
ATOM     30  O   UNL     1      -4.208  10.860  16.473  0.00  0.00    +0.000 OA
ENDBRANCH  19  22
ENDBRANCH   6  19
TORSDOF 4
ENDMDL
MODEL 2
REMARK VINA RESULT:      -8.8      1.889      2.616
REMARK  Name = 
REMARK  5 active torsions:
REMARK  status: ('A' for Active; 'I' for Inactive)
REMARK    1  A    between atoms: C_1  and  C_2
REMARK    2  A    between atoms: C_6  and  C_8
REMARK    3  A    between atoms: C_8  and  C_9
REMARK    4  A    between atoms: C_21  and  C_22
REMARK    5  A    between atoms: C_25  and  O_26
REMARK                            x       y       z     vdW  Elec       q    Type
REMARK                         _______ _______ _______ _____ _____    ______ ____
ROOT
ATOM      1  C   UNL     1       3.827   2.379  19.820  0.00  0.00    +0.000 C 
ATOM      2  C   UNL     1       3.426   3.812  19.796  0.00  0.00    +0.000 A 
ATOM      3  S   UNL     1       2.243   4.390  20.917  0.00  0.00    +0.000 S 
ATOM      4  C   UNL     1       2.412   5.955  20.272  0.00  0.00    +0.000 A 
ATOM      5  N   UNL     1       1.603   6.910  20.821  0.00  0.00    +0.000 N 
ATOM      6  C   UNL     1       1.561   8.171  20.279  0.00  0.00    +0.000 C 
ATOM      7  O   UNL     1       2.203   8.603  19.330  0.00  0.00    +0.000 OA
ATOM      8  N   UNL     1       3.284   6.089  19.313  0.00  0.00    +0.000 NA
ATOM      9  C   UNL     1       3.861   4.871  19.007  0.00  0.00    +0.000 A 
ATOM     10  H   UNL     1       0.975   6.638  21.561  0.00  0.00    +0.000 HD
ENDROOT
BRANCH   9  11
ATOM     11  C   UNL     1       4.873   4.812  17.954  0.00  0.00    +0.000 A 
ATOM     12  C   UNL     1       4.462   4.689  16.617  0.00  0.00    +0.000 A 
ATOM     13  C   UNL     1       5.397   4.632  15.577  0.00  0.00    +0.000 A 
ATOM     14  C   UNL     1       6.751   4.694  15.874  0.00  0.00    +0.000 A 
ATOM     15  C   UNL     1       7.182   4.789  17.194  0.00  0.00    +0.000 A 
ATOM     16  C   UNL     1       6.246   4.832  18.229  0.00  0.00    +0.000 A 
BRANCH  14  17
ATOM     17  O   UNL     1       7.706   4.650  14.901  0.00  0.00    +0.000 OA
ATOM     18  H   UNL     1       7.593   5.431  14.334  0.00  0.00    +0.000 HD
ENDBRANCH  14  17
ENDBRANCH   9  11
BRANCH   6  19
ATOM     19  C   UNL     1       0.546   9.087  20.929  0.00  0.00    +0.000 C 
ATOM     20  C   UNL     1      -0.547   8.498  21.815  0.00  0.00    +0.000 C 
ATOM     21  C   UNL     1       0.641   9.140  22.455  0.00  0.00    +0.000 C 
BRANCH  19  22
ATOM     22  C   UNL     1       0.277  10.386  20.166  0.00  0.00    +0.000 A 
ATOM     23  C   UNL     1      -0.849  10.475  19.305  0.00  0.00    +0.000 A 
ATOM     24  C   UNL     1      -1.235  11.678  18.705  0.00  0.00    +0.000 A 
ATOM     25  C   UNL     1      -0.470  12.790  18.962  0.00  0.00    +0.000 A 
ATOM     26  C   UNL     1       0.646  12.726  19.759  0.00  0.00    +0.000 A 
ATOM     27  C   UNL     1       1.044  11.550  20.366  0.00  0.00    +0.000 A 
ATOM     28  O   UNL     1       1.257  13.935  19.893  0.00  0.00    +0.000 OA
ATOM     29  C   UNL     1       0.393  14.766  19.086  0.00  0.00    +0.000 C 
ATOM     30  O   UNL     1      -0.713  14.047  18.504  0.00  0.00    +0.000 OA
ENDBRANCH  19  22
ENDBRANCH   6  19
TORSDOF 4
ENDMDL
MODEL 3
REMARK VINA RESULT:      -8.7      0.696      1.369
REMARK  Name = 
REMARK  5 active torsions:
REMARK  status: ('A' for Active; 'I' for Inactive)
REMARK    1  A    between atoms: C_1  and  C_2
REMARK    2  A    between atoms: C_6  and  C_8
REMARK    3  A    between atoms: C_8  and  C_9
REMARK    4  A    between atoms: C_21  and  C_22
REMARK    5  A    between atoms: C_25  and  O_26
REMARK                            x       y       z     vdW  Elec       q    Type
REMARK                         _______ _______ _______ _____ _____    ______ ____
ROOT
ATOM      1  C   UNL     1       3.370   3.712  19.956  0.00  0.00    +0.000 C 
ATOM      2  C   UNL     1       3.019   5.129  19.662  0.00  0.00    +0.000 A 
ATOM      3  S   UNL     1       1.825   5.933  20.620  0.00  0.00    +0.000 S 
ATOM      4  C   UNL     1       2.066   7.351  19.712  0.00  0.00    +0.000 A 
ATOM      5  N   UNL     1       1.275   8.412  20.053  0.00  0.00    +0.000 N 
ATOM      6  C   UNL     1       1.292   9.555  19.292  0.00  0.00    +0.000 C 
ATOM      7  O   UNL     1       1.976   9.790  18.304  0.00  0.00    +0.000 OA
ATOM      8  N   UNL     1       2.970   7.285  18.775  0.00  0.00    +0.000 NA
ATOM      9  C   UNL     1       3.513   6.015  18.712  0.00  0.00    +0.000 A 
ATOM     10  H   UNL     1       0.617   8.295  20.807  0.00  0.00    +0.000 HD
ENDROOT
BRANCH   9  11
ATOM     11  C   UNL     1       4.553   5.739  17.722  0.00  0.00    +0.000 A 
ATOM     12  C   UNL     1       4.339   4.729  16.770  0.00  0.00    +0.000 A 
ATOM     13  C   UNL     1       5.306   4.434  15.803  0.00  0.00    +0.000 A 
ATOM     14  C   UNL     1       6.496   5.148  15.788  0.00  0.00    +0.000 A 
ATOM     15  C   UNL     1       6.741   6.134  16.739  0.00  0.00    +0.000 A 
ATOM     16  C   UNL     1       5.778   6.416  17.711  0.00  0.00    +0.000 A 
BRANCH  14  17
ATOM     17  O   UNL     1       7.471   4.907  14.865  0.00  0.00    +0.000 OA
ATOM     18  H   UNL     1       7.512   3.948  14.715  0.00  0.00    +0.000 HD
ENDBRANCH  14  17
ENDBRANCH   9  11
BRANCH   6  19
ATOM     19  C   UNL     1       0.291  10.602  19.733  0.00  0.00    +0.000 C 
ATOM     20  C   UNL     1       0.223  11.015  21.200  0.00  0.00    +0.000 C 
ATOM     21  C   UNL     1       0.925  11.904  20.224  0.00  0.00    +0.000 C 
BRANCH  19  22
ATOM     22  C   UNL     1      -0.971  10.680  18.871  0.00  0.00    +0.000 A 
ATOM     23  C   UNL     1      -2.057  11.497  19.287  0.00  0.00    +0.000 A 
ATOM     24  C   UNL     1      -3.168  11.732  18.471  0.00  0.00    +0.000 A 
ATOM     25  C   UNL     1      -3.190  11.127  17.237  0.00  0.00    +0.000 A 
ATOM     26  C   UNL     1      -2.173  10.302  16.824  0.00  0.00    +0.000 A 
ATOM     27  C   UNL     1      -1.064  10.058  17.611  0.00  0.00    +0.000 A 
ATOM     28  O   UNL     1      -2.382   9.810  15.573  0.00  0.00    +0.000 OA
ATOM     29  C   UNL     1      -3.650  10.422  15.248  0.00  0.00    +0.000 C 
ATOM     30  O   UNL     1      -4.160  11.271  16.296  0.00  0.00    +0.000 OA
ENDBRANCH  19  22
ENDBRANCH   6  19
TORSDOF 4
ENDMDL
MODEL 4
REMARK VINA RESULT:      -8.6      2.864      9.179
REMARK  Name = 
REMARK  5 active torsions:
REMARK  status: ('A' for Active; 'I' for Inactive)
REMARK    1  A    between atoms: C_1  and  C_2
REMARK    2  A    between atoms: C_6  and  C_8
REMARK    3  A    between atoms: C_8  and  C_9
REMARK    4  A    between atoms: C_21  and  C_22
REMARK    5  A    between atoms: C_25  and  O_26
REMARK                            x       y       z     vdW  Elec       q    Type
REMARK                         _______ _______ _______ _____ _____    ______ ____
ROOT
ATOM      1  C   UNL     1       0.999  11.836  18.254  0.00  0.00    +0.000 C 
ATOM      2  C   UNL     1       1.209  10.467  18.801  0.00  0.00    +0.000 A 
ATOM      3  S   UNL     1       2.235   9.358  17.961  0.00  0.00    +0.000 S 
ATOM      4  C   UNL     1       1.958   8.199  19.174  0.00  0.00    +0.000 A 
ATOM      5  N   UNL     1       2.564   6.988  18.984  0.00  0.00    +0.000 N 
ATOM      6  C   UNL     1       2.292   5.942  19.831  0.00  0.00    +0.000 C 
ATOM      7  O   UNL     1       1.558   5.940  20.811  0.00  0.00    +0.000 OA
ATOM      8  N   UNL     1       1.188   8.571  20.158  0.00  0.00    +0.000 NA
ATOM      9  C   UNL     1       0.728   9.859  19.954  0.00  0.00    +0.000 A 
ATOM     10  H   UNL     1       3.129   6.861  18.160  0.00  0.00    +0.000 HD
ENDROOT
BRANCH   9  11
ATOM     11  C   UNL     1      -0.151  10.462  20.954  0.00  0.00    +0.000 A 
ATOM     12  C   UNL     1      -0.193   9.915  22.247  0.00  0.00    +0.000 A 
ATOM     13  C   UNL     1      -1.018  10.462  23.236  0.00  0.00    +0.000 A 
ATOM     14  C   UNL     1      -1.809  11.561  22.931  0.00  0.00    +0.000 A 
ATOM     15  C   UNL     1      -1.805  12.103  21.649  0.00  0.00    +0.000 A 
ATOM     16  C   UNL     1      -0.989  11.545  20.662  0.00  0.00    +0.000 A 
BRANCH  14  17
ATOM     17  O   UNL     1      -2.627  12.140  23.857  0.00  0.00    +0.000 OA
ATOM     18  H   UNL     1      -3.446  12.407  23.409  0.00  0.00    +0.000 HD
ENDBRANCH  14  17
ENDBRANCH   9  11
BRANCH   6  19
ATOM     19  C   UNL     1       2.957   4.641  19.435  0.00  0.00    +0.000 C 
ATOM     20  C   UNL     1       2.842   3.424  20.346  0.00  0.00    +0.000 C 
ATOM     21  C   UNL     1       1.978   3.506  19.129  0.00  0.00    +0.000 C 
BRANCH  19  22
ATOM     22  C   UNL     1       4.193   4.802  18.547  0.00  0.00    +0.000 A 
ATOM     23  C   UNL     1       5.470   4.972  19.144  0.00  0.00    +0.000 A 
ATOM     24  C   UNL     1       6.651   4.967  18.394  0.00  0.00    +0.000 A 
ATOM     25  C   UNL     1       6.539   4.806  17.034  0.00  0.00    +0.000 A 
ATOM     26  C   UNL     1       5.315   4.678  16.424  0.00  0.00    +0.000 A 
ATOM     27  C   UNL     1       4.136   4.676  17.145  0.00  0.00    +0.000 A 
ATOM     28  O   UNL     1       5.421   4.522  15.077  0.00  0.00    +0.000 OA
ATOM     29  C   UNL     1       6.856   4.567  14.910  0.00  0.00    +0.000 C 
ATOM     30  O   UNL     1       7.570   4.734  16.152  0.00  0.00    +0.000 OA
ENDBRANCH  19  22
ENDBRANCH   6  19
TORSDOF 4
ENDMDL
MODEL 5
REMARK VINA RESULT:      -8.5      0.883      1.166
REMARK  Name = 
REMARK  5 active torsions:
REMARK  status: ('A' for Active; 'I' for Inactive)
REMARK    1  A    between atoms: C_1  and  C_2
REMARK    2  A    between atoms: C_6  and  C_8
REMARK    3  A    between atoms: C_8  and  C_9
REMARK    4  A    between atoms: C_21  and  C_22
REMARK    5  A    between atoms: C_25  and  O_26
REMARK                            x       y       z     vdW  Elec       q    Type
REMARK                         _______ _______ _______ _____ _____    ______ ____
ROOT
ATOM      1  C   UNL     1       3.380   3.766  19.798  0.00  0.00    +0.000 C 
ATOM      2  C   UNL     1       3.049   5.158  19.388  0.00  0.00    +0.000 A 
ATOM      3  S   UNL     1       2.070   6.145  20.417  0.00  0.00    +0.000 S 
ATOM      4  C   UNL     1       2.219   7.428  19.312  0.00  0.00    +0.000 A 
ATOM      5  N   UNL     1       1.545   8.571  19.640  0.00  0.00    +0.000 N 
ATOM      6  C   UNL     1       1.486   9.615  18.749  0.00  0.00    +0.000 C 
ATOM      7  O   UNL     1       2.004   9.688  17.642  0.00  0.00    +0.000 OA
ATOM      8  N   UNL     1       2.949   7.195  18.258  0.00  0.00    +0.000 NA
ATOM      9  C   UNL     1       3.416   5.894  18.267  0.00  0.00    +0.000 A 
ATOM     10  H   UNL     1       1.019   8.586  20.498  0.00  0.00    +0.000 HD
ENDROOT
BRANCH   9  11
ATOM     11  C   UNL     1       4.261   5.437  17.166  0.00  0.00    +0.000 A 
ATOM     12  C   UNL     1       4.896   6.389  16.351  0.00  0.00    +0.000 A 
ATOM     13  C   UNL     1       5.716   5.996  15.287  0.00  0.00    +0.000 A 
ATOM     14  C   UNL     1       5.900   4.644  15.033  0.00  0.00    +0.000 A 
ATOM     15  C   UNL     1       5.259   3.684  15.809  0.00  0.00    +0.000 A 
ATOM     16  C   UNL     1       4.431   4.081  16.861  0.00  0.00    +0.000 A 
BRANCH  14  17
ATOM     17  O   UNL     1       6.693   4.204  14.014  0.00  0.00    +0.000 OA
ATOM     18  H   UNL     1       7.002   4.980  13.517  0.00  0.00    +0.000 HD
ENDBRANCH  14  17
ENDBRANCH   9  11
BRANCH   6  19
ATOM     19  C   UNL     1       0.621  10.769  19.210  0.00  0.00    +0.000 C 
ATOM     20  C   UNL     1       0.831  11.364  20.598  0.00  0.00    +0.000 C 
ATOM     21  C   UNL     1       1.384  12.080  19.408  0.00  0.00    +0.000 C 
BRANCH  19  22
ATOM     22  C   UNL     1      -0.769  10.818  18.573  0.00  0.00    +0.000 A 
ATOM     23  C   UNL     1      -1.083   9.939  17.502  0.00  0.00    +0.000 A 
ATOM     24  C   UNL     1      -2.378   9.828  16.985  0.00  0.00    +0.000 A 
ATOM     25  C   UNL     1      -3.355  10.620  17.540  0.00  0.00    +0.000 A 
ATOM     26  C   UNL     1      -3.072  11.507  18.550  0.00  0.00    +0.000 A 
ATOM     27  C   UNL     1      -1.802  11.631  19.080  0.00  0.00    +0.000 A 
ATOM     28  O   UNL     1      -4.175  12.188  18.964  0.00  0.00    +0.000 OA
ATOM     29  C   UNL     1      -5.184  11.626  18.095  0.00  0.00    +0.000 C 
ATOM     30  O   UNL     1      -4.671  10.620  17.198  0.00  0.00    +0.000 OA
ENDBRANCH  19  22
ENDBRANCH   6  19
TORSDOF 4
ENDMDL
MODEL 6
REMARK VINA RESULT:      -8.5      0.564      1.037
REMARK  Name = 
REMARK  5 active torsions:
REMARK  status: ('A' for Active; 'I' for Inactive)
REMARK    1  A    between atoms: C_1  and  C_2
REMARK    2  A    between atoms: C_6  and  C_8
REMARK    3  A    between atoms: C_8  and  C_9
REMARK    4  A    between atoms: C_21  and  C_22
REMARK    5  A    between atoms: C_25  and  O_26
REMARK                            x       y       z     vdW  Elec       q    Type
REMARK                         _______ _______ _______ _____ _____    ______ ____
ROOT
ATOM      1  C   UNL     1       3.074   3.395  20.231  0.00  0.00    +0.000 C 
ATOM      2  C   UNL     1       2.798   4.830  19.945  0.00  0.00    +0.000 A 
ATOM      3  S   UNL     1       1.548   5.651  20.813  0.00  0.00    +0.000 S 
ATOM      4  C   UNL     1       1.917   7.082  19.970  0.00  0.00    +0.000 A 
ATOM      5  N   UNL     1       1.133   8.161  20.267  0.00  0.00    +0.000 N 
ATOM      6  C   UNL     1       1.255   9.321  19.543  0.00  0.00    +0.000 C 
ATOM      7  O   UNL     1       2.034   9.556  18.627  0.00  0.00    +0.000 OA
ATOM      8  N   UNL     1       2.899   7.007  19.117  0.00  0.00    +0.000 NA
ATOM      9  C   UNL     1       3.404   5.721  19.068  0.00  0.00    +0.000 A 
ATOM     10  H   UNL     1       0.405   8.048  20.955  0.00  0.00    +0.000 HD
ENDROOT
BRANCH   9  11
ATOM     11  C   UNL     1       4.520   5.434  18.169  0.00  0.00    +0.000 A 
ATOM     12  C   UNL     1       5.834   5.569  18.646  0.00  0.00    +0.000 A 
ATOM     13  C   UNL     1       6.932   5.301  17.820  0.00  0.00    +0.000 A 
ATOM     14  C   UNL     1       6.717   4.899  16.509  0.00  0.00    +0.000 A 
ATOM     15  C   UNL     1       5.424   4.785  16.007  0.00  0.00    +0.000 A 
ATOM     16  C   UNL     1       4.332   5.067  16.831  0.00  0.00    +0.000 A 
BRANCH  14  17
ATOM     17  O   UNL     1       7.749   4.619  15.662  0.00  0.00    +0.000 OA
ATOM     18  H   UNL     1       7.677   5.210  14.895  0.00  0.00    +0.000 HD
ENDBRANCH  14  17
ENDBRANCH   9  11
BRANCH   6  19
ATOM     19  C   UNL     1       0.253  10.391  19.920  0.00  0.00    +0.000 C 
ATOM     20  C   UNL     1       0.005  10.711  21.391  0.00  0.00    +0.000 C 
ATOM     21  C   UNL     1       0.873  11.622  20.583  0.00  0.00    +0.000 C 
BRANCH  19  22
ATOM     22  C   UNL     1      -0.874  10.594  18.906  0.00  0.00    +0.000 A 
ATOM     23  C   UNL     1      -0.851   9.882  17.677  0.00  0.00    +0.000 A 
ATOM     24  C   UNL     1      -1.926   9.906  16.782  0.00  0.00    +0.000 A 
ATOM     25  C   UNL     1      -3.020  10.665  17.121  0.00  0.00    +0.000 A 
ATOM     26  C   UNL     1      -3.055  11.394  18.285  0.00  0.00    +0.000 A 
ATOM     27  C   UNL     1      -2.007  11.383  19.186  0.00  0.00    +0.000 A 
ATOM     28  O   UNL     1      -4.226  12.069  18.438  0.00  0.00    +0.000 OA
ATOM     29  C   UNL     1      -4.924  11.679  17.234  0.00  0.00    +0.000 C 
ATOM     30  O   UNL     1      -4.168  10.776  16.402  0.00  0.00    +0.000 OA
ENDBRANCH  19  22
ENDBRANCH   6  19
TORSDOF 4
ENDMDL
MODEL 7
REMARK VINA RESULT:      -8.4      2.785      8.742
REMARK  Name = 
REMARK  5 active torsions:
REMARK  status: ('A' for Active; 'I' for Inactive)
REMARK    1  A    between atoms: C_1  and  C_2
REMARK    2  A    between atoms: C_6  and  C_8
REMARK    3  A    between atoms: C_8  and  C_9
REMARK    4  A    between atoms: C_21  and  C_22
REMARK    5  A    between atoms: C_25  and  O_26
REMARK                            x       y       z     vdW  Elec       q    Type
REMARK                         _______ _______ _______ _____ _____    ______ ____
ROOT
ATOM      1  C   UNL     1      -0.922  11.202  22.936  0.00  0.00    +0.000 C 
ATOM      2  C   UNL     1      -0.119  10.370  21.998  0.00  0.00    +0.000 A 
ATOM      3  S   UNL     1       0.070   8.678  22.301  0.00  0.00    +0.000 S 
ATOM      4  C   UNL     1       0.990   8.536  20.878  0.00  0.00    +0.000 A 
ATOM      5  N   UNL     1       1.477   7.287  20.612  0.00  0.00    +0.000 N 
ATOM      6  C   UNL     1       2.346   7.095  19.566  0.00  0.00    +0.000 C 
ATOM      7  O   UNL     1       2.755   7.928  18.767  0.00  0.00    +0.000 OA
ATOM      8  N   UNL     1       1.151   9.630  20.188  0.00  0.00    +0.000 NA
ATOM      9  C   UNL     1       0.545  10.698  20.822  0.00  0.00    +0.000 A 
ATOM     10  H   UNL     1       1.262   6.543  21.256  0.00  0.00    +0.000 HD
ENDROOT
BRANCH   9  11
ATOM     11  C   UNL     1       0.611  12.019  20.201  0.00  0.00    +0.000 A 
ATOM     12  C   UNL     1      -0.272  12.326  19.151  0.00  0.00    +0.000 A 
ATOM     13  C   UNL     1      -0.245  13.580  18.530  0.00  0.00    +0.000 A 
ATOM     14  C   UNL     1       0.671  14.532  18.955  0.00  0.00    +0.000 A 
ATOM     15  C   UNL     1       1.573  14.241  19.974  0.00  0.00    +0.000 A 
ATOM     16  C   UNL     1       1.551  12.984  20.582  0.00  0.00    +0.000 A 
BRANCH  14  17
ATOM     17  O   UNL     1       0.737  15.772  18.390  0.00  0.00    +0.000 OA
ATOM     18  H   UNL     1       1.664  16.062  18.411  0.00  0.00    +0.000 HD
ENDBRANCH  14  17
ENDBRANCH   9  11
BRANCH   6  19
ATOM     19  C   UNL     1       2.877   5.682  19.459  0.00  0.00    +0.000 C 
ATOM     20  C   UNL     1       2.583   4.676  20.567  0.00  0.00    +0.000 C 
ATOM     21  C   UNL     1       1.791   4.617  19.300  0.00  0.00    +0.000 C 
BRANCH  19  22
ATOM     22  C   UNL     1       4.164   5.545  18.641  0.00  0.00    +0.000 A 
ATOM     23  C   UNL     1       5.405   5.367  19.309  0.00  0.00    +0.000 A 
ATOM     24  C   UNL     1       6.588   5.081  18.619  0.00  0.00    +0.000 A 
ATOM     25  C   UNL     1       6.519   4.989  17.250  0.00  0.00    +0.000 A 
ATOM     26  C   UNL     1       5.341   5.194  16.575  0.00  0.00    +0.000 A 
ATOM     27  C   UNL     1       4.159   5.474  17.235  0.00  0.00    +0.000 A 
ATOM     28  O   UNL     1       5.484   5.052  15.229  0.00  0.00    +0.000 OA
ATOM     29  C   UNL     1       6.890   4.734  15.137  0.00  0.00    +0.000 C 
ATOM     30  O   UNL     1       7.549   4.679  16.419  0.00  0.00    +0.000 OA
ENDBRANCH  19  22
ENDBRANCH   6  19
TORSDOF 4
ENDMDL
MODEL 8
REMARK VINA RESULT:      -8.4      1.115      1.700
REMARK  Name = 
REMARK  5 active torsions:
REMARK  status: ('A' for Active; 'I' for Inactive)
REMARK    1  A    between atoms: C_1  and  C_2
REMARK    2  A    between atoms: C_6  and  C_8
REMARK    3  A    between atoms: C_8  and  C_9
REMARK    4  A    between atoms: C_21  and  C_22
REMARK    5  A    between atoms: C_25  and  O_26
REMARK                            x       y       z     vdW  Elec       q    Type
REMARK                         _______ _______ _______ _____ _____    ______ ____
ROOT
ATOM      1  C   UNL     1       4.069   2.762  19.638  0.00  0.00    +0.000 C 
ATOM      2  C   UNL     1       3.571   4.164  19.584  0.00  0.00    +0.000 A 
ATOM      3  S   UNL     1       2.384   4.696  20.724  0.00  0.00    +0.000 S 
ATOM      4  C   UNL     1       2.427   6.248  20.029  0.00  0.00    +0.000 A 
ATOM      5  N   UNL     1       1.572   7.163  20.575  0.00  0.00    +0.000 N 
ATOM      6  C   UNL     1       1.428   8.401  19.997  0.00  0.00    +0.000 C 
ATOM      7  O   UNL     1       2.012   8.845  19.016  0.00  0.00    +0.000 OA
ATOM      8  N   UNL     1       3.260   6.410  19.040  0.00  0.00    +0.000 NA
ATOM      9  C   UNL     1       3.910   5.224  18.752  0.00  0.00    +0.000 A 
ATOM     10  H   UNL     1       0.986   6.872  21.341  0.00  0.00    +0.000 HD
ENDROOT
BRANCH   9  11
ATOM     11  C   UNL     1       4.892   5.201  17.670  0.00  0.00    +0.000 A 
ATOM     12  C   UNL     1       6.076   5.945  17.806  0.00  0.00    +0.000 A 
ATOM     13  C   UNL     1       7.045   5.949  16.796  0.00  0.00    +0.000 A 
ATOM     14  C   UNL     1       6.830   5.208  15.642  0.00  0.00    +0.000 A 
ATOM     15  C   UNL     1       5.653   4.486  15.474  0.00  0.00    +0.000 A 
ATOM     16  C   UNL     1       4.682   4.496  16.479  0.00  0.00    +0.000 A 
BRANCH  14  17
ATOM     17  O   UNL     1       7.743   5.170  14.629  0.00  0.00    +0.000 OA
ATOM     18  H   UNL     1       7.925   4.238  14.424  0.00  0.00    +0.000 HD
ENDBRANCH  14  17
ENDBRANCH   9  11
BRANCH   6  19
ATOM     19  C   UNL     1       0.373   9.266  20.652  0.00  0.00    +0.000 C 
ATOM     20  C   UNL     1      -0.156   8.899  22.035  0.00  0.00    +0.000 C 
ATOM     21  C   UNL     1       0.854   9.994  21.909  0.00  0.00    +0.000 C 
BRANCH  19  22
ATOM     22  C   UNL     1      -0.535  10.015  19.674  0.00  0.00    +0.000 A 
ATOM     23  C   UNL     1      -0.343  11.406  19.461  0.00  0.00    +0.000 A 
ATOM     24  C   UNL     1      -1.034  12.110  18.469  0.00  0.00    +0.000 A 
ATOM     25  C   UNL     1      -1.934  11.410  17.702  0.00  0.00    +0.000 A 
ATOM     26  C   UNL     1      -2.169  10.073  17.911  0.00  0.00    +0.000 A 
ATOM     27  C   UNL     1      -1.495   9.356  18.881  0.00  0.00    +0.000 A 
ATOM     28  O   UNL     1      -3.087   9.567  17.044  0.00  0.00    +0.000 OA
ATOM     29  C   UNL     1      -3.402  10.743  16.265  0.00  0.00    +0.000 C 
ATOM     30  O   UNL     1      -2.662  11.913  16.670  0.00  0.00    +0.000 OA
ENDBRANCH  19  22
ENDBRANCH   6  19
TORSDOF 4
ENDMDL
MODEL 9
REMARK VINA RESULT:      -8.4      1.430      1.845
REMARK  Name = 
REMARK  5 active torsions:
REMARK  status: ('A' for Active; 'I' for Inactive)
REMARK    1  A    between atoms: C_1  and  C_2
REMARK    2  A    between atoms: C_6  and  C_8
REMARK    3  A    between atoms: C_8  and  C_9
REMARK    4  A    between atoms: C_21  and  C_22
REMARK    5  A    between atoms: C_25  and  O_26
REMARK                            x       y       z     vdW  Elec       q    Type
REMARK                         _______ _______ _______ _____ _____    ______ ____
ROOT
ATOM      1  C   UNL     1       2.275   4.405  21.083  0.00  0.00    +0.000 C 
ATOM      2  C   UNL     1       2.162   5.710  20.375  0.00  0.00    +0.000 A 
ATOM      3  S   UNL     1       1.237   6.990  21.079  0.00  0.00    +0.000 S 
ATOM      4  C   UNL     1       1.641   7.991  19.765  0.00  0.00    +0.000 A 
ATOM      5  N   UNL     1       1.095   9.244  19.788  0.00  0.00    +0.000 N 
ATOM      6  C   UNL     1       1.244  10.079  18.708  0.00  0.00    +0.000 C 
ATOM      7  O   UNL     1       1.856   9.863  17.669  0.00  0.00    +0.000 OA
ATOM      8  N   UNL     1       2.418   7.465  18.861  0.00  0.00    +0.000 NA
ATOM      9  C   UNL     1       2.711   6.151  19.176  0.00  0.00    +0.000 A 
ATOM     10  H   UNL     1       0.506   9.495  20.566  0.00  0.00    +0.000 HD
ENDROOT
BRANCH   9  11
ATOM     11  C   UNL     1       3.577   5.385  18.283  0.00  0.00    +0.000 A 
ATOM     12  C   UNL     1       4.926   5.755  18.156  0.00  0.00    +0.000 A 
ATOM     13  C   UNL     1       5.792   5.048  17.314  0.00  0.00    +0.000 A 
ATOM     14  C   UNL     1       5.307   3.967  16.591  0.00  0.00    +0.000 A 
ATOM     15  C   UNL     1       3.968   3.600  16.679  0.00  0.00    +0.000 A 
ATOM     16  C   UNL     1       3.105   4.317  17.511  0.00  0.00    +0.000 A 
BRANCH  14  17
ATOM     17  O   UNL     1       6.107   3.238  15.760  0.00  0.00    +0.000 OA
ATOM     18  H   UNL     1       5.607   2.457  15.471  0.00  0.00    +0.000 HD
ENDBRANCH  14  17
ENDBRANCH   9  11
BRANCH   6  19
ATOM     19  C   UNL     1       0.501  11.391  18.838  0.00  0.00    +0.000 C 
ATOM     20  C   UNL     1       0.983  12.439  19.836  0.00  0.00    +0.000 C 
ATOM     21  C   UNL     1       1.305  12.612  18.386  0.00  0.00    +0.000 C 
BRANCH  19  22
ATOM     22  C   UNL     1      -0.986  11.321  18.482  0.00  0.00    +0.000 A 
ATOM     23  C   UNL     1      -1.437  10.362  17.536  0.00  0.00    +0.000 A 
ATOM     24  C   UNL     1      -2.796  10.144  17.286  0.00  0.00    +0.000 A 
ATOM     25  C   UNL     1      -3.701  10.908  17.982  0.00  0.00    +0.000 A 
ATOM     26  C   UNL     1      -3.293  11.869  18.875  0.00  0.00    +0.000 A 
ATOM     27  C   UNL     1      -1.957  12.100  19.141  0.00  0.00    +0.000 A 
ATOM     28  O   UNL     1      -4.341  12.508  19.462  0.00  0.00    +0.000 OA
ATOM     29  C   UNL     1      -5.455  11.836  18.834  0.00  0.00    +0.000 C 
ATOM     30  O   UNL     1      -5.054  10.810  17.904  0.00  0.00    +0.000 OA
ENDBRANCH  19  22
ENDBRANCH   6  19
TORSDOF 4
ENDMDL
