MODEL 1
REMARK VINA RESULT:      -7.5      0.000      0.000
REMARK  Name = 
REMARK  4 active torsions:
REMARK  status: ('A' for Active; 'I' for Inactive)
REMARK    1  A    between atoms: C_1  and  C_2
REMARK    2  A    between atoms: N_5  and  C_6
REMARK    3  A    between atoms: C_7  and  S_8
REMARK    4  A    between atoms: S_8  and  C_11
REMARK                            x       y       z     vdW  Elec       q    Type
REMARK                         _______ _______ _______ _____ _____    ______ ____
ROOT
ATOM      1  C   UNL     1      -1.992  12.182  20.574  0.00  0.00    +0.000 A 
ATOM      2  C   UNL     1      -0.939  11.485  19.933  0.00  0.00    +0.000 A 
ATOM      3  C   UNL     1      -1.178  10.910  18.684  0.00  0.00    +0.000 A 
ATOM      4  N   UNL     1      -2.339  10.979  18.007  0.00  0.00    +0.000 NA
ATOM      5  C   UNL     1      -3.348  11.637  18.563  0.00  0.00    +0.000 A 
ATOM      6  C   UNL     1      -4.527  11.684  17.833  0.00  0.00    +0.000 A 
ATOM      7  C   UNL     1      -5.651  12.352  18.303  0.00  0.00    +0.000 A 
ATOM      8 CL   UNL     1      -7.100  12.376  17.381  0.00  0.00    +0.000 Cl
ATOM      9  C   UNL     1      -5.590  13.017  19.511  0.00  0.00    +0.000 A 
ATOM     10  C   UNL     1      -4.397  12.998  20.235  0.00  0.00    +0.000 A 
ATOM     11  C   UNL     1      -3.247  12.275  19.826  0.00  0.00    +0.000 A 
ENDROOT
BRANCH   1  16
ATOM     12  C   UNL     1      -3.110  15.462  24.940  0.00  0.00    +0.000 C 
ATOM     13  C   UNL     1      -2.268  14.402  24.230  0.00  0.00    +0.000 C 
ATOM     14  C   UNL     1      -1.734  14.992  22.926  0.00  0.00    +0.000 C 
ATOM     15  C   UNL     1      -1.025  13.951  22.082  0.00  0.00    +0.000 C 
ATOM     16  N   UNL     1      -1.922  12.833  21.817  0.00  0.00    +0.000 N 
ATOM     17  C   UNL     1      -2.321  12.130  23.055  0.00  0.00    +0.000 C 
ATOM     18  C   UNL     1      -3.078  13.123  23.959  0.00  0.00    +0.000 C 
ENDBRANCH   1  16
BRANCH   2  19
ATOM     19  S   UNL     1       0.684  11.118  20.563  0.00  0.00    +0.000 S 
ATOM     20  O   UNL     1       1.557  12.233  20.254  0.00  0.00    +0.000 OA
ATOM     21  O   UNL     1       0.548  10.700  21.949  0.00  0.00    +0.000 OA
BRANCH  19  22
ATOM     22  C   UNL     1       1.350   9.666  19.750  0.00  0.00    +0.000 A 
ATOM     23  C   UNL     1       1.776   9.762  18.419  0.00  0.00    +0.000 A 
ATOM     24  C   UNL     1       2.254   8.623  17.758  0.00  0.00    +0.000 A 
ATOM     25  C   UNL     1       2.301   7.405  18.432  0.00  0.00    +0.000 A 
ATOM     26  F   UNL     1       2.761   6.326  17.779  0.00  0.00    +0.000 F 
ATOM     27  C   UNL     1       1.881   7.310  19.759  0.00  0.00    +0.000 A 
ATOM     28 CL   UNL     1       1.932   5.801  20.586  0.00  0.00    +0.000 Cl
ATOM     29  C   UNL     1       1.401   8.441  20.428  0.00  0.00    +0.000 A 
ENDBRANCH  19  22
ENDBRANCH   2  19
TORSDOF 3
ENDMDL
MODEL 2
REMARK VINA RESULT:      -7.4      2.272      4.783
REMARK  Name = 
REMARK  4 active torsions:
REMARK  status: ('A' for Active; 'I' for Inactive)
REMARK    1  A    between atoms: C_1  and  C_2
REMARK    2  A    between atoms: N_5  and  C_6
REMARK    3  A    between atoms: C_7  and  S_8
REMARK    4  A    between atoms: S_8  and  C_11
REMARK                            x       y       z     vdW  Elec       q    Type
REMARK                         _______ _______ _______ _____ _____    ______ ____
ROOT
ATOM      1  C   UNL     1      -3.240  12.293  19.700  0.00  0.00    +0.000 A 
ATOM      2  C   UNL     1      -1.998  12.794  20.160  0.00  0.00    +0.000 A 
ATOM      3  C   UNL     1      -1.975  13.565  21.323  0.00  0.00    +0.000 A 
ATOM      4  N   UNL     1      -3.049  13.863  22.079  0.00  0.00    +0.000 NA
ATOM      5  C   UNL     1      -4.231  13.400  21.693  0.00  0.00    +0.000 A 
ATOM      6  C   UNL     1      -5.311  13.731  22.499  0.00  0.00    +0.000 A 
ATOM      7  C   UNL     1      -6.599  13.297  22.207  0.00  0.00    +0.000 A 
ATOM      8 CL   UNL     1      -7.916  13.739  23.216  0.00  0.00    +0.000 Cl
ATOM      9  C   UNL     1      -6.811  12.487  21.110  0.00  0.00    +0.000 A 
ATOM     10  C   UNL     1      -5.722  12.128  20.314  0.00  0.00    +0.000 A 
ATOM     11  C   UNL     1      -4.403  12.600  20.535  0.00  0.00    +0.000 A 
ENDROOT
BRANCH   1  16
ATOM     12  C   UNL     1      -2.874  10.109  14.585  0.00  0.00    +0.000 C 
ATOM     13  C   UNL     1      -3.445  10.136  16.002  0.00  0.00    +0.000 C 
ATOM     14  C   UNL     1      -4.131  11.482  16.230  0.00  0.00    +0.000 C 
ATOM     15  C   UNL     1      -4.580  11.652  17.668  0.00  0.00    +0.000 C 
ATOM     16  N   UNL     1      -3.443  11.490  18.565  0.00  0.00    +0.000 N 
ATOM     17  C   UNL     1      -2.862  10.133  18.493  0.00  0.00    +0.000 C 
ATOM     18  C   UNL     1      -2.353   9.893  17.058  0.00  0.00    +0.000 C 
ENDBRANCH   1  16
BRANCH   2  19
ATOM     19  S   UNL     1      -0.404  12.678  19.377  0.00  0.00    +0.000 S 
ATOM     20  O   UNL     1      -0.582  12.862  17.951  0.00  0.00    +0.000 OA
ATOM     21  O   UNL     1       0.513  13.556  20.087  0.00  0.00    +0.000 OA
BRANCH  19  22
ATOM     22  C   UNL     1       0.293  11.047  19.632  0.00  0.00    +0.000 A 
ATOM     23  C   UNL     1       0.149  10.428  20.880  0.00  0.00    +0.000 A 
ATOM     24  C   UNL     1       0.730   9.173  21.104  0.00  0.00    +0.000 A 
ATOM     25  C   UNL     1       1.446   8.553  20.083  0.00  0.00    +0.000 A 
ATOM     26  F   UNL     1       1.996   7.352  20.321  0.00  0.00    +0.000 F 
ATOM     27  C   UNL     1       1.585   9.167  18.839  0.00  0.00    +0.000 A 
ATOM     28 CL   UNL     1       2.479   8.402  17.581  0.00  0.00    +0.000 Cl
ATOM     29  C   UNL     1       1.010  10.420  18.603  0.00  0.00    +0.000 A 
ENDBRANCH  19  22
ENDBRANCH   2  19
TORSDOF 3
ENDMDL
MODEL 3
REMARK VINA RESULT:      -7.3      2.279      4.740
REMARK  Name = 
REMARK  4 active torsions:
REMARK  status: ('A' for Active; 'I' for Inactive)
REMARK    1  A    between atoms: C_1  and  C_2
REMARK    2  A    between atoms: N_5  and  C_6
REMARK    3  A    between atoms: C_7  and  S_8
REMARK    4  A    between atoms: S_8  and  C_11
REMARK                            x       y       z     vdW  Elec       q    Type
REMARK                         _______ _______ _______ _____ _____    ______ ____
ROOT
ATOM      1  C   UNL     1      -3.257  12.289  19.591  0.00  0.00    +0.000 A 
ATOM      2  C   UNL     1      -2.031  12.877  19.990  0.00  0.00    +0.000 A 
ATOM      3  C   UNL     1      -2.002  13.634  21.162  0.00  0.00    +0.000 A 
ATOM      4  N   UNL     1      -3.051  13.844  21.978  0.00  0.00    +0.000 NA
ATOM      5  C   UNL     1      -4.215  13.299  21.651  0.00  0.00    +0.000 A 
ATOM      6  C   UNL     1      -5.271  13.540  22.518  0.00  0.00    +0.000 A 
ATOM      7  C   UNL     1      -6.538  13.015  22.291  0.00  0.00    +0.000 A 
ATOM      8 CL   UNL     1      -7.826  13.347  23.376  0.00  0.00    +0.000 Cl
ATOM      9  C   UNL     1      -6.749  12.204  21.195  0.00  0.00    +0.000 A 
ATOM     10  C   UNL     1      -5.683  11.934  20.336  0.00  0.00    +0.000 A 
ATOM     11  C   UNL     1      -4.391  12.501  20.492  0.00  0.00    +0.000 A 
ENDROOT
BRANCH   1  16
ATOM     12  C   UNL     1      -2.898  10.098  14.479  0.00  0.00    +0.000 C 
ATOM     13  C   UNL     1      -3.469  10.128  15.896  0.00  0.00    +0.000 C 
ATOM     14  C   UNL     1      -4.150  11.477  16.122  0.00  0.00    +0.000 C 
ATOM     15  C   UNL     1      -4.599  11.651  17.559  0.00  0.00    +0.000 C 
ATOM     16  N   UNL     1      -3.463  11.486  18.457  0.00  0.00    +0.000 N 
ATOM     17  C   UNL     1      -2.886  10.127  18.387  0.00  0.00    +0.000 C 
ATOM     18  C   UNL     1      -2.378   9.883  16.952  0.00  0.00    +0.000 C 
ENDBRANCH   1  16
BRANCH   2  19
ATOM     19  S   UNL     1      -0.479  12.887  19.121  0.00  0.00    +0.000 S 
ATOM     20  O   UNL     1      -0.747  13.091  17.711  0.00  0.00    +0.000 OA
ATOM     21  O   UNL     1       0.415  13.810  19.803  0.00  0.00    +0.000 OA
BRANCH  19  22
ATOM     22  C   UNL     1       0.338  11.303  19.295  0.00  0.00    +0.000 A 
ATOM     23  C   UNL     1       1.013  10.756  18.195  0.00  0.00    +0.000 A 
ATOM     24  C   UNL     1       1.615   9.496  18.306  0.00  0.00    +0.000 A 
ATOM     25  C   UNL     1       1.538   8.799  19.509  0.00  0.00    +0.000 A 
ATOM     26  F   UNL     1       2.121   7.593  19.592  0.00  0.00    +0.000 F 
ATOM     27  C   UNL     1       0.871   9.345  20.606  0.00  0.00    +0.000 A 
ATOM     28 CL   UNL     1       0.770   8.476  22.089  0.00  0.00    +0.000 Cl
ATOM     29  C   UNL     1       0.265  10.602  20.507  0.00  0.00    +0.000 A 
ENDBRANCH  19  22
ENDBRANCH   2  19
TORSDOF 3
ENDMDL
MODEL 4
REMARK VINA RESULT:      -7.1      2.014      4.539
REMARK  Name = 
REMARK  4 active torsions:
REMARK  status: ('A' for Active; 'I' for Inactive)
REMARK    1  A    between atoms: C_1  and  C_2
REMARK    2  A    between atoms: N_5  and  C_6
REMARK    3  A    between atoms: C_7  and  S_8
REMARK    4  A    between atoms: S_8  and  C_11
REMARK                            x       y       z     vdW  Elec       q    Type
REMARK                         _______ _______ _______ _____ _____    ______ ____
ROOT
ATOM      1  C   UNL     1      -2.439  12.287  19.840  0.00  0.00    +0.000 A 
ATOM      2  C   UNL     1      -1.387  12.695  20.697  0.00  0.00    +0.000 A 
ATOM      3  C   UNL     1      -1.699  13.445  21.831  0.00  0.00    +0.000 A 
ATOM      4  N   UNL     1      -2.939  13.805  22.208  0.00  0.00    +0.000 NA
ATOM      5  C   UNL     1      -3.957  13.431  21.443  0.00  0.00    +0.000 A 
ATOM      6  C   UNL     1      -5.219  13.823  21.866  0.00  0.00    +0.000 A 
ATOM      7  C   UNL     1      -6.365  13.483  21.157  0.00  0.00    +0.000 A 
ATOM      8 CL   UNL     1      -7.910  14.000  21.700  0.00  0.00    +0.000 Cl
ATOM      9  C   UNL     1      -6.256  12.706  20.022  0.00  0.00    +0.000 A 
ATOM     10  C   UNL     1      -4.991  12.284  19.610  0.00  0.00    +0.000 A 
ATOM     11  C   UNL     1      -3.790  12.661  20.264  0.00  0.00    +0.000 A 
ENDROOT
BRANCH   1  16
ATOM     12  C   UNL     1      -3.523   9.650  15.051  0.00  0.00    +0.000 C 
ATOM     13  C   UNL     1      -2.573  10.080  16.168  0.00  0.00    +0.000 C 
ATOM     14  C   UNL     1      -3.098   9.537  17.496  0.00  0.00    +0.000 C 
ATOM     15  C   UNL     1      -2.303  10.059  18.676  0.00  0.00    +0.000 C 
ATOM     16  N   UNL     1      -2.309  11.517  18.673  0.00  0.00    +0.000 N 
ATOM     17  C   UNL     1      -1.649  12.077  17.475  0.00  0.00    +0.000 C 
ATOM     18  C   UNL     1      -2.423  11.611  16.226  0.00  0.00    +0.000 C 
ENDBRANCH   1  16
BRANCH   2  19
ATOM     19  S   UNL     1       0.365  12.481  20.469  0.00  0.00    +0.000 S 
ATOM     20  O   UNL     1       0.727  13.027  19.177  0.00  0.00    +0.000 OA
ATOM     21  O   UNL     1       1.040  12.984  21.655  0.00  0.00    +0.000 OA
BRANCH  19  22
ATOM     22  C   UNL     1       0.779  10.738  20.458  0.00  0.00    +0.000 A 
ATOM     23  C   UNL     1       0.701  10.007  21.651  0.00  0.00    +0.000 A 
ATOM     24  C   UNL     1       1.068   8.656  21.663  0.00  0.00    +0.000 A 
ATOM     25  C   UNL     1       1.506   8.050  20.489  0.00  0.00    +0.000 A 
ATOM     26  F   UNL     1       1.854   6.754  20.524  0.00  0.00    +0.000 F 
ATOM     27  C   UNL     1       1.579   8.775  19.299  0.00  0.00    +0.000 A 
ATOM     28 CL   UNL     1       2.130   8.026  17.850  0.00  0.00    +0.000 Cl
ATOM     29  C   UNL     1       1.216  10.126  19.275  0.00  0.00    +0.000 A 
ENDBRANCH  19  22
ENDBRANCH   2  19
TORSDOF 3
ENDMDL
MODEL 5
REMARK VINA RESULT:      -7.1      4.388      6.814
REMARK  Name = 
REMARK  4 active torsions:
REMARK  status: ('A' for Active; 'I' for Inactive)
REMARK    1  A    between atoms: C_1  and  C_2
REMARK    2  A    between atoms: N_5  and  C_6
REMARK    3  A    between atoms: C_7  and  S_8
REMARK    4  A    between atoms: S_8  and  C_11
REMARK                            x       y       z     vdW  Elec       q    Type
REMARK                         _______ _______ _______ _____ _____    ______ ____
ROOT
ATOM      1  C   UNL     1      -3.816  12.400  20.364  0.00  0.00    +0.000 A 
ATOM      2  C   UNL     1      -2.651  12.325  21.166  0.00  0.00    +0.000 A 
ATOM      3  C   UNL     1      -1.488  11.790  20.610  0.00  0.00    +0.000 A 
ATOM      4  N   UNL     1      -1.363  11.349  19.345  0.00  0.00    +0.000 NA
ATOM      5  C   UNL     1      -2.426  11.415  18.553  0.00  0.00    +0.000 A 
ATOM      6  C   UNL     1      -2.255  10.949  17.258  0.00  0.00    +0.000 A 
ATOM      7  C   UNL     1      -3.290  10.975  16.330  0.00  0.00    +0.000 A 
ATOM      8 CL   UNL     1      -3.049  10.375  14.739  0.00  0.00    +0.000 Cl
ATOM      9  C   UNL     1      -4.511  11.509  16.690  0.00  0.00    +0.000 A 
ATOM     10  C   UNL     1      -4.678  12.005  17.983  0.00  0.00    +0.000 A 
ATOM     11  C   UNL     1      -3.672  11.939  18.981  0.00  0.00    +0.000 A 
ENDROOT
BRANCH   1  16
ATOM     12  C   UNL     1      -7.917  14.759  23.310  0.00  0.00    +0.000 C 
ATOM     13  C   UNL     1      -7.362  14.139  22.029  0.00  0.00    +0.000 C 
ATOM     14  C   UNL     1      -6.901  12.714  22.332  0.00  0.00    +0.000 C 
ATOM     15  C   UNL     1      -6.186  12.087  21.151  0.00  0.00    +0.000 C 
ATOM     16  N   UNL     1      -5.060  12.922  20.753  0.00  0.00    +0.000 N 
ATOM     17  C   UNL     1      -5.491  14.258  20.287  0.00  0.00    +0.000 C 
ATOM     18  C   UNL     1      -6.207  14.974  21.449  0.00  0.00    +0.000 C 
ENDBRANCH   1  16
BRANCH   2  19
ATOM     19  S   UNL     1      -2.472  12.725  22.890  0.00  0.00    +0.000 S 
ATOM     20  O   UNL     1      -3.349  11.860  23.653  0.00  0.00    +0.000 OA
ATOM     21  O   UNL     1      -1.052  12.737  23.207  0.00  0.00    +0.000 OA
BRANCH  19  22
ATOM     22  C   UNL     1      -2.984  14.416  23.189  0.00  0.00    +0.000 A 
ATOM     23  C   UNL     1      -3.846  14.692  24.258  0.00  0.00    +0.000 A 
ATOM     24  C   UNL     1      -4.291  16.003  24.472  0.00  0.00    +0.000 A 
ATOM     25  C   UNL     1      -3.869  17.021  23.621  0.00  0.00    +0.000 A 
ATOM     26  F   UNL     1      -4.309  18.269  23.844  0.00  0.00    +0.000 F 
ATOM     27  C   UNL     1      -3.006  16.748  22.559  0.00  0.00    +0.000 A 
ATOM     28 CL   UNL     1      -2.495  18.007  21.502  0.00  0.00    +0.000 Cl
ATOM     29  C   UNL     1      -2.557  15.442  22.335  0.00  0.00    +0.000 A 
ENDBRANCH  19  22
ENDBRANCH   2  19
TORSDOF 3
ENDMDL
MODEL 6
REMARK VINA RESULT:      -7.1      8.238      9.931
REMARK  Name = 
REMARK  4 active torsions:
REMARK  status: ('A' for Active; 'I' for Inactive)
REMARK    1  A    between atoms: C_1  and  C_2
REMARK    2  A    between atoms: N_5  and  C_6
REMARK    3  A    between atoms: C_7  and  S_8
REMARK    4  A    between atoms: S_8  and  C_11
REMARK                            x       y       z     vdW  Elec       q    Type
REMARK                         _______ _______ _______ _____ _____    ______ ____
ROOT
ATOM      1  C   UNL     1       6.586  14.772  20.818  0.00  0.00    +0.000 A 
ATOM      2  C   UNL     1       7.018  14.106  21.991  0.00  0.00    +0.000 A 
ATOM      3  C   UNL     1       6.062  13.710  22.928  0.00  0.00    +0.000 A 
ATOM      4  N   UNL     1       4.734  13.887  22.805  0.00  0.00    +0.000 NA
ATOM      5  C   UNL     1       4.283  14.492  21.714  0.00  0.00    +0.000 A 
ATOM      6  C   UNL     1       2.908  14.656  21.627  0.00  0.00    +0.000 A 
ATOM      7  C   UNL     1       2.313  15.265  20.529  0.00  0.00    +0.000 A 
ATOM      8 CL   UNL     1       0.609  15.466  20.460  0.00  0.00    +0.000 Cl
ATOM      9  C   UNL     1       3.101  15.689  19.478  0.00  0.00    +0.000 A 
ATOM     10  C   UNL     1       4.482  15.499  19.548  0.00  0.00    +0.000 A 
ATOM     11  C   UNL     1       5.138  14.943  20.677  0.00  0.00    +0.000 A 
ENDROOT
BRANCH   1  16
ATOM     12  C   UNL     1      10.974  15.718  17.515  0.00  0.00    +0.000 C 
ATOM     13  C   UNL     1       9.490  15.846  17.855  0.00  0.00    +0.000 C 
ATOM     14  C   UNL     1       9.353  16.562  19.198  0.00  0.00    +0.000 C 
ATOM     15  C   UNL     1       7.918  16.582  19.685  0.00  0.00    +0.000 C 
ATOM     16  N   UNL     1       7.403  15.221  19.768  0.00  0.00    +0.000 N 
ATOM     17  C   UNL     1       7.360  14.557  18.448  0.00  0.00    +0.000 C 
ATOM     18  C   UNL     1       8.797  14.473  17.895  0.00  0.00    +0.000 C 
ENDBRANCH   1  16
BRANCH   2  19
ATOM     19  S   UNL     1       8.684  13.786  22.526  0.00  0.00    +0.000 S 
ATOM     20  O   UNL     1       9.340  15.057  22.762  0.00  0.00    +0.000 OA
ATOM     21  O   UNL     1       8.634  12.814  23.608  0.00  0.00    +0.000 OA
BRANCH  19  22
ATOM     22  C   UNL     1       9.595  12.935  21.239  0.00  0.00    +0.000 A 
ATOM     23  C   UNL     1      10.813  13.467  20.796  0.00  0.00    +0.000 A 
ATOM     24  C   UNL     1      11.510  12.837  19.758  0.00  0.00    +0.000 A 
ATOM     25  C   UNL     1      10.986  11.686  19.175  0.00  0.00    +0.000 A 
ATOM     26  F   UNL     1      11.670  11.099  18.180  0.00  0.00    +0.000 F 
ATOM     27  C   UNL     1       9.775  11.153  19.619  0.00  0.00    +0.000 A 
ATOM     28 CL   UNL     1       9.124   9.736  18.889  0.00  0.00    +0.000 Cl
ATOM     29  C   UNL     1       9.070  11.775  20.655  0.00  0.00    +0.000 A 
ENDBRANCH  19  22
ENDBRANCH   2  19
TORSDOF 3
ENDMDL
MODEL 7
REMARK VINA RESULT:      -7.0      6.747      9.485
REMARK  Name = 
REMARK  4 active torsions:
REMARK  status: ('A' for Active; 'I' for Inactive)
REMARK    1  A    between atoms: C_1  and  C_2
REMARK    2  A    between atoms: N_5  and  C_6
REMARK    3  A    between atoms: C_7  and  S_8
REMARK    4  A    between atoms: S_8  and  C_11
REMARK                            x       y       z     vdW  Elec       q    Type
REMARK                         _______ _______ _______ _____ _____    ______ ____
ROOT
ATOM      1  C   UNL     1       3.517   5.481  18.187  0.00  0.00    +0.000 A 
ATOM      2  C   UNL     1       4.618   5.461  17.296  0.00  0.00    +0.000 A 
ATOM      3  C   UNL     1       4.940   6.628  16.601  0.00  0.00    +0.000 A 
ATOM      4  N   UNL     1       4.298   7.805  16.721  0.00  0.00    +0.000 NA
ATOM      5  C   UNL     1       3.270   7.873  17.557  0.00  0.00    +0.000 A 
ATOM      6  C   UNL     1       2.636   9.104  17.651  0.00  0.00    +0.000 A 
ATOM      7  C   UNL     1       1.554   9.306  18.499  0.00  0.00    +0.000 A 
ATOM      8 CL   UNL     1       0.781  10.837  18.578  0.00  0.00    +0.000 Cl
ATOM      9  C   UNL     1       1.116   8.269  19.299  0.00  0.00    +0.000 A 
ATOM     10  C   UNL     1       1.770   7.038  19.230  0.00  0.00    +0.000 A 
ATOM     11  C   UNL     1       2.835   6.768  18.332  0.00  0.00    +0.000 A 
ENDROOT
BRANCH   1  16
ATOM     12  C   UNL     1       1.042   2.472  22.171  0.00  0.00    +0.000 C 
ATOM     13  C   UNL     1       1.866   2.594  20.891  0.00  0.00    +0.000 C 
ATOM     14  C   UNL     1       3.124   3.408  21.193  0.00  0.00    +0.000 C 
ATOM     15  C   UNL     1       3.914   3.716  19.936  0.00  0.00    +0.000 C 
ATOM     16  N   UNL     1       3.067   4.409  18.975  0.00  0.00    +0.000 N 
ATOM     17  C   UNL     1       1.929   3.578  18.529  0.00  0.00    +0.000 C 
ATOM     18  C   UNL     1       1.056   3.244  19.756  0.00  0.00    +0.000 C 
ENDBRANCH   1  16
BRANCH   2  19
ATOM     19  S   UNL     1       5.628   4.075  16.822  0.00  0.00    +0.000 S 
ATOM     20  O   UNL     1       6.824   4.081  17.641  0.00  0.00    +0.000 OA
ATOM     21  O   UNL     1       4.791   2.886  16.815  0.00  0.00    +0.000 OA
BRANCH  19  22
ATOM     22  C   UNL     1       6.141   4.239  15.113  0.00  0.00    +0.000 A 
ATOM     23  C   UNL     1       7.289   4.982  14.811  0.00  0.00    +0.000 A 
ATOM     24  C   UNL     1       7.672   5.156  13.475  0.00  0.00    +0.000 A 
ATOM     25  C   UNL     1       6.908   4.587  12.459  0.00  0.00    +0.000 A 
ATOM     26  F   UNL     1       7.293   4.767  11.186  0.00  0.00    +0.000 F 
ATOM     27  C   UNL     1       5.768   3.842  12.760  0.00  0.00    +0.000 A 
ATOM     28 CL   UNL     1       4.820   3.147  11.501  0.00  0.00    +0.000 Cl
ATOM     29  C   UNL     1       5.375   3.662  14.090  0.00  0.00    +0.000 A 
ENDBRANCH  19  22
ENDBRANCH   2  19
TORSDOF 3
ENDMDL
MODEL 8
REMARK VINA RESULT:      -7.0      1.191      1.574
REMARK  Name = 
REMARK  4 active torsions:
REMARK  status: ('A' for Active; 'I' for Inactive)
REMARK    1  A    between atoms: C_1  and  C_2
REMARK    2  A    between atoms: N_5  and  C_6
REMARK    3  A    between atoms: C_7  and  S_8
REMARK    4  A    between atoms: S_8  and  C_11
REMARK                            x       y       z     vdW  Elec       q    Type
REMARK                         _______ _______ _______ _____ _____    ______ ____
ROOT
ATOM      1  C   UNL     1      -2.529  12.588  21.040  0.00  0.00    +0.000 A 
ATOM      2  C   UNL     1      -1.449  11.790  20.589  0.00  0.00    +0.000 A 
ATOM      3  C   UNL     1      -1.576  11.115  19.374  0.00  0.00    +0.000 A 
ATOM      4  N   UNL     1      -2.647  11.172  18.562  0.00  0.00    +0.000 NA
ATOM      5  C   UNL     1      -3.677  11.920  18.938  0.00  0.00    +0.000 A 
ATOM      6  C   UNL     1      -4.761  11.950  18.073  0.00  0.00    +0.000 A 
ATOM      7  C   UNL     1      -5.894  12.706  18.349  0.00  0.00    +0.000 A 
ATOM      8 CL   UNL     1      -7.226  12.708  17.264  0.00  0.00    +0.000 Cl
ATOM      9  C   UNL     1      -5.935  13.475  19.494  0.00  0.00    +0.000 A 
ATOM     10  C   UNL     1      -4.834  13.471  20.351  0.00  0.00    +0.000 A 
ATOM     11  C   UNL     1      -3.685  12.665  20.144  0.00  0.00    +0.000 A 
ENDROOT
BRANCH   1  16
ATOM     12  C   UNL     1      -3.986  16.266  24.966  0.00  0.00    +0.000 C 
ATOM     13  C   UNL     1      -3.108  15.131  24.441  0.00  0.00    +0.000 C 
ATOM     14  C   UNL     1      -2.429  15.591  23.152  0.00  0.00    +0.000 C 
ATOM     15  C   UNL     1      -1.669  14.465  22.479  0.00  0.00    +0.000 C 
ATOM     16  N   UNL     1      -2.566  13.346  22.222  0.00  0.00    +0.000 N 
ATOM     17  C   UNL     1      -3.108  12.764  23.469  0.00  0.00    +0.000 C 
ATOM     18  C   UNL     1      -3.923  13.848  24.201  0.00  0.00    +0.000 C 
ENDBRANCH   1  16
BRANCH   2  19
ATOM     19  S   UNL     1       0.070  11.413  21.434  0.00  0.00    +0.000 S 
ATOM     20  O   UNL     1       1.025  12.465  21.148  0.00  0.00    +0.000 OA
ATOM     21  O   UNL     1      -0.246  11.114  22.822  0.00  0.00    +0.000 OA
BRANCH  19  22
ATOM     22  C   UNL     1       0.756   9.876  20.819  0.00  0.00    +0.000 A 
ATOM     23  C   UNL     1       0.800   8.759  21.663  0.00  0.00    +0.000 A 
ATOM     24  C   UNL     1       1.377   7.567  21.208  0.00  0.00    +0.000 A 
ATOM     25  C   UNL     1       1.900   7.502  19.920  0.00  0.00    +0.000 A 
ATOM     26  F   UNL     1       2.450   6.350  19.505  0.00  0.00    +0.000 F 
ATOM     27  C   UNL     1       1.852   8.613  19.077  0.00  0.00    +0.000 A 
ATOM     28 CL   UNL     1       2.509   8.532  17.487  0.00  0.00    +0.000 Cl
ATOM     29  C   UNL     1       1.279   9.809  19.520  0.00  0.00    +0.000 A 
ENDBRANCH  19  22
ENDBRANCH   2  19
TORSDOF 3
ENDMDL
MODEL 9
REMARK VINA RESULT:      -7.0      3.478      6.802
REMARK  Name = 
REMARK  4 active torsions:
REMARK  status: ('A' for Active; 'I' for Inactive)
REMARK    1  A    between atoms: C_1  and  C_2
REMARK    2  A    between atoms: N_5  and  C_6
REMARK    3  A    between atoms: C_7  and  S_8
REMARK    4  A    between atoms: S_8  and  C_11
REMARK                            x       y       z     vdW  Elec       q    Type
REMARK                         _______ _______ _______ _____ _____    ______ ____
ROOT
ATOM      1  C   UNL     1      -0.670  10.608  19.318  0.00  0.00    +0.000 A 
ATOM      2  C   UNL     1      -1.110  11.478  20.346  0.00  0.00    +0.000 A 
ATOM      3  C   UNL     1      -2.291  12.196  20.156  0.00  0.00    +0.000 A 
ATOM      4  N   UNL     1      -3.082  12.118  19.070  0.00  0.00    +0.000 NA
ATOM      5  C   UNL     1      -2.717  11.302  18.089  0.00  0.00    +0.000 A 
ATOM      6  C   UNL     1      -3.559  11.252  16.988  0.00  0.00    +0.000 A 
ATOM      7  C   UNL     1      -3.291  10.428  15.901  0.00  0.00    +0.000 A 
ATOM      8 CL   UNL     1      -4.346  10.402  14.546  0.00  0.00    +0.000 Cl
ATOM      9  C   UNL     1      -2.180   9.610  15.927  0.00  0.00    +0.000 A 
ATOM     10  C   UNL     1      -1.346   9.636  17.045  0.00  0.00    +0.000 A 
ATOM     11  C   UNL     1      -1.544  10.508  18.147  0.00  0.00    +0.000 A 
ENDROOT
BRANCH   1  16
ATOM     12  C   UNL     1       2.910   6.408  18.540  0.00  0.00    +0.000 C 
ATOM     13  C   UNL     1       2.553   7.793  19.077  0.00  0.00    +0.000 C 
ATOM     14  C   UNL     1       1.386   7.655  20.055  0.00  0.00    +0.000 C 
ATOM     15  C   UNL     1       0.864   9.004  20.506  0.00  0.00    +0.000 C 
ATOM     16  N   UNL     1       0.478   9.800  19.348  0.00  0.00    +0.000 N 
ATOM     17  C   UNL     1       1.628  10.099  18.467  0.00  0.00    +0.000 C 
ATOM     18  C   UNL     1       2.201   8.768  17.941  0.00  0.00    +0.000 C 
ENDBRANCH   1  16
BRANCH   2  19
ATOM     19  S   UNL     1      -0.282  11.898  21.864  0.00  0.00    +0.000 S 
ATOM     20  O   UNL     1       0.005  10.672  22.581  0.00  0.00    +0.000 OA
ATOM     21  O   UNL     1       0.817  12.796  21.546  0.00  0.00    +0.000 OA
BRANCH  19  22
ATOM     22  C   UNL     1      -1.354  12.893  22.898  0.00  0.00    +0.000 A 
ATOM     23  C   UNL     1      -0.967  14.197  23.231  0.00  0.00    +0.000 A 
ATOM     24  C   UNL     1      -1.774  14.968  24.078  0.00  0.00    +0.000 A 
ATOM     25  C   UNL     1      -2.956  14.429  24.581  0.00  0.00    +0.000 A 
ATOM     26  F   UNL     1      -3.713  15.184  25.392  0.00  0.00    +0.000 F 
ATOM     27  C   UNL     1      -3.344  13.131  24.246  0.00  0.00    +0.000 A 
ATOM     28 CL   UNL     1      -4.801  12.465  24.878  0.00  0.00    +0.000 Cl
ATOM     29  C   UNL     1      -2.546  12.353  23.402  0.00  0.00    +0.000 A 
ENDBRANCH  19  22
ENDBRANCH   2  19
TORSDOF 3
ENDMDL
