MODEL 1
REMARK VINA RESULT:      -8.3      0.000      0.000
REMARK  Name = 
REMARK  4 active torsions:
REMARK  status: ('A' for Active; 'I' for Inactive)
REMARK    1  A    between atoms: C_2  and  C_12
REMARK    2  A    between atoms: N_3  and  N_4
REMARK    3  A    between atoms: C_5  and  C_6
REMARK    4  A    between atoms: N_26  and  C_27
REMARK                            x       y       z     vdW  Elec       q    Type
REMARK                         _______ _______ _______ _____ _____    ______ ____
ROOT
ATOM      1  C   UNL     1      -0.429  10.423  18.178  0.00  0.00    +0.000 A 
ATOM      2  N   UNL     1      -0.925  11.273  19.024  0.00  0.00    +0.000 NA
ATOM      3  C   UNL     1      -2.291  11.506  18.947  0.00  0.00    +0.000 A 
ATOM      4  C   UNL     1      -3.068  10.969  17.992  0.00  0.00    +0.000 A 
ATOM      5  C   UNL     1      -2.483  10.016  17.032  0.00  0.00    +0.000 A 
ATOM      6  O   UNL     1      -3.150   9.447  16.182  0.00  0.00    +0.000 OA
ATOM      7  N   UNL     1      -1.156   9.798  17.201  0.00  0.00    +0.000 N 
ATOM      8  C   UNL     1      -4.534  11.117  17.949  0.00  0.00    +0.000 C 
ATOM      9  C   UNL     1      -5.162  12.057  16.922  0.00  0.00    +0.000 C 
ATOM     10  C   UNL     1      -6.580  12.255  17.494  0.00  0.00    +0.000 C 
ATOM     11  C   UNL     1      -6.455  11.915  18.983  0.00  0.00    +0.000 C 
ATOM     12  N   UNL     1      -5.034  11.685  19.171  0.00  0.00    +0.000 N 
ATOM     13  C   UNL     1      -4.280  12.641  19.851  0.00  0.00    +0.000 C 
ATOM     14  O   UNL     1      -4.836  13.574  20.432  0.00  0.00    +0.000 OA
ATOM     15  N   UNL     1      -2.882  12.369  19.886  0.00  0.00    +0.000 N 
ATOM     16  H   UNL     1      -0.697   9.120  16.601  0.00  0.00    +0.000 HD
ENDROOT
BRANCH  15  17
ATOM     17  C   UNL     1      -2.183  12.867  21.045  0.00  0.00    +0.000 A 
ATOM     18  C   UNL     1      -2.305  12.213  22.281  0.00  0.00    +0.000 A 
ATOM     19  C   UNL     1      -1.810  12.801  23.451  0.00  0.00    +0.000 A 
ATOM     20  C   UNL     1      -1.167  14.035  23.396  0.00  0.00    +0.000 A 
ATOM     21  C   UNL     1      -1.003  14.676  22.172  0.00  0.00    +0.000 A 
ATOM     22  C   UNL     1      -1.509  14.096  21.006  0.00  0.00    +0.000 A 
ENDBRANCH  15  17
BRANCH   1  24
ATOM     23  O   UNL     1       1.841  10.850  18.573  0.00  0.00    +0.000 OA
ATOM     24  C   UNL     1       1.032  10.002  18.209  0.00  0.00    +0.000 C 
ATOM     25  N   UNL     1       1.293   8.704  17.812  0.00  0.00    +0.000 N 
ATOM     26  H   UNL     1       0.537   8.098  17.505  0.00  0.00    +0.000 HD
BRANCH  25  27
ATOM     27  N   UNL     1       2.591   8.279  17.819  0.00  0.00    +0.000 NA
ATOM     28  C   UNL     1       2.830   7.021  18.001  0.00  0.00    +0.000 C 
BRANCH  28  29
ATOM     29  C   UNL     1       4.229   6.521  18.009  0.00  0.00    +0.000 A 
ATOM     30  C   UNL     1       4.629   5.578  18.963  0.00  0.00    +0.000 A 
ATOM     31  C   UNL     1       5.951   5.130  19.000  0.00  0.00    +0.000 A 
ATOM     32  C   UNL     1       6.878   5.621  18.081  0.00  0.00    +0.000 A 
ATOM     33  C   UNL     1       6.479   6.548  17.117  0.00  0.00    +0.000 A 
ATOM     34  C   UNL     1       5.154   6.999  17.076  0.00  0.00    +0.000 A 
ENDBRANCH  28  29
ENDBRANCH  25  27
ENDBRANCH   1  24
TORSDOF 4
ENDMDL
MODEL 2
REMARK VINA RESULT:      -7.9      7.986     10.847
REMARK  Name = 
REMARK  4 active torsions:
REMARK  status: ('A' for Active; 'I' for Inactive)
REMARK    1  A    between atoms: C_2  and  C_12
REMARK    2  A    between atoms: N_3  and  N_4
REMARK    3  A    between atoms: C_5  and  C_6
REMARK    4  A    between atoms: N_26  and  C_27
REMARK                            x       y       z     vdW  Elec       q    Type
REMARK                         _______ _______ _______ _____ _____    ______ ____
ROOT
ATOM      1  C   UNL     1       9.353  11.504  18.273  0.00  0.00    +0.000 A 
ATOM      2  N   UNL     1       8.604  12.524  18.563  0.00  0.00    +0.000 NA
ATOM      3  C   UNL     1       9.124  13.779  18.281  0.00  0.00    +0.000 A 
ATOM      4  C   UNL     1      10.374  13.963  17.825  0.00  0.00    +0.000 A 
ATOM      5  C   UNL     1      11.213  12.792  17.515  0.00  0.00    +0.000 A 
ATOM      6  O   UNL     1      12.332  12.893  17.038  0.00  0.00    +0.000 OA
ATOM      7  N   UNL     1      10.620  11.599  17.766  0.00  0.00    +0.000 N 
ATOM      8  C   UNL     1      10.914  15.275  17.421  0.00  0.00    +0.000 C 
ATOM      9  C   UNL     1      11.913  15.986  18.332  0.00  0.00    +0.000 C 
ATOM     10  C   UNL     1      11.863  17.430  17.795  0.00  0.00    +0.000 C 
ATOM     11  C   UNL     1      10.515  17.536  17.075  0.00  0.00    +0.000 C 
ATOM     12  N   UNL     1       9.873  16.262  17.344  0.00  0.00    +0.000 N 
ATOM     13  C   UNL     1       8.809  16.220  18.246  0.00  0.00    +0.000 C 
ATOM     14  O   UNL     1       8.310  17.264  18.668  0.00  0.00    +0.000 OA
ATOM     15  N   UNL     1       8.323  14.909  18.517  0.00  0.00    +0.000 N 
ATOM     16  H   UNL     1      11.126  10.750  17.535  0.00  0.00    +0.000 HD
ENDROOT
BRANCH  15  17
ATOM     17  C   UNL     1       6.922  14.824  18.846  0.00  0.00    +0.000 A 
ATOM     18  C   UNL     1       5.956  14.783  17.828  0.00  0.00    +0.000 A 
ATOM     19  C   UNL     1       4.596  14.916  18.129  0.00  0.00    +0.000 A 
ATOM     20  C   UNL     1       4.183  15.066  19.451  0.00  0.00    +0.000 A 
ATOM     21  C   UNL     1       5.126  15.067  20.474  0.00  0.00    +0.000 A 
ATOM     22  C   UNL     1       6.484  14.949  20.173  0.00  0.00    +0.000 A 
ENDBRANCH  15  17
BRANCH   1  24
ATOM     23  O   UNL     1       9.112   9.532  19.519  0.00  0.00    +0.000 OA
ATOM     24  C   UNL     1       8.874  10.069  18.441  0.00  0.00    +0.000 C 
ATOM     25  N   UNL     1       8.226   9.520  17.351  0.00  0.00    +0.000 N 
ATOM     26  H   UNL     1       8.109  10.058  16.496  0.00  0.00    +0.000 HD
BRANCH  25  27
ATOM     27  N   UNL     1       7.781   8.233  17.451  0.00  0.00    +0.000 NA
ATOM     28  C   UNL     1       6.570   7.966  17.080  0.00  0.00    +0.000 C 
BRANCH  28  29
ATOM     29  C   UNL     1       6.052   6.576  17.169  0.00  0.00    +0.000 A 
ATOM     30  C   UNL     1       4.771   6.339  17.682  0.00  0.00    +0.000 A 
ATOM     31  C   UNL     1       4.291   5.034  17.803  0.00  0.00    +0.000 A 
ATOM     32  C   UNL     1       5.088   3.960  17.408  0.00  0.00    +0.000 A 
ATOM     33  C   UNL     1       6.359   4.193  16.879  0.00  0.00    +0.000 A 
ATOM     34  C   UNL     1       6.844   5.500  16.756  0.00  0.00    +0.000 A 
ENDBRANCH  28  29
ENDBRANCH  25  27
ENDBRANCH   1  24
TORSDOF 4
ENDMDL
MODEL 3
REMARK VINA RESULT:      -7.9      5.582      9.448
REMARK  Name = 
REMARK  4 active torsions:
REMARK  status: ('A' for Active; 'I' for Inactive)
REMARK    1  A    between atoms: C_2  and  C_12
REMARK    2  A    between atoms: N_3  and  N_4
REMARK    3  A    between atoms: C_5  and  C_6
REMARK    4  A    between atoms: N_26  and  C_27
REMARK                            x       y       z     vdW  Elec       q    Type
REMARK                         _______ _______ _______ _____ _____    ______ ____
ROOT
ATOM      1  C   UNL     1       6.827   7.302  17.918  0.00  0.00    +0.000 A 
ATOM      2  N   UNL     1       5.537   7.371  18.041  0.00  0.00    +0.000 NA
ATOM      3  C   UNL     1       4.857   6.168  18.174  0.00  0.00    +0.000 A 
ATOM      4  C   UNL     1       5.466   4.975  18.082  0.00  0.00    +0.000 A 
ATOM      5  C   UNL     1       6.930   4.917  17.928  0.00  0.00    +0.000 A 
ATOM      6  O   UNL     1       7.548   3.864  17.903  0.00  0.00    +0.000 OA
ATOM      7  N   UNL     1       7.532   6.130  17.859  0.00  0.00    +0.000 N 
ATOM      8  C   UNL     1       4.787   3.688  18.320  0.00  0.00    +0.000 C 
ATOM      9  C   UNL     1       4.438   2.794  17.132  0.00  0.00    +0.000 C 
ATOM     10  C   UNL     1       3.395   1.839  17.746  0.00  0.00    +0.000 C 
ATOM     11  C   UNL     1       2.848   2.585  18.967  0.00  0.00    +0.000 C 
ATOM     12  N   UNL     1       3.485   3.888  18.896  0.00  0.00    +0.000 N 
ATOM     13  C   UNL     1       2.722   4.993  18.517  0.00  0.00    +0.000 C 
ATOM     14  O   UNL     1       1.498   4.899  18.419  0.00  0.00    +0.000 OA
ATOM     15  N   UNL     1       3.467   6.198  18.376  0.00  0.00    +0.000 N 
ATOM     16  H   UNL     1       8.545   6.165  17.795  0.00  0.00    +0.000 HD
ENDROOT
BRANCH  15  17
ATOM     17  C   UNL     1       2.739   7.412  18.653  0.00  0.00    +0.000 A 
ATOM     18  C   UNL     1       2.175   7.625  19.921  0.00  0.00    +0.000 A 
ATOM     19  C   UNL     1       1.293   8.690  20.139  0.00  0.00    +0.000 A 
ATOM     20  C   UNL     1       0.983   9.566  19.102  0.00  0.00    +0.000 A 
ATOM     21  C   UNL     1       1.566   9.391  17.851  0.00  0.00    +0.000 A 
ATOM     22  C   UNL     1       2.436   8.321  17.629  0.00  0.00    +0.000 A 
ENDBRANCH  15  17
BRANCH   1  24
ATOM     23  O   UNL     1       7.503   9.317  16.929  0.00  0.00    +0.000 OA
ATOM     24  C   UNL     1       7.707   8.542  17.859  0.00  0.00    +0.000 C 
ATOM     25  N   UNL     1       8.652   8.657  18.861  0.00  0.00    +0.000 N 
ATOM     26  H   UNL     1       8.744   7.932  19.568  0.00  0.00    +0.000 HD
BRANCH  25  27
ATOM     27  N   UNL     1       9.469   9.750  18.849  0.00  0.00    +0.000 NA
ATOM     28  C   UNL     1       9.357  10.618  19.802  0.00  0.00    +0.000 C 
BRANCH  28  29
ATOM     29  C   UNL     1      10.232  11.818  19.826  0.00  0.00    +0.000 A 
ATOM     30  C   UNL     1       9.930  12.888  20.677  0.00  0.00    +0.000 A 
ATOM     31  C   UNL     1      10.726  14.034  20.680  0.00  0.00    +0.000 A 
ATOM     32  C   UNL     1      11.831  14.115  19.833  0.00  0.00    +0.000 A 
ATOM     33  C   UNL     1      12.147  13.043  18.995  0.00  0.00    +0.000 A 
ATOM     34  C   UNL     1      11.351  11.892  18.990  0.00  0.00    +0.000 A 
ENDBRANCH  28  29
ENDBRANCH  25  27
ENDBRANCH   1  24
TORSDOF 4
ENDMDL
MODEL 4
REMARK VINA RESULT:      -7.7      3.923      5.302
REMARK  Name = 
REMARK  4 active torsions:
REMARK  status: ('A' for Active; 'I' for Inactive)
REMARK    1  A    between atoms: C_2  and  C_12
REMARK    2  A    between atoms: N_3  and  N_4
REMARK    3  A    between atoms: C_5  and  C_6
REMARK    4  A    between atoms: N_26  and  C_27
REMARK                            x       y       z     vdW  Elec       q    Type
REMARK                         _______ _______ _______ _____ _____    ______ ____
ROOT
ATOM      1  C   UNL     1       0.648  10.334  20.763  0.00  0.00    +0.000 A 
ATOM      2  N   UNL     1       1.034  11.527  20.430  0.00  0.00    +0.000 NA
ATOM      3  C   UNL     1       0.501  12.581  21.159  0.00  0.00    +0.000 A 
ATOM      4  C   UNL     1      -0.443  12.412  22.099  0.00  0.00    +0.000 A 
ATOM      5  C   UNL     1      -0.877  11.049  22.453  0.00  0.00    +0.000 A 
ATOM      6  O   UNL     1      -1.684  10.827  23.343  0.00  0.00    +0.000 OA
ATOM      7  N   UNL     1      -0.276  10.068  21.737  0.00  0.00    +0.000 N 
ATOM      8  C   UNL     1      -0.949  13.499  22.957  0.00  0.00    +0.000 C 
ATOM      9  C   UNL     1      -2.338  14.076  22.692  0.00  0.00    +0.000 C 
ATOM     10  C   UNL     1      -2.283  15.409  23.464  0.00  0.00    +0.000 C 
ATOM     11  C   UNL     1      -0.790  15.725  23.599  0.00  0.00    +0.000 C 
ATOM     12  N   UNL     1      -0.141  14.680  22.829  0.00  0.00    +0.000 N 
ATOM     13  C   UNL     1       0.425  15.003  21.595  0.00  0.00    +0.000 C 
ATOM     14  O   UNL     1       0.528  16.180  21.247  0.00  0.00    +0.000 OA
ATOM     15  N   UNL     1       0.940  13.886  20.877  0.00  0.00    +0.000 N 
ATOM     16  H   UNL     1      -0.497   9.102  21.958  0.00  0.00    +0.000 HD
ENDROOT
BRANCH  15  17
ATOM     17  C   UNL     1       2.059  14.169  20.012  0.00  0.00    +0.000 A 
ATOM     18  C   UNL     1       3.345  14.335  20.548  0.00  0.00    +0.000 A 
ATOM     19  C   UNL     1       4.393  14.817  19.755  0.00  0.00    +0.000 A 
ATOM     20  C   UNL     1       4.173  15.116  18.412  0.00  0.00    +0.000 A 
ATOM     21  C   UNL     1       2.913  14.918  17.856  0.00  0.00    +0.000 A 
ATOM     22  C   UNL     1       1.864  14.450  18.651  0.00  0.00    +0.000 A 
ENDBRANCH  15  17
BRANCH   1  24
ATOM     23  O   UNL     1       1.303   9.087  18.888  0.00  0.00    +0.000 OA
ATOM     24  C   UNL     1       1.221   9.083  20.113  0.00  0.00    +0.000 C 
ATOM     25  N   UNL     1       1.580   8.066  20.978  0.00  0.00    +0.000 N 
ATOM     26  H   UNL     1       1.441   8.169  21.980  0.00  0.00    +0.000 HD
BRANCH  25  27
ATOM     27  N   UNL     1       2.096   6.921  20.443  0.00  0.00    +0.000 NA
ATOM     28  C   UNL     1       1.485   5.803  20.668  0.00  0.00    +0.000 C 
BRANCH  28  29
ATOM     29  C   UNL     1       2.013   4.536  20.098  0.00  0.00    +0.000 A 
ATOM     30  C   UNL     1       1.187   3.408  20.016  0.00  0.00    +0.000 A 
ATOM     31  C   UNL     1       1.685   2.205  19.515  0.00  0.00    +0.000 A 
ATOM     32  C   UNL     1       3.011   2.124  19.091  0.00  0.00    +0.000 A 
ATOM     33  C   UNL     1       3.833   3.251  19.154  0.00  0.00    +0.000 A 
ATOM     34  C   UNL     1       3.337   4.460  19.655  0.00  0.00    +0.000 A 
ENDBRANCH  28  29
ENDBRANCH  25  27
ENDBRANCH   1  24
TORSDOF 4
ENDMDL
MODEL 5
REMARK VINA RESULT:      -7.7      3.371      4.507
REMARK  Name = 
REMARK  4 active torsions:
REMARK  status: ('A' for Active; 'I' for Inactive)
REMARK    1  A    between atoms: C_2  and  C_12
REMARK    2  A    between atoms: N_3  and  N_4
REMARK    3  A    between atoms: C_5  and  C_6
REMARK    4  A    between atoms: N_26  and  C_27
REMARK                            x       y       z     vdW  Elec       q    Type
REMARK                         _______ _______ _______ _____ _____    ______ ____
ROOT
ATOM      1  C   UNL     1       0.585  11.003  20.166  0.00  0.00    +0.000 A 
ATOM      2  N   UNL     1       0.409  12.286  20.079  0.00  0.00    +0.000 NA
ATOM      3  C   UNL     1      -0.273  12.894  21.124  0.00  0.00    +0.000 A 
ATOM      4  C   UNL     1      -0.820  12.201  22.136  0.00  0.00    +0.000 A 
ATOM      5  C   UNL     1      -0.621  10.743  22.209  0.00  0.00    +0.000 A 
ATOM      6  O   UNL     1      -1.038  10.067  23.136  0.00  0.00    +0.000 OA
ATOM      7  N   UNL     1       0.099  10.227  21.182  0.00  0.00    +0.000 N 
ATOM      8  C   UNL     1      -1.458  12.828  23.308  0.00  0.00    +0.000 C 
ATOM      9  C   UNL     1      -2.981  12.815  23.428  0.00  0.00    +0.000 C 
ATOM     10  C   UNL     1      -3.228  13.909  24.486  0.00  0.00    +0.000 C 
ATOM     11  C   UNL     1      -1.973  14.787  24.446  0.00  0.00    +0.000 C 
ATOM     12  N   UNL     1      -1.200  14.241  23.345  0.00  0.00    +0.000 N 
ATOM     13  C   UNL     1      -1.121  14.963  22.153  0.00  0.00    +0.000 C 
ATOM     14  O   UNL     1      -1.548  16.117  22.095  0.00  0.00    +0.000 OA
ATOM     15  N   UNL     1      -0.430  14.290  21.105  0.00  0.00    +0.000 N 
ATOM     16  H   UNL     1       0.311   9.234  21.191  0.00  0.00    +0.000 HD
ENDROOT
BRANCH  15  17
ATOM     17  C   UNL     1       0.251  15.145  20.165  0.00  0.00    +0.000 A 
ATOM     18  C   UNL     1       1.537  15.630  20.451  0.00  0.00    +0.000 A 
ATOM     19  C   UNL     1       2.118  16.623  19.654  0.00  0.00    +0.000 A 
ATOM     20  C   UNL     1       1.433  17.125  18.549  0.00  0.00    +0.000 A 
ATOM     21  C   UNL     1       0.175  16.623  18.229  0.00  0.00    +0.000 A 
ATOM     22  C   UNL     1      -0.411  15.642  19.033  0.00  0.00    +0.000 A 
ENDBRANCH  15  17
BRANCH   1  24
ATOM     23  O   UNL     1       1.884  10.867  18.219  0.00  0.00    +0.000 OA
ATOM     24  C   UNL     1       1.394  10.222  19.141  0.00  0.00    +0.000 C 
ATOM     25  N   UNL     1       1.484   8.860  19.357  0.00  0.00    +0.000 N 
ATOM     26  H   UNL     1       1.011   8.432  20.148  0.00  0.00    +0.000 HD
BRANCH  25  27
ATOM     27  N   UNL     1       2.196   8.114  18.462  0.00  0.00    +0.000 NA
ATOM     28  C   UNL     1       2.741   7.013  18.869  0.00  0.00    +0.000 C 
BRANCH  28  29
ATOM     29  C   UNL     1       3.520   6.172  17.923  0.00  0.00    +0.000 A 
ATOM     30  C   UNL     1       4.464   6.765  17.076  0.00  0.00    +0.000 A 
ATOM     31  C   UNL     1       5.174   5.987  16.159  0.00  0.00    +0.000 A 
ATOM     32  C   UNL     1       4.945   4.614  16.087  0.00  0.00    +0.000 A 
ATOM     33  C   UNL     1       4.016   4.016  16.943  0.00  0.00    +0.000 A 
ATOM     34  C   UNL     1       3.303   4.792  17.864  0.00  0.00    +0.000 A 
ENDBRANCH  28  29
ENDBRANCH  25  27
ENDBRANCH   1  24
TORSDOF 4
ENDMDL
MODEL 6
REMARK VINA RESULT:      -7.7      8.579     10.989
REMARK  Name = 
REMARK  4 active torsions:
REMARK  status: ('A' for Active; 'I' for Inactive)
REMARK    1  A    between atoms: C_2  and  C_12
REMARK    2  A    between atoms: N_3  and  N_4
REMARK    3  A    between atoms: C_5  and  C_6
REMARK    4  A    between atoms: N_26  and  C_27
REMARK                            x       y       z     vdW  Elec       q    Type
REMARK                         _______ _______ _______ _____ _____    ______ ____
ROOT
ATOM      1  C   UNL     1       9.240  10.522  18.826  0.00  0.00    +0.000 A 
ATOM      2  N   UNL     1       8.999  11.133  19.946  0.00  0.00    +0.000 NA
ATOM      3  C   UNL     1       9.492  12.424  20.070  0.00  0.00    +0.000 A 
ATOM      4  C   UNL     1      10.267  13.001  19.137  0.00  0.00    +0.000 A 
ATOM      5  C   UNL     1      10.540  12.285  17.878  0.00  0.00    +0.000 A 
ATOM      6  O   UNL     1      11.182  12.781  16.966  0.00  0.00    +0.000 OA
ATOM      7  N   UNL     1       9.982  11.051  17.806  0.00  0.00    +0.000 N 
ATOM      8  C   UNL     1      10.717  14.403  19.197  0.00  0.00    +0.000 C 
ATOM      9  C   UNL     1      12.169  14.709  19.558  0.00  0.00    +0.000 C 
ATOM     10  C   UNL     1      12.097  16.201  19.939  0.00  0.00    +0.000 C 
ATOM     11  C   UNL     1      10.629  16.444  20.302  0.00  0.00    +0.000 C 
ATOM     12  N   UNL     1      10.027  15.125  20.231  0.00  0.00    +0.000 N 
ATOM     13  C   UNL     1       9.682  14.476  21.417  0.00  0.00    +0.000 C 
ATOM     14  O   UNL     1       9.721  15.079  22.490  0.00  0.00    +0.000 OA
ATOM     15  N   UNL     1       9.200  13.148  21.239  0.00  0.00    +0.000 N 
ATOM     16  H   UNL     1      10.095  10.519  16.949  0.00  0.00    +0.000 HD
ENDROOT
BRANCH  15  17
ATOM     17  C   UNL     1       8.250  12.696  22.226  0.00  0.00    +0.000 A 
ATOM     18  C   UNL     1       6.945  13.212  22.241  0.00  0.00    +0.000 A 
ATOM     19  C   UNL     1       6.085  12.947  23.313  0.00  0.00    +0.000 A 
ATOM     20  C   UNL     1       6.510  12.144  24.369  0.00  0.00    +0.000 A 
ATOM     21  C   UNL     1       7.787  11.592  24.348  0.00  0.00    +0.000 A 
ATOM     22  C   UNL     1       8.650  11.869  23.285  0.00  0.00    +0.000 A 
ENDBRANCH  15  17
BRANCH   1  24
ATOM     23  O   UNL     1       8.957   8.245  19.309  0.00  0.00    +0.000 OA
ATOM     24  C   UNL     1       8.681   9.141  18.516  0.00  0.00    +0.000 C 
ATOM     25  N   UNL     1       7.925   9.043  17.363  0.00  0.00    +0.000 N 
ATOM     26  H   UNL     1       7.785   9.856  16.769  0.00  0.00    +0.000 HD
BRANCH  25  27
ATOM     27  N   UNL     1       7.404   7.823  17.039  0.00  0.00    +0.000 NA
ATOM     28  C   UNL     1       6.178   7.568  17.361  0.00  0.00    +0.000 C 
BRANCH  28  29
ATOM     29  C   UNL     1       5.575   6.254  17.020  0.00  0.00    +0.000 A 
ATOM     30  C   UNL     1       6.105   5.493  15.970  0.00  0.00    +0.000 A 
ATOM     31  C   UNL     1       5.522   4.273  15.620  0.00  0.00    +0.000 A 
ATOM     32  C   UNL     1       4.410   3.808  16.320  0.00  0.00    +0.000 A 
ATOM     33  C   UNL     1       3.889   4.554  17.379  0.00  0.00    +0.000 A 
ATOM     34  C   UNL     1       4.471   5.777  17.733  0.00  0.00    +0.000 A 
ENDBRANCH  28  29
ENDBRANCH  25  27
ENDBRANCH   1  24
TORSDOF 4
ENDMDL
MODEL 7
REMARK VINA RESULT:      -7.7      2.780      4.563
REMARK  Name = 
REMARK  4 active torsions:
REMARK  status: ('A' for Active; 'I' for Inactive)
REMARK    1  A    between atoms: C_2  and  C_12
REMARK    2  A    between atoms: N_3  and  N_4
REMARK    3  A    between atoms: C_5  and  C_6
REMARK    4  A    between atoms: N_26  and  C_27
REMARK                            x       y       z     vdW  Elec       q    Type
REMARK                         _______ _______ _______ _____ _____    ______ ____
ROOT
ATOM      1  C   UNL     1       1.105  11.480  19.100  0.00  0.00    +0.000 A 
ATOM      2  N   UNL     1       0.257  12.067  19.887  0.00  0.00    +0.000 NA
ATOM      3  C   UNL     1       0.250  13.455  19.875  0.00  0.00    +0.000 A 
ATOM      4  C   UNL     1       1.133  14.180  19.169  0.00  0.00    +0.000 A 
ATOM      5  C   UNL     1       2.098  13.495  18.291  0.00  0.00    +0.000 A 
ATOM      6  O   UNL     1       2.882  14.100  17.577  0.00  0.00    +0.000 OA
ATOM      7  N   UNL     1       2.011  12.142  18.315  0.00  0.00    +0.000 N 
ATOM      8  C   UNL     1       1.083  15.650  19.057  0.00  0.00    +0.000 C 
ATOM      9  C   UNL     1       2.097  16.494  19.827  0.00  0.00    +0.000 C 
ATOM     10  C   UNL     1       1.439  17.887  19.800  0.00  0.00    +0.000 C 
ATOM     11  C   UNL     1      -0.049  17.616  19.554  0.00  0.00    +0.000 C 
ATOM     12  N   UNL     1      -0.150  16.168  19.583  0.00  0.00    +0.000 N 
ATOM     13  C   UNL     1      -0.745  15.555  20.686  0.00  0.00    +0.000 C 
ATOM     14  O   UNL     1      -1.331  16.231  21.532  0.00  0.00    +0.000 OA
ATOM     15  N   UNL     1      -0.696  14.132  20.662  0.00  0.00    +0.000 N 
ATOM     16  H   UNL     1       2.617  11.607  17.701  0.00  0.00    +0.000 HD
ENDROOT
BRANCH  15  17
ATOM     17  C   UNL     1      -1.789  13.464  21.325  0.00  0.00    +0.000 A 
ATOM     18  C   UNL     1      -3.045  13.372  20.705  0.00  0.00    +0.000 A 
ATOM     19  C   UNL     1      -4.162  12.921  21.417  0.00  0.00    +0.000 A 
ATOM     20  C   UNL     1      -4.033  12.533  22.749  0.00  0.00    +0.000 A 
ATOM     21  C   UNL     1      -2.786  12.579  23.365  0.00  0.00    +0.000 A 
ATOM     22  C   UNL     1      -1.674  13.043  22.658  0.00  0.00    +0.000 A 
ENDBRANCH  15  17
BRANCH   1  24
ATOM     23  O   UNL     1       0.589   9.305  19.803  0.00  0.00    +0.000 OA
ATOM     24  C   UNL     1       1.158   9.968  18.942  0.00  0.00    +0.000 C 
ATOM     25  N   UNL     1       1.853   9.502  17.842  0.00  0.00    +0.000 N 
ATOM     26  H   UNL     1       2.308  10.153  17.206  0.00  0.00    +0.000 HD
BRANCH  25  27
ATOM     27  N   UNL     1       1.933   8.152  17.658  0.00  0.00    +0.000 NA
ATOM     28  C   UNL     1       3.036   7.548  17.963  0.00  0.00    +0.000 C 
BRANCH  28  29
ATOM     29  C   UNL     1       3.157   6.079  17.782  0.00  0.00    +0.000 A 
ATOM     30  C   UNL     1       2.046   5.254  17.994  0.00  0.00    +0.000 A 
ATOM     31  C   UNL     1       2.161   3.869  17.861  0.00  0.00    +0.000 A 
ATOM     32  C   UNL     1       3.386   3.303  17.513  0.00  0.00    +0.000 A 
ATOM     33  C   UNL     1       4.493   4.123  17.283  0.00  0.00    +0.000 A 
ATOM     34  C   UNL     1       4.382   5.512  17.415  0.00  0.00    +0.000 A 
ENDBRANCH  28  29
ENDBRANCH  25  27
ENDBRANCH   1  24
TORSDOF 4
ENDMDL
MODEL 8
REMARK VINA RESULT:      -7.6      3.729      4.972
REMARK  Name = 
REMARK  4 active torsions:
REMARK  status: ('A' for Active; 'I' for Inactive)
REMARK    1  A    between atoms: C_2  and  C_12
REMARK    2  A    between atoms: N_3  and  N_4
REMARK    3  A    between atoms: C_5  and  C_6
REMARK    4  A    between atoms: N_26  and  C_27
REMARK                            x       y       z     vdW  Elec       q    Type
REMARK                         _______ _______ _______ _____ _____    ______ ____
ROOT
ATOM      1  C   UNL     1       0.614  10.241  21.141  0.00  0.00    +0.000 A 
ATOM      2  N   UNL     1       1.018  11.398  20.713  0.00  0.00    +0.000 NA
ATOM      3  C   UNL     1       0.422  12.516  21.280  0.00  0.00    +0.000 A 
ATOM      4  C   UNL     1      -0.593  12.434  22.155  0.00  0.00    +0.000 A 
ATOM      5  C   UNL     1      -1.047  11.112  22.618  0.00  0.00    +0.000 A 
ATOM      6  O   UNL     1      -1.921  10.974  23.460  0.00  0.00    +0.000 OA
ATOM      7  N   UNL     1      -0.384  10.068  22.062  0.00  0.00    +0.000 N 
ATOM      8  C   UNL     1      -1.173  13.600  22.847  0.00  0.00    +0.000 C 
ATOM      9  C   UNL     1      -2.540  14.126  22.412  0.00  0.00    +0.000 C 
ATOM     10  C   UNL     1      -2.555  15.534  23.038  0.00  0.00    +0.000 C 
ATOM     11  C   UNL     1      -1.079  15.884  23.256  0.00  0.00    +0.000 C 
ATOM     12  N   UNL     1      -0.364  14.772  22.657  0.00  0.00    +0.000 N 
ATOM     13  C   UNL     1       0.297  14.969  21.444  0.00  0.00    +0.000 C 
ATOM     14  O   UNL     1       0.422  16.103  20.981  0.00  0.00    +0.000 OA
ATOM     15  N   UNL     1       0.875  13.789  20.894  0.00  0.00    +0.000 N 
ATOM     16  H   UNL     1      -0.617   9.128  22.368  0.00  0.00    +0.000 HD
ENDROOT
BRANCH  15  17
ATOM     17  C   UNL     1       2.058  13.994  20.095  0.00  0.00    +0.000 A 
ATOM     18  C   UNL     1       3.290  14.265  20.710  0.00  0.00    +0.000 A 
ATOM     19  C   UNL     1       4.392  14.674  19.950  0.00  0.00    +0.000 A 
ATOM     20  C   UNL     1       4.283  14.793  18.567  0.00  0.00    +0.000 A 
ATOM     21  C   UNL     1       3.079  14.488  17.939  0.00  0.00    +0.000 A 
ATOM     22  C   UNL     1       1.975  14.094  18.698  0.00  0.00    +0.000 A 
ENDBRANCH  15  17
BRANCH   1  24
ATOM     23  O   UNL     1       1.368   8.055  21.523  0.00  0.00    +0.000 OA
ATOM     24  C   UNL     1       1.243   8.936  20.678  0.00  0.00    +0.000 C 
ATOM     25  N   UNL     1       1.616   8.887  19.348  0.00  0.00    +0.000 N 
ATOM     26  H   UNL     1       1.484   9.696  18.746  0.00  0.00    +0.000 HD
BRANCH  25  27
ATOM     27  N   UNL     1       2.189   7.738  18.884  0.00  0.00    +0.000 NA
ATOM     28  C   UNL     1       3.061   7.821  17.932  0.00  0.00    +0.000 C 
BRANCH  28  29
ATOM     29  C   UNL     1       3.711   6.593  17.405  0.00  0.00    +0.000 A 
ATOM     30  C   UNL     1       4.819   6.697  16.556  0.00  0.00    +0.000 A 
ATOM     31  C   UNL     1       5.413   5.549  16.028  0.00  0.00    +0.000 A 
ATOM     32  C   UNL     1       4.903   4.292  16.349  0.00  0.00    +0.000 A 
ATOM     33  C   UNL     1       3.809   4.183  17.211  0.00  0.00    +0.000 A 
ATOM     34  C   UNL     1       3.211   5.331  17.742  0.00  0.00    +0.000 A 
ENDBRANCH  28  29
ENDBRANCH  25  27
ENDBRANCH   1  24
TORSDOF 4
ENDMDL
MODEL 9
REMARK VINA RESULT:      -7.6      7.861     12.031
REMARK  Name = 
REMARK  4 active torsions:
REMARK  status: ('A' for Active; 'I' for Inactive)
REMARK    1  A    between atoms: C_2  and  C_12
REMARK    2  A    between atoms: N_3  and  N_4
REMARK    3  A    between atoms: C_5  and  C_6
REMARK    4  A    between atoms: N_26  and  C_27
REMARK                            x       y       z     vdW  Elec       q    Type
REMARK                         _______ _______ _______ _____ _____    ______ ____
ROOT
ATOM      1  C   UNL     1       6.306  15.345  19.182  0.00  0.00    +0.000 A 
ATOM      2  N   UNL     1       7.322  14.559  18.995  0.00  0.00    +0.000 NA
ATOM      3  C   UNL     1       8.558  15.167  18.824  0.00  0.00    +0.000 A 
ATOM      4  C   UNL     1       8.709  16.499  18.750  0.00  0.00    +0.000 A 
ATOM      5  C   UNL     1       7.541  17.375  18.951  0.00  0.00    +0.000 A 
ATOM      6  O   UNL     1       7.626  18.593  18.959  0.00  0.00    +0.000 OA
ATOM      7  N   UNL     1       6.378  16.712  19.165  0.00  0.00    +0.000 N 
ATOM      8  C   UNL     1      10.019  17.172  18.672  0.00  0.00    +0.000 C 
ATOM      9  C   UNL     1      10.476  17.770  17.343  0.00  0.00    +0.000 C 
ATOM     10  C   UNL     1      11.989  17.947  17.575  0.00  0.00    +0.000 C 
ATOM     11  C   UNL     1      12.333  16.968  18.702  0.00  0.00    +0.000 C 
ATOM     12  N   UNL     1      11.091  16.251  18.932  0.00  0.00    +0.000 N 
ATOM     13  C   UNL     1      10.987  14.927  18.505  0.00  0.00    +0.000 C 
ATOM     14  O   UNL     1      11.982  14.323  18.103  0.00  0.00    +0.000 OA
ATOM     15  N   UNL     1       9.696  14.354  18.684  0.00  0.00    +0.000 N 
ATOM     16  H   UNL     1       5.540  17.253  19.354  0.00  0.00    +0.000 HD
ENDROOT
BRANCH  15  17
ATOM     17  C   UNL     1       9.676  12.930  18.910  0.00  0.00    +0.000 A 
ATOM     18  C   UNL     1       9.274  12.056  17.888  0.00  0.00    +0.000 A 
ATOM     19  C   UNL     1       9.046  10.701  18.156  0.00  0.00    +0.000 A 
ATOM     20  C   UNL     1       9.242  10.199  19.440  0.00  0.00    +0.000 A 
ATOM     21  C   UNL     1       9.681  11.045  20.455  0.00  0.00    +0.000 A 
ATOM     22  C   UNL     1       9.894  12.400  20.190  0.00  0.00    +0.000 A 
ENDBRANCH  15  17
BRANCH   1  24
ATOM     23  O   UNL     1       4.661  14.543  20.646  0.00  0.00    +0.000 OA
ATOM     24  C   UNL     1       4.911  14.815  19.476  0.00  0.00    +0.000 C 
ATOM     25  N   UNL     1       4.073  14.690  18.384  0.00  0.00    +0.000 N 
ATOM     26  H   UNL     1       4.402  14.926  17.452  0.00  0.00    +0.000 HD
BRANCH  25  27
ATOM     27  N   UNL     1       2.810  14.215  18.595  0.00  0.00    +0.000 NA
ATOM     28  C   UNL     1       2.582  12.956  18.404  0.00  0.00    +0.000 C 
BRANCH  28  29
ATOM     29  C   UNL     1       1.222  12.402  18.630  0.00  0.00    +0.000 A 
ATOM     30  C   UNL     1       1.067  11.063  19.011  0.00  0.00    +0.000 A 
ATOM     31  C   UNL     1      -0.209  10.525  19.190  0.00  0.00    +0.000 A 
ATOM     32  C   UNL     1      -1.335  11.323  18.992  0.00  0.00    +0.000 A 
ATOM     33  C   UNL     1      -1.184  12.663  18.629  0.00  0.00    +0.000 A 
ATOM     34  C   UNL     1       0.093  13.207  18.449  0.00  0.00    +0.000 A 
ENDBRANCH  28  29
ENDBRANCH  25  27
ENDBRANCH   1  24
TORSDOF 4
ENDMDL
