MODEL 1
REMARK VINA RESULT:      -6.7      0.000      0.000
REMARK  Name = 
REMARK  14 active torsions:
REMARK  status: ('A' for Active; 'I' for Inactive)
REMARK    1  A    between atoms: C_1  and  O_2
REMARK    2  A    between atoms: O_2  and  C_3
REMARK    3  A    between atoms: C_8  and  O_9
REMARK    4  A    between atoms: O_9  and  C_10
REMARK    5  A    between atoms: C_10  and  C_11
REMARK    6  A    between atoms: C_11  and  N_12
REMARK    7  A    between atoms: N_12  and  C_13
REMARK    8  A    between atoms: C_13  and  C_14
REMARK    9  A    between atoms: C_14  and  O_15
REMARK   10  A    between atoms: C_14  and  C_16
REMARK   11  A    between atoms: C_16  and  O_17
REMARK   12  A    between atoms: O_17  and  C_18
REMARK   13  A    between atoms: C_23  and  O_24
REMARK   14  A    between atoms: O_24  and  C_25
REMARK                            x       y       z     vdW  Elec       q    Type
REMARK                         _______ _______ _______ _____ _____    ______ ____
ROOT
ATOM      1  C   UNL     1       6.107   6.911  17.424  0.00  0.00    +0.000 C 
ENDROOT
BRANCH   1   2
ATOM      2  N   UNL     1       7.210   7.809  17.004  0.00  0.00    +0.000 NA
ATOM      3  H   UNL     1       7.770   7.366  16.273  0.00  0.00    +0.000 HD
BRANCH   2   4
ATOM      4  C   UNL     1       8.144   8.128  18.116  0.00  0.00    +0.000 C 
BRANCH   4   5
ATOM      5  C   UNL     1       8.511   9.620  18.151  0.00  0.00    +0.000 C 
BRANCH   5   6
ATOM      6  O   UNL     1       9.072  10.071  19.375  0.00  0.00    +0.000 OA
BRANCH   6  12
ATOM      7  C   UNL     1      10.470  11.984  20.239  0.00  0.00    +0.000 A 
ATOM      8  C   UNL     1      11.453  12.928  19.906  0.00  0.00    +0.000 A 
ATOM      9  C   UNL     1      11.878  13.082  18.590  0.00  0.00    +0.000 A 
ATOM     10  C   UNL     1      11.344  12.269  17.592  0.00  0.00    +0.000 A 
ATOM     11  C   UNL     1      10.417  11.281  17.921  0.00  0.00    +0.000 A 
ATOM     12  C   UNL     1       9.976  11.112  19.242  0.00  0.00    +0.000 A 
BRANCH   7  14
ATOM     13  C   UNL     1       8.946  12.700  21.915  0.00  0.00    +0.000 C 
ATOM     14  O   UNL     1      10.055  11.879  21.543  0.00  0.00    +0.000 OA
ENDBRANCH   7  14
ENDBRANCH   6  12
ENDBRANCH   5   6
ENDBRANCH   4   5
ENDBRANCH   2   4
ENDBRANCH   1   2
BRANCH   1  15
ATOM     15  C   UNL     1       5.301   6.288  16.247  0.00  0.00    +0.000 C 
BRANCH  15  16
ATOM     16  O   UNL     1       6.182   5.756  15.264  0.00  0.00    +0.000 OA
ATOM     17  H   UNL     1       5.619   5.273  14.629  0.00  0.00    +0.000 HD
ENDBRANCH  15  16
BRANCH  15  18
ATOM     18  C   UNL     1       4.353   5.207  16.792  0.00  0.00    +0.000 C 
BRANCH  18  19
ATOM     19  O   UNL     1       4.614   4.822  18.153  0.00  0.00    +0.000 OA
BRANCH  19  20
ATOM     20  C   UNL     1       3.447   4.681  18.881  0.00  0.00    +0.000 A 
ATOM     21  C   UNL     1       3.014   5.714  19.740  0.00  0.00    +0.000 A 
ATOM     22  C   UNL     1       1.883   5.578  20.546  0.00  0.00    +0.000 A 
ATOM     23  C   UNL     1       1.128   4.421  20.466  0.00  0.00    +0.000 A 
ATOM     24  C   UNL     1       1.506   3.416  19.578  0.00  0.00    +0.000 A 
ATOM     25  C   UNL     1       2.658   3.524  18.777  0.00  0.00    +0.000 A 
BRANCH  25  26
ATOM     26  O   UNL     1       2.825   2.410  18.003  0.00  0.00    +0.000 OA
ATOM     27  C   UNL     1       3.670   1.365  18.447  0.00  0.00    +0.000 C 
ENDBRANCH  25  26
ENDBRANCH  19  20
ENDBRANCH  18  19
ENDBRANCH  15  18
ENDBRANCH   1  15
TORSDOF 12
ENDMDL
MODEL 2
REMARK VINA RESULT:      -6.6      5.004      7.516
REMARK  Name = 
REMARK  14 active torsions:
REMARK  status: ('A' for Active; 'I' for Inactive)
REMARK    1  A    between atoms: C_1  and  O_2
REMARK    2  A    between atoms: O_2  and  C_3
REMARK    3  A    between atoms: C_8  and  O_9
REMARK    4  A    between atoms: O_9  and  C_10
REMARK    5  A    between atoms: C_10  and  C_11
REMARK    6  A    between atoms: C_11  and  N_12
REMARK    7  A    between atoms: N_12  and  C_13
REMARK    8  A    between atoms: C_13  and  C_14
REMARK    9  A    between atoms: C_14  and  O_15
REMARK   10  A    between atoms: C_14  and  C_16
REMARK   11  A    between atoms: C_16  and  O_17
REMARK   12  A    between atoms: O_17  and  C_18
REMARK   13  A    between atoms: C_23  and  O_24
REMARK   14  A    between atoms: O_24  and  C_25
REMARK                            x       y       z     vdW  Elec       q    Type
REMARK                         _______ _______ _______ _____ _____    ______ ____
ROOT
ATOM      1  C   UNL     1       0.819   3.065  19.872  0.00  0.00    +0.000 C 
ENDROOT
BRANCH   1   2
ATOM      2  N   UNL     1       1.232   3.449  18.501  0.00  0.00    +0.000 NA
ATOM      3  H   UNL     1       0.427   3.443  17.872  0.00  0.00    +0.000 HD
BRANCH   2   4
ATOM      4  C   UNL     1       2.229   2.512  17.919  0.00  0.00    +0.000 C 
BRANCH   4   5
ATOM      5  C   UNL     1       3.452   3.249  17.352  0.00  0.00    +0.000 C 
BRANCH   5   6
ATOM      6  O   UNL     1       4.630   3.150  18.139  0.00  0.00    +0.000 OA
BRANCH   6  12
ATOM      7  C   UNL     1       6.263   4.418  16.693  0.00  0.00    +0.000 A 
ATOM      8  C   UNL     1       7.119   5.527  16.633  0.00  0.00    +0.000 A 
ATOM      9  C   UNL     1       7.367   6.299  17.763  0.00  0.00    +0.000 A 
ATOM     10  C   UNL     1       6.737   5.987  18.966  0.00  0.00    +0.000 A 
ATOM     11  C   UNL     1       5.831   4.928  19.023  0.00  0.00    +0.000 A 
ATOM     12  C   UNL     1       5.569   4.138  17.893  0.00  0.00    +0.000 A 
BRANCH   7  14
ATOM     13  C   UNL     1       5.858   4.389  14.352  0.00  0.00    +0.000 C 
ATOM     14  O   UNL     1       6.062   3.662  15.565  0.00  0.00    +0.000 OA
ENDBRANCH   7  14
ENDBRANCH   6  12
ENDBRANCH   5   6
ENDBRANCH   4   5
ENDBRANCH   2   4
ENDBRANCH   1   2
BRANCH   1  15
ATOM     15  C   UNL     1       1.523   3.866  21.005  0.00  0.00    +0.000 C 
BRANCH  15  16
ATOM     16  O   UNL     1       2.362   3.011  21.775  0.00  0.00    +0.000 OA
ATOM     17  H   UNL     1       3.196   2.927  21.273  0.00  0.00    +0.000 HD
ENDBRANCH  15  16
BRANCH  15  18
ATOM     18  C   UNL     1       2.320   5.027  20.391  0.00  0.00    +0.000 C 
BRANCH  18  19
ATOM     19  O   UNL     1       1.927   6.329  20.861  0.00  0.00    +0.000 OA
BRANCH  19  20
ATOM     20  C   UNL     1       1.959   7.273  19.851  0.00  0.00    +0.000 A 
ATOM     21  C   UNL     1       2.701   7.031  18.674  0.00  0.00    +0.000 A 
ATOM     22  C   UNL     1       2.817   7.988  17.666  0.00  0.00    +0.000 A 
ATOM     23  C   UNL     1       2.146   9.191  17.792  0.00  0.00    +0.000 A 
ATOM     24  C   UNL     1       1.359   9.423  18.919  0.00  0.00    +0.000 A 
ATOM     25  C   UNL     1       1.251   8.480  19.958  0.00  0.00    +0.000 A 
BRANCH  25  26
ATOM     26  O   UNL     1       0.438   8.939  20.956  0.00  0.00    +0.000 OA
ATOM     27  C   UNL     1       0.865  10.014  21.772  0.00  0.00    +0.000 C 
ENDBRANCH  25  26
ENDBRANCH  19  20
ENDBRANCH  18  19
ENDBRANCH  15  18
ENDBRANCH   1  15
TORSDOF 12
ENDMDL
MODEL 3
REMARK VINA RESULT:      -6.5      2.324      2.972
REMARK  Name = 
REMARK  14 active torsions:
REMARK  status: ('A' for Active; 'I' for Inactive)
REMARK    1  A    between atoms: C_1  and  O_2
REMARK    2  A    between atoms: O_2  and  C_3
REMARK    3  A    between atoms: C_8  and  O_9
REMARK    4  A    between atoms: O_9  and  C_10
REMARK    5  A    between atoms: C_10  and  C_11
REMARK    6  A    between atoms: C_11  and  N_12
REMARK    7  A    between atoms: N_12  and  C_13
REMARK    8  A    between atoms: C_13  and  C_14
REMARK    9  A    between atoms: C_14  and  O_15
REMARK   10  A    between atoms: C_14  and  C_16
REMARK   11  A    between atoms: C_16  and  O_17
REMARK   12  A    between atoms: O_17  and  C_18
REMARK   13  A    between atoms: C_23  and  O_24
REMARK   14  A    between atoms: O_24  and  C_25
REMARK                            x       y       z     vdW  Elec       q    Type
REMARK                         _______ _______ _______ _____ _____    ______ ____
ROOT
ATOM      1  C   UNL     1       7.736   6.653  18.147  0.00  0.00    +0.000 C 
ENDROOT
BRANCH   1   2
ATOM      2  N   UNL     1       8.479   7.757  18.800  0.00  0.00    +0.000 NA
ATOM      3  H   UNL     1       8.150   7.889  19.758  0.00  0.00    +0.000 HD
BRANCH   2   4
ATOM      4  C   UNL     1       8.296   9.060  18.107  0.00  0.00    +0.000 C 
BRANCH   4   5
ATOM      5  C   UNL     1       9.183  10.162  18.707  0.00  0.00    +0.000 C 
BRANCH   5   6
ATOM      6  O   UNL     1       9.110  11.417  18.045  0.00  0.00    +0.000 OA
BRANCH   6  12
ATOM      7  C   UNL     1       8.516  13.759  18.769  0.00  0.00    +0.000 A 
ATOM      8  C   UNL     1       8.657  14.715  19.786  0.00  0.00    +0.000 A 
ATOM      9  C   UNL     1       9.512  14.493  20.860  0.00  0.00    +0.000 A 
ATOM     10  C   UNL     1      10.217  13.294  20.947  0.00  0.00    +0.000 A 
ATOM     11  C   UNL     1      10.034  12.308  19.979  0.00  0.00    +0.000 A 
ATOM     12  C   UNL     1       9.176  12.514  18.888  0.00  0.00    +0.000 A 
BRANCH   7  14
ATOM     13  C   UNL     1       6.554  14.848  17.990  0.00  0.00    +0.000 C 
ATOM     14  O   UNL     1       7.685  14.022  17.709  0.00  0.00    +0.000 OA
ENDBRANCH   7  14
ENDBRANCH   6  12
ENDBRANCH   5   6
ENDBRANCH   4   5
ENDBRANCH   2   4
ENDBRANCH   1   2
BRANCH   1  15
ATOM     15  C   UNL     1       7.419   5.449  19.081  0.00  0.00    +0.000 C 
BRANCH  15  16
ATOM     16  O   UNL     1       8.097   5.589  20.325  0.00  0.00    +0.000 OA
ATOM     17  H   UNL     1       7.416   5.488  21.017  0.00  0.00    +0.000 HD
ENDBRANCH  15  16
BRANCH  15  18
ATOM     18  C   UNL     1       5.899   5.342  19.281  0.00  0.00    +0.000 C 
BRANCH  18  19
ATOM     19  O   UNL     1       5.420   3.999  19.470  0.00  0.00    +0.000 OA
BRANCH  19  20
ATOM     20  C   UNL     1       4.116   3.850  19.033  0.00  0.00    +0.000 A 
ATOM     21  C   UNL     1       3.041   4.011  19.933  0.00  0.00    +0.000 A 
ATOM     22  C   UNL     1       1.718   3.797  19.547  0.00  0.00    +0.000 A 
ATOM     23  C   UNL     1       1.440   3.469  18.232  0.00  0.00    +0.000 A 
ATOM     24  C   UNL     1       2.484   3.367  17.315  0.00  0.00    +0.000 A 
ATOM     25  C   UNL     1       3.827   3.554  17.692  0.00  0.00    +0.000 A 
BRANCH  25  26
ATOM     26  O   UNL     1       4.665   3.388  16.625  0.00  0.00    +0.000 OA
ATOM     27  C   UNL     1       5.034   4.506  15.840  0.00  0.00    +0.000 C 
ENDBRANCH  25  26
ENDBRANCH  19  20
ENDBRANCH  18  19
ENDBRANCH  15  18
ENDBRANCH   1  15
TORSDOF 12
ENDMDL
MODEL 4
REMARK VINA RESULT:      -6.5      5.039      7.562
REMARK  Name = 
REMARK  14 active torsions:
REMARK  status: ('A' for Active; 'I' for Inactive)
REMARK    1  A    between atoms: C_1  and  O_2
REMARK    2  A    between atoms: O_2  and  C_3
REMARK    3  A    between atoms: C_8  and  O_9
REMARK    4  A    between atoms: O_9  and  C_10
REMARK    5  A    between atoms: C_10  and  C_11
REMARK    6  A    between atoms: C_11  and  N_12
REMARK    7  A    between atoms: N_12  and  C_13
REMARK    8  A    between atoms: C_13  and  C_14
REMARK    9  A    between atoms: C_14  and  O_15
REMARK   10  A    between atoms: C_14  and  C_16
REMARK   11  A    between atoms: C_16  and  O_17
REMARK   12  A    between atoms: O_17  and  C_18
REMARK   13  A    between atoms: C_23  and  O_24
REMARK   14  A    between atoms: O_24  and  C_25
REMARK                            x       y       z     vdW  Elec       q    Type
REMARK                         _______ _______ _______ _____ _____    ______ ____
ROOT
ATOM      1  C   UNL     1       1.131   2.491  19.043  0.00  0.00    +0.000 C 
ENDROOT
BRANCH   1   2
ATOM      2  N   UNL     1       0.689   3.536  19.999  0.00  0.00    +0.000 NA
ATOM      3  H   UNL     1       0.568   4.429  19.518  0.00  0.00    +0.000 HD
BRANCH   2   4
ATOM      4  C   UNL     1       1.677   3.772  21.086  0.00  0.00    +0.000 C 
BRANCH   4   5
ATOM      5  C   UNL     1       2.181   5.223  21.102  0.00  0.00    +0.000 C 
BRANCH   5   6
ATOM      6  O   UNL     1       2.125   5.892  19.850  0.00  0.00    +0.000 OA
BRANCH   6  12
ATOM      7  C   UNL     1       1.793   8.211  18.916  0.00  0.00    +0.000 A 
ATOM      8  C   UNL     1       1.290   9.492  19.181  0.00  0.00    +0.000 A 
ATOM      9  C   UNL     1       0.841   9.833  20.454  0.00  0.00    +0.000 A 
ATOM     10  C   UNL     1       0.863   8.883  21.473  0.00  0.00    +0.000 A 
ATOM     11  C   UNL     1       1.298   7.585  21.204  0.00  0.00    +0.000 A 
ATOM     12  C   UNL     1       1.754   7.224  19.927  0.00  0.00    +0.000 A 
BRANCH   7  14
ATOM     13  C   UNL     1       3.645   7.610  17.554  0.00  0.00    +0.000 C 
ATOM     14  O   UNL     1       2.254   7.918  17.657  0.00  0.00    +0.000 OA
ENDBRANCH   7  14
ENDBRANCH   6  12
ENDBRANCH   5   6
ENDBRANCH   4   5
ENDBRANCH   2   4
ENDBRANCH   1   2
BRANCH   1  15
ATOM     15  C   UNL     1       1.883   3.038  17.795  0.00  0.00    +0.000 C 
BRANCH  15  16
ATOM     16  O   UNL     1       1.372   4.314  17.422  0.00  0.00    +0.000 OA
ATOM     17  H   UNL     1       0.413   4.192  17.289  0.00  0.00    +0.000 HD
ENDBRANCH  15  16
BRANCH  15  18
ATOM     18  C   UNL     1       3.389   3.104  18.093  0.00  0.00    +0.000 C 
BRANCH  18  19
ATOM     19  O   UNL     1       4.206   3.422  16.953  0.00  0.00    +0.000 OA
BRANCH  19  20
ATOM     20  C   UNL     1       5.223   4.300  17.276  0.00  0.00    +0.000 A 
ATOM     21  C   UNL     1       5.627   4.459  18.620  0.00  0.00    +0.000 A 
ATOM     22  C   UNL     1       6.597   5.389  18.993  0.00  0.00    +0.000 A 
ATOM     23  C   UNL     1       7.225   6.143  18.018  0.00  0.00    +0.000 A 
ATOM     24  C   UNL     1       6.884   5.956  16.680  0.00  0.00    +0.000 A 
ATOM     25  C   UNL     1       5.888   5.041  16.287  0.00  0.00    +0.000 A 
BRANCH  25  26
ATOM     26  O   UNL     1       5.724   5.048  14.930  0.00  0.00    +0.000 OA
ATOM     27  C   UNL     1       6.568   4.258  14.115  0.00  0.00    +0.000 C 
ENDBRANCH  25  26
ENDBRANCH  19  20
ENDBRANCH  18  19
ENDBRANCH  15  18
ENDBRANCH   1  15
TORSDOF 12
ENDMDL
MODEL 5
REMARK VINA RESULT:      -6.5      1.634      2.769
REMARK  Name = 
REMARK  14 active torsions:
REMARK  status: ('A' for Active; 'I' for Inactive)
REMARK    1  A    between atoms: C_1  and  O_2
REMARK    2  A    between atoms: O_2  and  C_3
REMARK    3  A    between atoms: C_8  and  O_9
REMARK    4  A    between atoms: O_9  and  C_10
REMARK    5  A    between atoms: C_10  and  C_11
REMARK    6  A    between atoms: C_11  and  N_12
REMARK    7  A    between atoms: N_12  and  C_13
REMARK    8  A    between atoms: C_13  and  C_14
REMARK    9  A    between atoms: C_14  and  O_15
REMARK   10  A    between atoms: C_14  and  C_16
REMARK   11  A    between atoms: C_16  and  O_17
REMARK   12  A    between atoms: O_17  and  C_18
REMARK   13  A    between atoms: C_23  and  O_24
REMARK   14  A    between atoms: O_24  and  C_25
REMARK                            x       y       z     vdW  Elec       q    Type
REMARK                         _______ _______ _______ _____ _____    ______ ____
ROOT
ATOM      1  C   UNL     1       6.505   6.935  17.515  0.00  0.00    +0.000 C 
ENDROOT
BRANCH   1   2
ATOM      2  N   UNL     1       7.577   7.879  17.115  0.00  0.00    +0.000 NA
ATOM      3  H   UNL     1       8.304   7.389  16.591  0.00  0.00    +0.000 HD
BRANCH   2   4
ATOM      4  C   UNL     1       8.249   8.510  18.282  0.00  0.00    +0.000 C 
BRANCH   4   5
ATOM      5  C   UNL     1       8.468  10.017  18.076  0.00  0.00    +0.000 C 
BRANCH   5   6
ATOM      6  O   UNL     1       9.802  10.462  18.277  0.00  0.00    +0.000 OA
BRANCH   6  12
ATOM      7  C   UNL     1      10.107  12.940  18.636  0.00  0.00    +0.000 A 
ATOM      8  C   UNL     1      10.112  13.968  19.590  0.00  0.00    +0.000 A 
ATOM      9  C   UNL     1      10.027  13.680  20.949  0.00  0.00    +0.000 A 
ATOM     10  C   UNL     1       9.905  12.358  21.370  0.00  0.00    +0.000 A 
ATOM     11  C   UNL     1       9.829  11.332  20.428  0.00  0.00    +0.000 A 
ATOM     12  C   UNL     1       9.915  11.603  19.054  0.00  0.00    +0.000 A 
BRANCH   7  14
ATOM     13  C   UNL     1      11.549  13.268  16.776  0.00  0.00    +0.000 C 
ATOM     14  O   UNL     1      10.222  13.257  17.306  0.00  0.00    +0.000 OA
ENDBRANCH   7  14
ENDBRANCH   6  12
ENDBRANCH   5   6
ENDBRANCH   4   5
ENDBRANCH   2   4
ENDBRANCH   1   2
BRANCH   1  15
ATOM     15  C   UNL     1       6.308   5.736  16.543  0.00  0.00    +0.000 C 
BRANCH  15  16
ATOM     16  O   UNL     1       7.451   5.574  15.710  0.00  0.00    +0.000 OA
ATOM     17  H   UNL     1       7.418   6.302  15.061  0.00  0.00    +0.000 HD
ENDBRANCH  15  16
BRANCH  15  18
ATOM     18  C   UNL     1       6.020   4.462  17.353  0.00  0.00    +0.000 C 
BRANCH  18  19
ATOM     19  O   UNL     1       5.237   4.679  18.540  0.00  0.00    +0.000 OA
BRANCH  19  20
ATOM     20  C   UNL     1       4.006   4.054  18.467  0.00  0.00    +0.000 A 
ATOM     21  C   UNL     1       3.888   2.676  18.749  0.00  0.00    +0.000 A 
ATOM     22  C   UNL     1       2.679   1.996  18.614  0.00  0.00    +0.000 A 
ATOM     23  C   UNL     1       1.544   2.696  18.244  0.00  0.00    +0.000 A 
ATOM     24  C   UNL     1       1.628   4.069  18.021  0.00  0.00    +0.000 A 
ATOM     25  C   UNL     1       2.846   4.768  18.127  0.00  0.00    +0.000 A 
BRANCH  25  26
ATOM     26  O   UNL     1       2.677   6.095  17.849  0.00  0.00    +0.000 OA
ATOM     27  C   UNL     1       2.590   7.030  18.907  0.00  0.00    +0.000 C 
ENDBRANCH  25  26
ENDBRANCH  19  20
ENDBRANCH  18  19
ENDBRANCH  15  18
ENDBRANCH   1  15
TORSDOF 12
ENDMDL
MODEL 6
REMARK VINA RESULT:      -6.5      5.134      7.285
REMARK  Name = 
REMARK  14 active torsions:
REMARK  status: ('A' for Active; 'I' for Inactive)
REMARK    1  A    between atoms: C_1  and  O_2
REMARK    2  A    between atoms: O_2  and  C_3
REMARK    3  A    between atoms: C_8  and  O_9
REMARK    4  A    between atoms: O_9  and  C_10
REMARK    5  A    between atoms: C_10  and  C_11
REMARK    6  A    between atoms: C_11  and  N_12
REMARK    7  A    between atoms: N_12  and  C_13
REMARK    8  A    between atoms: C_13  and  C_14
REMARK    9  A    between atoms: C_14  and  O_15
REMARK   10  A    between atoms: C_14  and  C_16
REMARK   11  A    between atoms: C_16  and  O_17
REMARK   12  A    between atoms: O_17  and  C_18
REMARK   13  A    between atoms: C_23  and  O_24
REMARK   14  A    between atoms: O_24  and  C_25
REMARK                            x       y       z     vdW  Elec       q    Type
REMARK                         _______ _______ _______ _____ _____    ______ ____
ROOT
ATOM      1  C   UNL     1       1.577   2.660  20.315  0.00  0.00    +0.000 C 
ENDROOT
BRANCH   1   2
ATOM      2  N   UNL     1       1.321   3.166  18.944  0.00  0.00    +0.000 NA
ATOM      3  H   UNL     1       0.323   3.126  18.732  0.00  0.00    +0.000 HD
BRANCH   2   4
ATOM      4  C   UNL     1       2.008   2.362  17.899  0.00  0.00    +0.000 C 
BRANCH   4   5
ATOM      5  C   UNL     1       3.009   3.201  17.090  0.00  0.00    +0.000 C 
BRANCH   5   6
ATOM      6  O   UNL     1       4.301   3.315  17.667  0.00  0.00    +0.000 OA
BRANCH   6  12
ATOM      7  C   UNL     1       5.957   5.171  17.247  0.00  0.00    +0.000 A 
ATOM      8  C   UNL     1       6.896   5.686  16.342  0.00  0.00    +0.000 A 
ATOM      9  C   UNL     1       7.037   5.139  15.071  0.00  0.00    +0.000 A 
ATOM     10  C   UNL     1       6.257   4.045  14.698  0.00  0.00    +0.000 A 
ATOM     11  C   UNL     1       5.368   3.481  15.613  0.00  0.00    +0.000 A 
ATOM     12  C   UNL     1       5.213   4.020  16.899  0.00  0.00    +0.000 A 
BRANCH   7  14
ATOM     13  C   UNL     1       6.867   5.477  19.420  0.00  0.00    +0.000 C 
ATOM     14  O   UNL     1       5.825   5.753  18.483  0.00  0.00    +0.000 OA
ENDBRANCH   7  14
ENDBRANCH   6  12
ENDBRANCH   5   6
ENDBRANCH   4   5
ENDBRANCH   2   4
ENDBRANCH   1   2
BRANCH   1  15
ATOM     15  C   UNL     1       2.879   3.206  20.970  0.00  0.00    +0.000 C 
BRANCH  15  16
ATOM     16  O   UNL     1       3.990   2.380  20.638  0.00  0.00    +0.000 OA
ATOM     17  H   UNL     1       4.539   2.901  20.021  0.00  0.00    +0.000 HD
ENDBRANCH  15  16
BRANCH  15  18
ATOM     18  C   UNL     1       3.108   4.658  20.521  0.00  0.00    +0.000 C 
BRANCH  18  19
ATOM     19  O   UNL     1       1.970   5.520  20.701  0.00  0.00    +0.000 OA
BRANCH  19  20
ATOM     20  C   UNL     1       2.018   6.618  19.863  0.00  0.00    +0.000 A 
ATOM     21  C   UNL     1       2.498   6.486  18.542  0.00  0.00    +0.000 A 
ATOM     22  C   UNL     1       2.631   7.584  17.692  0.00  0.00    +0.000 A 
ATOM     23  C   UNL     1       2.231   8.834  18.131  0.00  0.00    +0.000 A 
ATOM     24  C   UNL     1       1.697   8.973  19.410  0.00  0.00    +0.000 A 
ATOM     25  C   UNL     1       1.580   7.881  20.291  0.00  0.00    +0.000 A 
BRANCH  25  26
ATOM     26  O   UNL     1       1.043   8.270  21.487  0.00  0.00    +0.000 OA
ATOM     27  C   UNL     1      -0.218   8.912  21.516  0.00  0.00    +0.000 C 
ENDBRANCH  25  26
ENDBRANCH  19  20
ENDBRANCH  18  19
ENDBRANCH  15  18
ENDBRANCH   1  15
TORSDOF 12
ENDMDL
MODEL 7
REMARK VINA RESULT:      -6.5      1.641      1.967
REMARK  Name = 
REMARK  14 active torsions:
REMARK  status: ('A' for Active; 'I' for Inactive)
REMARK    1  A    between atoms: C_1  and  O_2
REMARK    2  A    between atoms: O_2  and  C_3
REMARK    3  A    between atoms: C_8  and  O_9
REMARK    4  A    between atoms: O_9  and  C_10
REMARK    5  A    between atoms: C_10  and  C_11
REMARK    6  A    between atoms: C_11  and  N_12
REMARK    7  A    between atoms: N_12  and  C_13
REMARK    8  A    between atoms: C_13  and  C_14
REMARK    9  A    between atoms: C_14  and  O_15
REMARK   10  A    between atoms: C_14  and  C_16
REMARK   11  A    between atoms: C_16  and  O_17
REMARK   12  A    between atoms: O_17  and  C_18
REMARK   13  A    between atoms: C_23  and  O_24
REMARK   14  A    between atoms: O_24  and  C_25
REMARK                            x       y       z     vdW  Elec       q    Type
REMARK                         _______ _______ _______ _____ _____    ______ ____
ROOT
ATOM      1  C   UNL     1       6.405   6.690  17.383  0.00  0.00    +0.000 C 
ENDROOT
BRANCH   1   2
ATOM      2  N   UNL     1       7.529   7.555  16.951  0.00  0.00    +0.000 NA
ATOM      3  H   UNL     1       8.213   7.011  16.421  0.00  0.00    +0.000 HD
BRANCH   2   4
ATOM      4  C   UNL     1       8.264   8.154  18.097  0.00  0.00    +0.000 C 
BRANCH   4   5
ATOM      5  C   UNL     1       8.140   9.685  18.125  0.00  0.00    +0.000 C 
BRANCH   5   6
ATOM      6  O   UNL     1       9.335  10.390  17.821  0.00  0.00    +0.000 OA
BRANCH   6  12
ATOM      7  C   UNL     1       8.993  12.796  18.496  0.00  0.00    +0.000 A 
ATOM      8  C   UNL     1       9.295  13.771  19.458  0.00  0.00    +0.000 A 
ATOM      9  C   UNL     1      10.218  13.516  20.467  0.00  0.00    +0.000 A 
ATOM     10  C   UNL     1      10.830  12.266  20.544  0.00  0.00    +0.000 A 
ATOM     11  C   UNL     1      10.487  11.266  19.635  0.00  0.00    +0.000 A 
ATOM     12  C   UNL     1       9.559  11.506  18.610  0.00  0.00    +0.000 A 
BRANCH   7  14
ATOM     13  C   UNL     1       7.240  14.209  17.736  0.00  0.00    +0.000 C 
ATOM     14  O   UNL     1       8.099  13.092  17.497  0.00  0.00    +0.000 OA
ENDBRANCH   7  14
ENDBRANCH   6  12
ENDBRANCH   5   6
ENDBRANCH   4   5
ENDBRANCH   2   4
ENDBRANCH   1   2
BRANCH   1  15
ATOM     15  C   UNL     1       6.401   5.272  16.741  0.00  0.00    +0.000 C 
BRANCH  15  16
ATOM     16  O   UNL     1       7.694   4.681  16.825  0.00  0.00    +0.000 OA
ATOM     17  H   UNL     1       8.298   5.285  16.351  0.00  0.00    +0.000 HD
ENDBRANCH  15  16
BRANCH  15  18
ATOM     18  C   UNL     1       5.341   4.400  17.433  0.00  0.00    +0.000 C 
BRANCH  18  19
ATOM     19  O   UNL     1       5.342   4.495  18.869  0.00  0.00    +0.000 OA
BRANCH  19  20
ATOM     20  C   UNL     1       4.059   4.542  19.382  0.00  0.00    +0.000 A 
ATOM     21  C   UNL     1       3.409   5.782  19.562  0.00  0.00    +0.000 A 
ATOM     22  C   UNL     1       2.146   5.875  20.145  0.00  0.00    +0.000 A 
ATOM     23  C   UNL     1       1.481   4.718  20.512  0.00  0.00    +0.000 A 
ATOM     24  C   UNL     1       2.081   3.481  20.285  0.00  0.00    +0.000 A 
ATOM     25  C   UNL     1       3.366   3.369  19.721  0.00  0.00    +0.000 A 
BRANCH  25  26
ATOM     26  O   UNL     1       3.742   2.060  19.612  0.00  0.00    +0.000 OA
ATOM     27  C   UNL     1       3.498   1.356  18.409  0.00  0.00    +0.000 C 
ENDBRANCH  25  26
ENDBRANCH  19  20
ENDBRANCH  18  19
ENDBRANCH  15  18
ENDBRANCH   1  15
TORSDOF 12
ENDMDL
MODEL 8
REMARK VINA RESULT:      -6.5      4.997      7.391
REMARK  Name = 
REMARK  14 active torsions:
REMARK  status: ('A' for Active; 'I' for Inactive)
REMARK    1  A    between atoms: C_1  and  O_2
REMARK    2  A    between atoms: O_2  and  C_3
REMARK    3  A    between atoms: C_8  and  O_9
REMARK    4  A    between atoms: O_9  and  C_10
REMARK    5  A    between atoms: C_10  and  C_11
REMARK    6  A    between atoms: C_11  and  N_12
REMARK    7  A    between atoms: N_12  and  C_13
REMARK    8  A    between atoms: C_13  and  C_14
REMARK    9  A    between atoms: C_14  and  O_15
REMARK   10  A    between atoms: C_14  and  C_16
REMARK   11  A    between atoms: C_16  and  O_17
REMARK   12  A    between atoms: O_17  and  C_18
REMARK   13  A    between atoms: C_23  and  O_24
REMARK   14  A    between atoms: O_24  and  C_25
REMARK                            x       y       z     vdW  Elec       q    Type
REMARK                         _______ _______ _______ _____ _____    ______ ____
ROOT
ATOM      1  C   UNL     1       2.292   2.053  20.684  0.00  0.00    +0.000 C 
ENDROOT
BRANCH   1   2
ATOM      2  N   UNL     1       1.946   2.033  19.242  0.00  0.00    +0.000 NA
ATOM      3  H   UNL     1       1.175   1.383  19.071  0.00  0.00    +0.000 HD
BRANCH   2   4
ATOM      4  C   UNL     1       3.076   1.581  18.388  0.00  0.00    +0.000 C 
BRANCH   4   5
ATOM      5  C   UNL     1       3.561   2.689  17.440  0.00  0.00    +0.000 C 
BRANCH   5   6
ATOM      6  O   UNL     1       4.521   3.576  17.995  0.00  0.00    +0.000 OA
BRANCH   6  12
ATOM      7  C   UNL     1       6.756   4.509  17.292  0.00  0.00    +0.000 A 
ATOM      8  C   UNL     1       7.532   4.928  16.201  0.00  0.00    +0.000 A 
ATOM      9  C   UNL     1       6.977   5.031  14.929  0.00  0.00    +0.000 A 
ATOM     10  C   UNL     1       5.643   4.685  14.727  0.00  0.00    +0.000 A 
ATOM     11  C   UNL     1       4.880   4.201  15.790  0.00  0.00    +0.000 A 
ATOM     12  C   UNL     1       5.422   4.092  17.079  0.00  0.00    +0.000 A 
BRANCH   7  14
ATOM     13  C   UNL     1       7.601   5.700  19.166  0.00  0.00    +0.000 C 
ATOM     14  O   UNL     1       7.328   4.446  18.538  0.00  0.00    +0.000 OA
ENDBRANCH   7  14
ENDBRANCH   6  12
ENDBRANCH   5   6
ENDBRANCH   4   5
ENDBRANCH   2   4
ENDBRANCH   1   2
BRANCH   1  15
ATOM     15  C   UNL     1       1.660   3.231  21.482  0.00  0.00    +0.000 C 
BRANCH  15  16
ATOM     16  O   UNL     1       2.537   3.662  22.517  0.00  0.00    +0.000 OA
ATOM     17  H   UNL     1       2.271   4.576  22.734  0.00  0.00    +0.000 HD
ENDBRANCH  15  16
BRANCH  15  18
ATOM     18  C   UNL     1       1.325   4.380  20.518  0.00  0.00    +0.000 C 
BRANCH  18  19
ATOM     19  O   UNL     1       1.700   5.684  20.996  0.00  0.00    +0.000 OA
BRANCH  19  20
ATOM     20  C   UNL     1       1.970   6.556  19.958  0.00  0.00    +0.000 A 
ATOM     21  C   UNL     1       2.670   6.110  18.816  0.00  0.00    +0.000 A 
ATOM     22  C   UNL     1       3.025   6.977  17.784  0.00  0.00    +0.000 A 
ATOM     23  C   UNL     1       2.637   8.303  17.847  0.00  0.00    +0.000 A 
ATOM     24  C   UNL     1       1.892   8.748  18.938  0.00  0.00    +0.000 A 
ATOM     25  C   UNL     1       1.547   7.894  20.002  0.00  0.00    +0.000 A 
BRANCH  25  26
ATOM     26  O   UNL     1       0.831   8.562  20.956  0.00  0.00    +0.000 OA
ATOM     27  C   UNL     1       1.466   8.973  22.152  0.00  0.00    +0.000 C 
ENDBRANCH  25  26
ENDBRANCH  19  20
ENDBRANCH  18  19
ENDBRANCH  15  18
ENDBRANCH   1  15
TORSDOF 12
ENDMDL
MODEL 9
REMARK VINA RESULT:      -6.4      1.826      3.151
REMARK  Name = 
REMARK  14 active torsions:
REMARK  status: ('A' for Active; 'I' for Inactive)
REMARK    1  A    between atoms: C_1  and  O_2
REMARK    2  A    between atoms: O_2  and  C_3
REMARK    3  A    between atoms: C_8  and  O_9
REMARK    4  A    between atoms: O_9  and  C_10
REMARK    5  A    between atoms: C_10  and  C_11
REMARK    6  A    between atoms: C_11  and  N_12
REMARK    7  A    between atoms: N_12  and  C_13
REMARK    8  A    between atoms: C_13  and  C_14
REMARK    9  A    between atoms: C_14  and  O_15
REMARK   10  A    between atoms: C_14  and  C_16
REMARK   11  A    between atoms: C_16  and  O_17
REMARK   12  A    between atoms: O_17  and  C_18
REMARK   13  A    between atoms: C_23  and  O_24
REMARK   14  A    between atoms: O_24  and  C_25
REMARK                            x       y       z     vdW  Elec       q    Type
REMARK                         _______ _______ _______ _____ _____    ______ ____
ROOT
ATOM      1  C   UNL     1       7.450   6.548  17.821  0.00  0.00    +0.000 C 
ENDROOT
BRANCH   1   2
ATOM      2  N   UNL     1       8.145   7.700  18.447  0.00  0.00    +0.000 NA
ATOM      3  H   UNL     1       7.668   7.978  19.307  0.00  0.00    +0.000 HD
BRANCH   2   4
ATOM      4  C   UNL     1       8.167   8.900  17.570  0.00  0.00    +0.000 C 
BRANCH   4   5
ATOM      5  C   UNL     1       8.454  10.187  18.360  0.00  0.00    +0.000 C 
BRANCH   5   6
ATOM      6  O   UNL     1       9.594  10.130  19.205  0.00  0.00    +0.000 OA
BRANCH   6  12
ATOM      7  C   UNL     1      10.895  12.289  19.125  0.00  0.00    +0.000 A 
ATOM      8  C   UNL     1      11.112  13.521  19.758  0.00  0.00    +0.000 A 
ATOM      9  C   UNL     1      10.534  13.799  20.993  0.00  0.00    +0.000 A 
ATOM     10  C   UNL     1       9.706  12.856  21.598  0.00  0.00    +0.000 A 
ATOM     11  C   UNL     1       9.428  11.655  20.946  0.00  0.00    +0.000 A 
ATOM     12  C   UNL     1      10.002  11.357  19.701  0.00  0.00    +0.000 A 
BRANCH   7  14
ATOM     13  C   UNL     1      12.174  13.143  17.314  0.00  0.00    +0.000 C 
ATOM     14  O   UNL     1      11.503  12.037  17.920  0.00  0.00    +0.000 OA
ENDBRANCH   7  14
ENDBRANCH   6  12
ENDBRANCH   5   6
ENDBRANCH   4   5
ENDBRANCH   2   4
ENDBRANCH   1   2
BRANCH   1  15
ATOM     15  C   UNL     1       7.632   5.199  18.577  0.00  0.00    +0.000 C 
BRANCH  15  16
ATOM     16  O   UNL     1       8.159   5.423  19.880  0.00  0.00    +0.000 OA
ATOM     17  H   UNL     1       8.291   6.388  19.956  0.00  0.00    +0.000 HD
ENDBRANCH  15  16
BRANCH  15  18
ATOM     18  C   UNL     1       6.286   4.461  18.637  0.00  0.00    +0.000 C 
BRANCH  18  19
ATOM     19  O   UNL     1       5.555   4.459  17.398  0.00  0.00    +0.000 OA
BRANCH  19  20
ATOM     20  C   UNL     1       4.197   4.296  17.600  0.00  0.00    +0.000 A 
ATOM     21  C   UNL     1       3.633   3.003  17.641  0.00  0.00    +0.000 A 
ATOM     22  C   UNL     1       2.259   2.801  17.769  0.00  0.00    +0.000 A 
ATOM     23  C   UNL     1       1.424   3.895  17.914  0.00  0.00    +0.000 A 
ATOM     24  C   UNL     1       1.969   5.176  17.938  0.00  0.00    +0.000 A 
ATOM     25  C   UNL     1       3.351   5.400  17.784  0.00  0.00    +0.000 A 
BRANCH  25  26
ATOM     26  O   UNL     1       3.639   6.736  17.827  0.00  0.00    +0.000 OA
ATOM     27  C   UNL     1       2.620   7.666  18.141  0.00  0.00    +0.000 C 
ENDBRANCH  25  26
ENDBRANCH  19  20
ENDBRANCH  18  19
ENDBRANCH  15  18
ENDBRANCH   1  15
TORSDOF 12
ENDMDL
