MODEL 1
REMARK VINA RESULT:      -8.3      0.000      0.000
REMARK  Name = 
REMARK  8 active torsions:
REMARK  status: ('A' for Active; 'I' for Inactive)
REMARK    1  A    between atoms: C_1  and  O_2
REMARK    2  A    between atoms: O_2  and  C_3
REMARK    3  A    between atoms: C_7  and  C_8
REMARK    4  A    between atoms: C_8  and  N_9
REMARK    5  A    between atoms: N_9  and  C_10
REMARK    6  A    between atoms: C_11  and  C_13
REMARK    7  A    between atoms: C_13  and  C_14
REMARK    8  A    between atoms: C_14  and  N_15
REMARK                            x       y       z     vdW  Elec       q    Type
REMARK                         _______ _______ _______ _____ _____    ______ ____
ROOT
ATOM      1  C   UNL     1       2.226   5.743  18.709  0.00  0.00    +0.000 C 
ENDROOT
BRANCH   1   4
ATOM      2  N   UNL     1       3.172   3.593  19.512  0.00  0.00    +0.000 N 
ATOM      3  C   UNL     1       3.382   2.574  20.537  0.00  0.00    +0.000 C 
ATOM      4  C   UNL     1       2.316   4.672  19.787  0.00  0.00    +0.000 C 
ATOM      5  O   UNL     1       1.665   4.752  20.830  0.00  0.00    +0.000 OA
BRANCH   2   6
ATOM      6  C   UNL     1       3.908   3.412  18.252  0.00  0.00    +0.000 C 
BRANCH   6  11
ATOM      7  C   UNL     1       6.829   5.321  16.608  0.00  0.00    +0.000 A 
ATOM      8  C   UNL     1       7.463   5.823  17.750  0.00  0.00    +0.000 A 
ATOM      9  C   UNL     1       6.932   5.580  19.010  0.00  0.00    +0.000 A 
ATOM     10  C   UNL     1       5.773   4.815  19.137  0.00  0.00    +0.000 A 
ATOM     11  C   UNL     1       5.117   4.294  18.005  0.00  0.00    +0.000 A 
ATOM     12  C   UNL     1       5.650   4.582  16.738  0.00  0.00    +0.000 A 
BRANCH   7  14
ATOM     13  C   UNL     1       7.079   4.899  14.281  0.00  0.00    +0.000 C 
ATOM     14  O   UNL     1       7.484   5.612  15.440  0.00  0.00    +0.000 OA
ENDBRANCH   7  14
ENDBRANCH   6  11
ENDBRANCH   2   6
ENDBRANCH   1   4
BRANCH   1  15
ATOM     15  C   UNL     1       2.626   7.158  19.144  0.00  0.00    +0.000 C 
BRANCH  15  16
ATOM     16  N   UNL     1       1.719   7.655  20.225  0.00  0.00    +0.000 N 
ATOM     17  C   UNL     1       1.067   8.862  20.057  0.00  0.00    +0.000 C 
ATOM     18  N   UNL     1       1.113   9.484  18.918  0.00  0.00    +0.000 NA
ATOM     19  S   UNL     1       0.413  10.948  18.993  0.00  0.00    +0.000 S 
ATOM     20  O   UNL     1       1.372  11.984  18.711  0.00  0.00    +0.000 OA
ATOM     21  O   UNL     1      -0.905  10.902  18.392  0.00  0.00    +0.000 OA
ATOM     22  C   UNL     1       0.167  10.914  20.710  0.00  0.00    +0.000 A 
ATOM     23  C   UNL     1      -0.318  11.954  21.479  0.00  0.00    +0.000 A 
ATOM     24  C   UNL     1      -0.812  11.616  22.729  0.00  0.00    +0.000 A 
ATOM     25  C   UNL     1      -0.822  10.263  23.132  0.00  0.00    +0.000 A 
ATOM     26  C   UNL     1      -0.213   9.252  22.354  0.00  0.00    +0.000 A 
ATOM     27  C   UNL     1       0.348   9.611  21.140  0.00  0.00    +0.000 A 
ATOM     28  H   UNL     1       2.104   7.496  21.155  0.00  0.00    +0.000 HD
ENDBRANCH  15  16
ENDBRANCH   1  15
TORSDOF 6
ENDMDL
MODEL 2
REMARK VINA RESULT:      -8.1      3.612      8.659
REMARK  Name = 
REMARK  8 active torsions:
REMARK  status: ('A' for Active; 'I' for Inactive)
REMARK    1  A    between atoms: C_1  and  O_2
REMARK    2  A    between atoms: O_2  and  C_3
REMARK    3  A    between atoms: C_7  and  C_8
REMARK    4  A    between atoms: C_8  and  N_9
REMARK    5  A    between atoms: N_9  and  C_10
REMARK    6  A    between atoms: C_11  and  C_13
REMARK    7  A    between atoms: C_13  and  C_14
REMARK    8  A    between atoms: C_14  and  N_15
REMARK                            x       y       z     vdW  Elec       q    Type
REMARK                         _______ _______ _______ _____ _____    ______ ____
ROOT
ATOM      1  C   UNL     1       1.628   9.557  18.210  0.00  0.00    +0.000 C 
ENDROOT
BRANCH   1   4
ATOM      2  N   UNL     1       0.087  10.395  19.966  0.00  0.00    +0.000 N 
ATOM      3  C   UNL     1      -0.549  10.309  21.278  0.00  0.00    +0.000 C 
ATOM      4  C   UNL     1       1.083   9.464  19.628  0.00  0.00    +0.000 C 
ATOM      5  O   UNL     1       1.505   8.626  20.427  0.00  0.00    +0.000 OA
BRANCH   2   6
ATOM      6  C   UNL     1      -0.393  11.463  19.077  0.00  0.00    +0.000 C 
BRANCH   6  11
ATOM      7  C   UNL     1      -2.705  10.339  16.202  0.00  0.00    +0.000 A 
ATOM      8  C   UNL     1      -3.922  10.863  16.651  0.00  0.00    +0.000 A 
ATOM      9  C   UNL     1      -3.992  11.526  17.869  0.00  0.00    +0.000 A 
ATOM     10  C   UNL     1      -2.839  11.686  18.637  0.00  0.00    +0.000 A 
ATOM     11  C   UNL     1      -1.600  11.172  18.208  0.00  0.00    +0.000 A 
ATOM     12  C   UNL     1      -1.559  10.473  16.990  0.00  0.00    +0.000 A 
BRANCH   7  14
ATOM     13  C   UNL     1      -3.930  10.028  14.188  0.00  0.00    +0.000 C 
ATOM     14  O   UNL     1      -2.781   9.743  14.970  0.00  0.00    +0.000 OA
ENDBRANCH   7  14
ENDBRANCH   6  11
ENDBRANCH   2   6
ENDBRANCH   1   4
BRANCH   1  15
ATOM     15  C   UNL     1       2.639   8.474  17.815  0.00  0.00    +0.000 C 
BRANCH  15  16
ATOM     16  N   UNL     1       2.118   7.114  18.157  0.00  0.00    +0.000 N 
ATOM     17  C   UNL     1       2.996   6.046  18.199  0.00  0.00    +0.000 C 
ATOM     18  N   UNL     1       4.275   6.239  18.099  0.00  0.00    +0.000 NA
ATOM     19  S   UNL     1       5.100   4.842  18.016  0.00  0.00    +0.000 S 
ATOM     20  O   UNL     1       5.805   4.743  16.765  0.00  0.00    +0.000 OA
ATOM     21  O   UNL     1       5.710   4.547  19.297  0.00  0.00    +0.000 OA
ATOM     22  C   UNL     1       3.690   3.837  17.904  0.00  0.00    +0.000 A 
ATOM     23  C   UNL     1       3.683   2.473  17.693  0.00  0.00    +0.000 A 
ATOM     24  C   UNL     1       2.516   1.804  18.028  0.00  0.00    +0.000 A 
ATOM     25  C   UNL     1       1.434   2.524  18.580  0.00  0.00    +0.000 A 
ATOM     26  C   UNL     1       1.451   3.934  18.672  0.00  0.00    +0.000 A 
ATOM     27  C   UNL     1       2.593   4.602  18.262  0.00  0.00    +0.000 A 
ATOM     28  H   UNL     1       1.221   6.921  17.713  0.00  0.00    +0.000 HD
ENDBRANCH  15  16
ENDBRANCH   1  15
TORSDOF 6
ENDMDL
MODEL 3
REMARK VINA RESULT:      -8.1      1.024      1.768
REMARK  Name = 
REMARK  8 active torsions:
REMARK  status: ('A' for Active; 'I' for Inactive)
REMARK    1  A    between atoms: C_1  and  O_2
REMARK    2  A    between atoms: O_2  and  C_3
REMARK    3  A    between atoms: C_7  and  C_8
REMARK    4  A    between atoms: C_8  and  N_9
REMARK    5  A    between atoms: N_9  and  C_10
REMARK    6  A    between atoms: C_11  and  C_13
REMARK    7  A    between atoms: C_13  and  C_14
REMARK    8  A    between atoms: C_14  and  N_15
REMARK                            x       y       z     vdW  Elec       q    Type
REMARK                         _______ _______ _______ _____ _____    ______ ____
ROOT
ATOM      1  C   UNL     1       2.027   5.334  19.121  0.00  0.00    +0.000 C 
ENDROOT
BRANCH   1   4
ATOM      2  N   UNL     1       3.158   3.211  18.509  0.00  0.00    +0.000 N 
ATOM      3  C   UNL     1       3.723   1.905  18.836  0.00  0.00    +0.000 C 
ATOM      4  C   UNL     1       2.501   3.942  19.512  0.00  0.00    +0.000 C 
ATOM      5  O   UNL     1       2.306   3.488  20.642  0.00  0.00    +0.000 OA
BRANCH   2   6
ATOM      6  C   UNL     1       3.345   3.675  17.126  0.00  0.00    +0.000 C 
BRANCH   6  11
ATOM      7  C   UNL     1       6.692   5.590  17.060  0.00  0.00    +0.000 A 
ATOM      8  C   UNL     1       7.147   5.239  15.784  0.00  0.00    +0.000 A 
ATOM      9  C   UNL     1       6.404   4.375  14.989  0.00  0.00    +0.000 A 
ATOM     10  C   UNL     1       5.192   3.873  15.459  0.00  0.00    +0.000 A 
ATOM     11  C   UNL     1       4.709   4.212  16.738  0.00  0.00    +0.000 A 
ATOM     12  C   UNL     1       5.493   5.058  17.539  0.00  0.00    +0.000 A 
BRANCH   7  14
ATOM     13  C   UNL     1       7.937   6.113  19.017  0.00  0.00    +0.000 C 
ATOM     14  O   UNL     1       7.511   6.474  17.713  0.00  0.00    +0.000 OA
ENDBRANCH   7  14
ENDBRANCH   6  11
ENDBRANCH   2   6
ENDBRANCH   1   4
BRANCH   1  15
ATOM     15  C   UNL     1       2.711   6.497  19.848  0.00  0.00    +0.000 C 
BRANCH  15  16
ATOM     16  N   UNL     1       1.754   7.177  20.776  0.00  0.00    +0.000 N 
ATOM     17  C   UNL     1       1.200   8.388  20.405  0.00  0.00    +0.000 C 
ATOM     18  N   UNL     1       1.380   8.858  19.208  0.00  0.00    +0.000 NA
ATOM     19  S   UNL     1       0.776  10.357  19.042  0.00  0.00    +0.000 S 
ATOM     20  O   UNL     1       1.822  11.293  18.724  0.00  0.00    +0.000 OA
ATOM     21  O   UNL     1      -0.488  10.308  18.336  0.00  0.00    +0.000 OA
ATOM     22  C   UNL     1       0.388  10.554  20.722  0.00  0.00    +0.000 A 
ATOM     23  C   UNL     1      -0.087  11.708  21.313  0.00  0.00    +0.000 A 
ATOM     24  C   UNL     1      -0.703  11.559  22.545  0.00  0.00    +0.000 A 
ATOM     25  C   UNL     1      -0.837  10.270  23.107  0.00  0.00    +0.000 A 
ATOM     26  C   UNL     1      -0.235   9.137  22.515  0.00  0.00    +0.000 A 
ATOM     27  C   UNL     1       0.446   9.308  21.321  0.00  0.00    +0.000 A 
ATOM     28  H   UNL     1       2.050   7.116  21.749  0.00  0.00    +0.000 HD
ENDBRANCH  15  16
ENDBRANCH   1  15
TORSDOF 6
ENDMDL
MODEL 4
REMARK VINA RESULT:      -8.1      3.752      9.125
REMARK  Name = 
REMARK  8 active torsions:
REMARK  status: ('A' for Active; 'I' for Inactive)
REMARK    1  A    between atoms: C_1  and  O_2
REMARK    2  A    between atoms: O_2  and  C_3
REMARK    3  A    between atoms: C_7  and  C_8
REMARK    4  A    between atoms: C_8  and  N_9
REMARK    5  A    between atoms: N_9  and  C_10
REMARK    6  A    between atoms: C_11  and  C_13
REMARK    7  A    between atoms: C_13  and  C_14
REMARK    8  A    between atoms: C_14  and  N_15
REMARK                            x       y       z     vdW  Elec       q    Type
REMARK                         _______ _______ _______ _____ _____    ______ ____
ROOT
ATOM      1  C   UNL     1       1.157   9.097  18.076  0.00  0.00    +0.000 C 
ENDROOT
BRANCH   1   4
ATOM      2  N   UNL     1       0.112  11.204  18.869  0.00  0.00    +0.000 N 
ATOM      3  C   UNL     1       0.172  12.608  19.268  0.00  0.00    +0.000 C 
ATOM      4  C   UNL     1       1.273  10.584  18.377  0.00  0.00    +0.000 C 
ATOM      5  O   UNL     1       2.323  11.201  18.186  0.00  0.00    +0.000 OA
BRANCH   2   6
ATOM      6  C   UNL     1      -1.184  10.532  19.039  0.00  0.00    +0.000 C 
BRANCH   6  11
ATOM      7  C   UNL     1      -4.296  11.579  17.016  0.00  0.00    +0.000 A 
ATOM      8  C   UNL     1      -4.127  10.778  15.880  0.00  0.00    +0.000 A 
ATOM      9  C   UNL     1      -3.014   9.955  15.763  0.00  0.00    +0.000 A 
ATOM     10  C   UNL     1      -2.074   9.913  16.791  0.00  0.00    +0.000 A 
ATOM     11  C   UNL     1      -2.221  10.705  17.946  0.00  0.00    +0.000 A 
ATOM     12  C   UNL     1      -3.334  11.557  18.028  0.00  0.00    +0.000 A 
BRANCH   7  14
ATOM     13  C   UNL     1      -6.531  11.820  17.790  0.00  0.00    +0.000 C 
ATOM     14  O   UNL     1      -5.454  12.311  17.007  0.00  0.00    +0.000 OA
ENDBRANCH   7  14
ENDBRANCH   6  11
ENDBRANCH   2   6
ENDBRANCH   1   4
BRANCH   1  15
ATOM     15  C   UNL     1       2.447   8.284  18.241  0.00  0.00    +0.000 C 
BRANCH  15  16
ATOM     16  N   UNL     1       2.277   7.227  19.286  0.00  0.00    +0.000 N 
ATOM     17  C   UNL     1       3.107   6.122  19.270  0.00  0.00    +0.000 C 
ATOM     18  N   UNL     1       4.121   6.070  18.461  0.00  0.00    +0.000 NA
ATOM     19  S   UNL     1       4.860   4.624  18.501  0.00  0.00    +0.000 S 
ATOM     20  O   UNL     1       4.795   3.985  17.213  0.00  0.00    +0.000 OA
ATOM     21  O   UNL     1       6.077   4.709  19.283  0.00  0.00    +0.000 OA
ATOM     22  C   UNL     1       3.676   3.873  19.522  0.00  0.00    +0.000 A 
ATOM     23  C   UNL     1       3.645   2.539  19.879  0.00  0.00    +0.000 A 
ATOM     24  C   UNL     1       2.882   2.218  20.990  0.00  0.00    +0.000 A 
ATOM     25  C   UNL     1       2.218   3.243  21.700  0.00  0.00    +0.000 A 
ATOM     26  C   UNL     1       2.192   4.574  21.229  0.00  0.00    +0.000 A 
ATOM     27  C   UNL     1       2.893   4.872  20.073  0.00  0.00    +0.000 A 
ATOM     28  H   UNL     1       1.296   7.030  19.480  0.00  0.00    +0.000 HD
ENDBRANCH  15  16
ENDBRANCH   1  15
TORSDOF 6
ENDMDL
MODEL 5
REMARK VINA RESULT:      -8.0      3.278      8.753
REMARK  Name = 
REMARK  8 active torsions:
REMARK  status: ('A' for Active; 'I' for Inactive)
REMARK    1  A    between atoms: C_1  and  O_2
REMARK    2  A    between atoms: O_2  and  C_3
REMARK    3  A    between atoms: C_7  and  C_8
REMARK    4  A    between atoms: C_8  and  N_9
REMARK    5  A    between atoms: N_9  and  C_10
REMARK    6  A    between atoms: C_11  and  C_13
REMARK    7  A    between atoms: C_13  and  C_14
REMARK    8  A    between atoms: C_14  and  N_15
REMARK                            x       y       z     vdW  Elec       q    Type
REMARK                         _______ _______ _______ _____ _____    ______ ____
ROOT
ATOM      1  C   UNL     1       0.078   9.065  21.163  0.00  0.00    +0.000 C 
ENDROOT
BRANCH   1   4
ATOM      2  N   UNL     1      -0.025  11.545  21.126  0.00  0.00    +0.000 N 
ATOM      3  C   UNL     1      -0.188  12.843  21.775  0.00  0.00    +0.000 C 
ATOM      4  C   UNL     1       0.005  10.384  21.917  0.00  0.00    +0.000 C 
ATOM      5  O   UNL     1      -0.015  10.422  23.149  0.00  0.00    +0.000 OA
BRANCH   2   6
ATOM      6  C   UNL     1       0.077  11.557  19.659  0.00  0.00    +0.000 C 
BRANCH   6  11
ATOM      7  C   UNL     1      -3.543  11.519  18.329  0.00  0.00    +0.000 A 
ATOM      8  C   UNL     1      -3.444  10.487  17.389  0.00  0.00    +0.000 A 
ATOM      9  C   UNL     1      -2.228   9.854  17.169  0.00  0.00    +0.000 A 
ATOM     10  C   UNL     1      -1.107  10.235  17.904  0.00  0.00    +0.000 A 
ATOM     11  C   UNL     1      -1.178  11.267  18.860  0.00  0.00    +0.000 A 
ATOM     12  C   UNL     1      -2.409  11.919  19.040  0.00  0.00    +0.000 A 
BRANCH   7  14
ATOM     13  C   UNL     1      -5.582  12.143  17.277  0.00  0.00    +0.000 C 
ATOM     14  O   UNL     1      -4.809  12.025  18.462  0.00  0.00    +0.000 OA
ENDBRANCH   7  14
ENDBRANCH   6  11
ENDBRANCH   2   6
ENDBRANCH   1   4
BRANCH   1  15
ATOM     15  C   UNL     1       1.419   8.327  21.243  0.00  0.00    +0.000 C 
BRANCH  15  16
ATOM     16  N   UNL     1       1.223   6.853  21.083  0.00  0.00    +0.000 N 
ATOM     17  C   UNL     1       2.048   6.151  20.224  0.00  0.00    +0.000 C 
ATOM     18  N   UNL     1       3.078   6.727  19.681  0.00  0.00    +0.000 NA
ATOM     19  S   UNL     1       3.810   5.768  18.593  0.00  0.00    +0.000 S 
ATOM     20  O   UNL     1       3.767   6.364  17.283  0.00  0.00    +0.000 OA
ATOM     21  O   UNL     1       5.011   5.193  19.164  0.00  0.00    +0.000 OA
ATOM     22  C   UNL     1       2.601   4.524  18.644  0.00  0.00    +0.000 A 
ATOM     23  C   UNL     1       2.557   3.406  17.836  0.00  0.00    +0.000 A 
ATOM     24  C   UNL     1       1.770   2.356  18.282  0.00  0.00    +0.000 A 
ATOM     25  C   UNL     1       1.097   2.466  19.519  0.00  0.00    +0.000 A 
ATOM     26  C   UNL     1       1.086   3.673  20.253  0.00  0.00    +0.000 A 
ATOM     27  C   UNL     1       1.812   4.744  19.760  0.00  0.00    +0.000 A 
ATOM     28  H   UNL     1       0.237   6.596  21.043  0.00  0.00    +0.000 HD
ENDBRANCH  15  16
ENDBRANCH   1  15
TORSDOF 6
ENDMDL
MODEL 6
REMARK VINA RESULT:      -8.0      2.056      2.811
REMARK  Name = 
REMARK  8 active torsions:
REMARK  status: ('A' for Active; 'I' for Inactive)
REMARK    1  A    between atoms: C_1  and  O_2
REMARK    2  A    between atoms: O_2  and  C_3
REMARK    3  A    between atoms: C_7  and  C_8
REMARK    4  A    between atoms: C_8  and  N_9
REMARK    5  A    between atoms: N_9  and  C_10
REMARK    6  A    between atoms: C_11  and  C_13
REMARK    7  A    between atoms: C_13  and  C_14
REMARK    8  A    between atoms: C_14  and  N_15
REMARK                            x       y       z     vdW  Elec       q    Type
REMARK                         _______ _______ _______ _____ _____    ______ ____
ROOT
ATOM      1  C   UNL     1       2.653   5.790  17.951  0.00  0.00    +0.000 C 
ENDROOT
BRANCH   1   4
ATOM      2  N   UNL     1       3.141   3.384  18.324  0.00  0.00    +0.000 N 
ATOM      3  C   UNL     1       2.742   1.983  18.422  0.00  0.00    +0.000 C 
ATOM      4  C   UNL     1       2.188   4.341  17.934  0.00  0.00    +0.000 C 
ATOM      5  O   UNL     1       1.046   4.034  17.588  0.00  0.00    +0.000 OA
BRANCH   2   6
ATOM      6  C   UNL     1       4.537   3.691  18.668  0.00  0.00    +0.000 C 
BRANCH   6  11
ATOM      7  C   UNL     1       7.040   5.814  16.642  0.00  0.00    +0.000 A 
ATOM      8  C   UNL     1       6.905   5.213  15.386  0.00  0.00    +0.000 A 
ATOM      9  C   UNL     1       6.056   4.127  15.216  0.00  0.00    +0.000 A 
ATOM     10  C   UNL     1       5.321   3.649  16.299  0.00  0.00    +0.000 A 
ATOM     11  C   UNL     1       5.434   4.236  17.574  0.00  0.00    +0.000 A 
ATOM     12  C   UNL     1       6.326   5.309  17.732  0.00  0.00    +0.000 A 
BRANCH   7  14
ATOM     13  C   UNL     1       7.517   7.992  17.469  0.00  0.00    +0.000 C 
ATOM     14  O   UNL     1       7.885   6.893  16.651  0.00  0.00    +0.000 OA
ENDBRANCH   7  14
ENDBRANCH   6  11
ENDBRANCH   2   6
ENDBRANCH   1   4
BRANCH   1  15
ATOM     15  C   UNL     1       2.452   6.536  19.275  0.00  0.00    +0.000 C 
BRANCH  15  16
ATOM     16  N   UNL     1       2.131   7.976  19.027  0.00  0.00    +0.000 N 
ATOM     17  C   UNL     1       1.455   8.693  19.996  0.00  0.00    +0.000 C 
ATOM     18  N   UNL     1       1.236   8.177  21.167  0.00  0.00    +0.000 NA
ATOM     19  S   UNL     1       0.294   9.128  22.088  0.00  0.00    +0.000 S 
ATOM     20  O   UNL     1      -0.933   8.455  22.424  0.00  0.00    +0.000 OA
ATOM     21  O   UNL     1       1.102   9.837  23.060  0.00  0.00    +0.000 OA
ATOM     22  C   UNL     1      -0.058  10.265  20.826  0.00  0.00    +0.000 A 
ATOM     23  C   UNL     1      -0.938  11.325  20.915  0.00  0.00    +0.000 A 
ATOM     24  C   UNL     1      -0.789  12.329  19.971  0.00  0.00    +0.000 A 
ATOM     25  C   UNL     1       0.243  12.236  19.011  0.00  0.00    +0.000 A 
ATOM     26  C   UNL     1       1.044  11.078  18.894  0.00  0.00    +0.000 A 
ATOM     27  C   UNL     1       0.836  10.046  19.793  0.00  0.00    +0.000 A 
ATOM     28  H   UNL     1       1.825   8.144  18.070  0.00  0.00    +0.000 HD
ENDBRANCH  15  16
ENDBRANCH   1  15
TORSDOF 6
ENDMDL
MODEL 7
REMARK VINA RESULT:      -7.9      3.466      9.152
REMARK  Name = 
REMARK  8 active torsions:
REMARK  status: ('A' for Active; 'I' for Inactive)
REMARK    1  A    between atoms: C_1  and  O_2
REMARK    2  A    between atoms: O_2  and  C_3
REMARK    3  A    between atoms: C_7  and  C_8
REMARK    4  A    between atoms: C_8  and  N_9
REMARK    5  A    between atoms: N_9  and  C_10
REMARK    6  A    between atoms: C_11  and  C_13
REMARK    7  A    between atoms: C_13  and  C_14
REMARK    8  A    between atoms: C_14  and  N_15
REMARK                            x       y       z     vdW  Elec       q    Type
REMARK                         _______ _______ _______ _____ _____    ______ ____
ROOT
ATOM      1  C   UNL     1       0.163   9.174  20.856  0.00  0.00    +0.000 C 
ENDROOT
BRANCH   1   4
ATOM      2  N   UNL     1       0.104  11.014  19.190  0.00  0.00    +0.000 N 
ATOM      3  C   UNL     1       0.327  12.398  18.783  0.00  0.00    +0.000 C 
ATOM      4  C   UNL     1       0.519  10.602  20.468  0.00  0.00    +0.000 C 
ATOM      5  O   UNL     1       1.143  11.341  21.231  0.00  0.00    +0.000 OA
BRANCH   2   6
ATOM      6  C   UNL     1      -0.572  10.147  18.214  0.00  0.00    +0.000 C 
BRANCH   6  11
ATOM      7  C   UNL     1      -4.175  11.505  17.996  0.00  0.00    +0.000 A 
ATOM      8  C   UNL     1      -4.496  11.131  16.686  0.00  0.00    +0.000 A 
ATOM      9  C   UNL     1      -3.554  10.493  15.889  0.00  0.00    +0.000 A 
ATOM     10  C   UNL     1      -2.291  10.207  16.406  0.00  0.00    +0.000 A 
ATOM     11  C   UNL     1      -1.943  10.569  17.722  0.00  0.00    +0.000 A 
ATOM     12  C   UNL     1      -2.898  11.246  18.497  0.00  0.00    +0.000 A 
BRANCH   7  14
ATOM     13  C   UNL     1      -6.484  12.072  18.043  0.00  0.00    +0.000 C 
ATOM     14  O   UNL     1      -5.212  12.094  18.672  0.00  0.00    +0.000 OA
ENDBRANCH   7  14
ENDBRANCH   6  11
ENDBRANCH   2   6
ENDBRANCH   1   4
BRANCH   1  15
ATOM     15  C   UNL     1       1.336   8.298  21.310  0.00  0.00    +0.000 C 
BRANCH  15  16
ATOM     16  N   UNL     1       2.035   7.697  20.132  0.00  0.00    +0.000 N 
ATOM     17  C   UNL     1       2.098   6.321  20.014  0.00  0.00    +0.000 C 
ATOM     18  N   UNL     1       1.430   5.558  20.825  0.00  0.00    +0.000 NA
ATOM     19  S   UNL     1       1.772   3.985  20.605  0.00  0.00    +0.000 S 
ATOM     20  O   UNL     1       2.351   3.421  21.796  0.00  0.00    +0.000 OA
ATOM     21  O   UNL     1       0.709   3.343  19.859  0.00  0.00    +0.000 OA
ATOM     22  C   UNL     1       3.060   4.264  19.476  0.00  0.00    +0.000 A 
ATOM     23  C   UNL     1       3.894   3.299  18.946  0.00  0.00    +0.000 A 
ATOM     24  C   UNL     1       4.576   3.644  17.790  0.00  0.00    +0.000 A 
ATOM     25  C   UNL     1       4.370   4.916  17.212  0.00  0.00    +0.000 A 
ATOM     26  C   UNL     1       3.593   5.906  17.855  0.00  0.00    +0.000 A 
ATOM     27  C   UNL     1       2.976   5.578  19.051  0.00  0.00    +0.000 A 
ATOM     28  H   UNL     1       2.895   8.192  19.899  0.00  0.00    +0.000 HD
ENDBRANCH  15  16
ENDBRANCH   1  15
TORSDOF 6
ENDMDL
MODEL 8
REMARK VINA RESULT:      -7.8      1.326      1.438
REMARK  Name = 
REMARK  8 active torsions:
REMARK  status: ('A' for Active; 'I' for Inactive)
REMARK    1  A    between atoms: C_1  and  O_2
REMARK    2  A    between atoms: O_2  and  C_3
REMARK    3  A    between atoms: C_7  and  C_8
REMARK    4  A    between atoms: C_8  and  N_9
REMARK    5  A    between atoms: N_9  and  C_10
REMARK    6  A    between atoms: C_11  and  C_13
REMARK    7  A    between atoms: C_13  and  C_14
REMARK    8  A    between atoms: C_14  and  N_15
REMARK                            x       y       z     vdW  Elec       q    Type
REMARK                         _______ _______ _______ _____ _____    ______ ____
ROOT
ATOM      1  C   UNL     1       2.595   5.609  20.627  0.00  0.00    +0.000 C 
ENDROOT
BRANCH   1   4
ATOM      2  N   UNL     1       2.847   3.593  19.200  0.00  0.00    +0.000 N 
ATOM      3  C   UNL     1       2.342   2.360  18.602  0.00  0.00    +0.000 C 
ATOM      4  C   UNL     1       1.973   4.394  19.954  0.00  0.00    +0.000 C 
ATOM      5  O   UNL     1       0.771   4.142  20.062  0.00  0.00    +0.000 OA
BRANCH   2   6
ATOM      6  C   UNL     1       4.268   3.894  18.976  0.00  0.00    +0.000 C 
BRANCH   6  11
ATOM      7  C   UNL     1       5.653   4.376  15.409  0.00  0.00    +0.000 A 
ATOM      8  C   UNL     1       5.493   5.760  15.273  0.00  0.00    +0.000 A 
ATOM      9  C   UNL     1       4.916   6.503  16.295  0.00  0.00    +0.000 A 
ATOM     10  C   UNL     1       4.515   5.867  17.469  0.00  0.00    +0.000 A 
ATOM     11  C   UNL     1       4.667   4.477  17.635  0.00  0.00    +0.000 A 
ATOM     12  C   UNL     1       5.218   3.740  16.575  0.00  0.00    +0.000 A 
BRANCH   7  14
ATOM     13  C   UNL     1       7.046   4.620  13.498  0.00  0.00    +0.000 C 
ATOM     14  O   UNL     1       6.265   3.783  14.336  0.00  0.00    +0.000 OA
ENDBRANCH   7  14
ENDBRANCH   6  11
ENDBRANCH   2   6
ENDBRANCH   1   4
BRANCH   1  15
ATOM     15  C   UNL     1       2.231   6.966  20.014  0.00  0.00    +0.000 C 
BRANCH  15  16
ATOM     16  N   UNL     1       1.308   7.724  20.916  0.00  0.00    +0.000 N 
ATOM     17  C   UNL     1       0.856   8.970  20.525  0.00  0.00    +0.000 C 
ATOM     18  N   UNL     1       1.097   9.415  19.330  0.00  0.00    +0.000 NA
ATOM     19  S   UNL     1       0.612  10.955  19.142  0.00  0.00    +0.000 S 
ATOM     20  O   UNL     1       1.733  11.806  18.841  0.00  0.00    +0.000 OA
ATOM     21  O   UNL     1      -0.636  10.997  18.407  0.00  0.00    +0.000 OA
ATOM     22  C   UNL     1       0.204  11.193  20.811  0.00  0.00    +0.000 A 
ATOM     23  C   UNL     1      -0.196  12.385  21.383  0.00  0.00    +0.000 A 
ATOM     24  C   UNL     1      -0.848  12.292  22.602  0.00  0.00    +0.000 A 
ATOM     25  C   UNL     1      -1.092  11.022  23.169  0.00  0.00    +0.000 A 
ATOM     26  C   UNL     1      -0.565   9.842  22.597  0.00  0.00    +0.000 A 
ATOM     27  C   UNL     1       0.154   9.951  21.419  0.00  0.00    +0.000 A 
ATOM     28  H   UNL     1       1.577   7.647  21.896  0.00  0.00    +0.000 HD
ENDBRANCH  15  16
ENDBRANCH   1  15
TORSDOF 6
ENDMDL
MODEL 9
REMARK VINA RESULT:      -7.8      2.685      3.667
REMARK  Name = 
REMARK  8 active torsions:
REMARK  status: ('A' for Active; 'I' for Inactive)
REMARK    1  A    between atoms: C_1  and  O_2
REMARK    2  A    between atoms: O_2  and  C_3
REMARK    3  A    between atoms: C_7  and  C_8
REMARK    4  A    between atoms: C_8  and  N_9
REMARK    5  A    between atoms: N_9  and  C_10
REMARK    6  A    between atoms: C_11  and  C_13
REMARK    7  A    between atoms: C_13  and  C_14
REMARK    8  A    between atoms: C_14  and  N_15
REMARK                            x       y       z     vdW  Elec       q    Type
REMARK                         _______ _______ _______ _____ _____    ______ ____
ROOT
ATOM      1  C   UNL     1       2.268   8.116  17.821  0.00  0.00    +0.000 C 
ENDROOT
BRANCH   1   4
ATOM      2  N   UNL     1       2.750   5.951  18.935  0.00  0.00    +0.000 N 
ATOM      3  C   UNL     1       2.973   5.127  20.120  0.00  0.00    +0.000 C 
ATOM      4  C   UNL     1       2.386   7.298  19.099  0.00  0.00    +0.000 C 
ATOM      5  O   UNL     1       2.163   7.793  20.205  0.00  0.00    +0.000 OA
BRANCH   2   6
ATOM      6  C   UNL     1       2.949   5.293  17.636  0.00  0.00    +0.000 C 
BRANCH   6  11
ATOM      7  C   UNL     1       6.597   6.013  16.613  0.00  0.00    +0.000 A 
ATOM      8  C   UNL     1       6.901   4.821  15.946  0.00  0.00    +0.000 A 
ATOM      9  C   UNL     1       5.961   3.802  15.868  0.00  0.00    +0.000 A 
ATOM     10  C   UNL     1       4.701   3.979  16.440  0.00  0.00    +0.000 A 
ATOM     11  C   UNL     1       4.367   5.169  17.114  0.00  0.00    +0.000 A 
ATOM     12  C   UNL     1       5.346   6.171  17.213  0.00  0.00    +0.000 A 
BRANCH   7  14
ATOM     13  C   UNL     1       7.745   7.782  17.712  0.00  0.00    +0.000 C 
ATOM     14  O   UNL     1       7.609   6.937  16.580  0.00  0.00    +0.000 OA
ENDBRANCH   7  14
ENDBRANCH   6  11
ENDBRANCH   2   6
ENDBRANCH   1   4
BRANCH   1  15
ATOM     15  C   UNL     1       1.229   9.243  17.848  0.00  0.00    +0.000 C 
BRANCH  15  16
ATOM     16  N   UNL     1       1.898  10.581  17.829  0.00  0.00    +0.000 N 
ATOM     17  C   UNL     1       1.456  11.569  18.689  0.00  0.00    +0.000 C 
ATOM     18  N   UNL     1       0.579  11.300  19.608  0.00  0.00    +0.000 NA
ATOM     19  S   UNL     1       0.090  12.635  20.395  0.00  0.00    +0.000 S 
ATOM     20  O   UNL     1      -1.321  12.845  20.209  0.00  0.00    +0.000 OA
ATOM     21  O   UNL     1       0.741  12.717  21.688  0.00  0.00    +0.000 OA
ATOM     22  C   UNL     1       0.929  13.743  19.356  0.00  0.00    +0.000 A 
ATOM     23  C   UNL     1       0.847  15.120  19.408  0.00  0.00    +0.000 A 
ATOM     24  C   UNL     1       1.867  15.820  18.784  0.00  0.00    +0.000 A 
ATOM     25  C   UNL     1       2.924  15.113  18.169  0.00  0.00    +0.000 A 
ATOM     26  C   UNL     1       2.902  13.706  18.047  0.00  0.00    +0.000 A 
ATOM     27  C   UNL     1       1.838  13.018  18.606  0.00  0.00    +0.000 A 
ATOM     28  H   UNL     1       2.111  10.893  16.883  0.00  0.00    +0.000 HD
ENDBRANCH  15  16
ENDBRANCH   1  15
TORSDOF 6
ENDMDL
