MODEL 1
REMARK VINA RESULT:      -6.8      0.000      0.000
REMARK  Name = 
REMARK  18 active torsions:
REMARK  status: ('A' for Active; 'I' for Inactive)
REMARK    1  A    between atoms: C_1  and  C_2
REMARK    2  A    between atoms: C_2  and  C_3
REMARK    3  A    between atoms: C_3  and  C_4
REMARK    4  A    between atoms: C_4  and  C_5
REMARK    5  A    between atoms: C_5  and  C_6
REMARK    6  A    between atoms: C_6  and  C_7
REMARK    7  A    between atoms: C_7  and  C_8
REMARK    8  A    between atoms: C_8  and  C_9
REMARK    9  A    between atoms: C_9  and  C_10
REMARK   10  A    between atoms: C_10  and  C_11
REMARK   11  A    between atoms: C_11  and  C_12
REMARK   12  A    between atoms: C_12  and  C_13
REMARK   13  A    between atoms: C_13  and  C_14
REMARK   14  A    between atoms: C_14  and  O_15
REMARK   15  A    between atoms: N_17  and  C_18
REMARK   16  A    between atoms: N_17  and  C_19
REMARK   17  A    between atoms: C_21  and  C_22
REMARK   18  A    between atoms: C_22  and  C_23
REMARK                            x       y       z     vdW  Elec       q    Type
REMARK                         _______ _______ _______ _____ _____    ______ ____
ROOT
ATOM      1  C   UNL     1       6.829   5.330  18.143  0.00  0.00    +0.000 C 
ATOM      2  C   UNL     1       5.653   5.032  19.113  0.00  0.00    +0.000 C 
ATOM      3  N   UNL     1       4.308   4.694  18.477  0.00  0.00    +0.000 N 
ATOM      4  C   UNL     1       3.537   5.907  17.990  0.00  0.00    +0.000 C 
ATOM      5  C   UNL     1       3.463   4.018  19.561  0.00  0.00    +0.000 C 
ATOM      6  C   UNL     1       4.522   3.676  17.326  0.00  0.00    +0.000 C 
ATOM      7  C   UNL     1       5.771   3.945  16.437  0.00  0.00    +0.000 C 
ATOM      8  O   UNL     1       6.955   4.328  17.154  0.00  0.00    +0.000 OA
ENDROOT
BRANCH   1   9
ATOM      9  O   UNL     1       8.013   5.145  18.937  0.00  0.00    +0.000 OA
ATOM     10  H   UNL     1       7.699   5.202  19.858  0.00  0.00    +0.000 HD
ENDBRANCH   1   9
BRANCH   1  11
ATOM     11  C   UNL     1       6.892   6.778  17.592  0.00  0.00    +0.000 C 
BRANCH  11  12
ATOM     12  C   UNL     1       8.062   7.533  18.227  0.00  0.00    +0.000 C 
BRANCH  12  13
ATOM     13  C   UNL     1       8.220   9.009  17.890  0.00  0.00    +0.000 C 
BRANCH  13  14
ATOM     14  C   UNL     1       9.084   9.686  18.973  0.00  0.00    +0.000 C 
BRANCH  14  15
ATOM     15  C   UNL     1       9.366  11.181  18.742  0.00  0.00    +0.000 C 
BRANCH  15  16
ATOM     16  C   UNL     1      10.462  11.421  17.705  0.00  0.00    +0.000 C 
BRANCH  16  17
ATOM     17  C   UNL     1      10.817  12.901  17.637  0.00  0.00    +0.000 C 
BRANCH  17  18
ATOM     18  C   UNL     1      12.194  13.178  18.236  0.00  0.00    +0.000 C 
BRANCH  18  19
ATOM     19  C   UNL     1      12.042  13.654  19.677  0.00  0.00    +0.000 C 
BRANCH  19  20
ATOM     20  C   UNL     1      10.889  14.640  19.838  0.00  0.00    +0.000 C 
BRANCH  20  21
ATOM     21  C   UNL     1      10.387  14.621  21.283  0.00  0.00    +0.000 C 
BRANCH  21  23
ATOM     22  C   UNL     1       9.275  12.500  22.029  0.00  0.00    +0.000 C 
ATOM     23  C   UNL     1       9.064  13.873  21.410  0.00  0.00    +0.000 C 
ENDBRANCH  21  23
ENDBRANCH  20  21
ENDBRANCH  19  20
ENDBRANCH  18  19
ENDBRANCH  17  18
ENDBRANCH  16  17
ENDBRANCH  15  16
ENDBRANCH  14  15
ENDBRANCH  13  14
ENDBRANCH  12  13
ENDBRANCH  11  12
ENDBRANCH   1  11
BRANCH   7  24
ATOM     24  C   UNL     1       5.586   4.837  15.225  0.00  0.00    +0.000 C 
BRANCH  24  25
ATOM     25  C   UNL     1       6.684   4.619  14.192  0.00  0.00    +0.000 C 
ATOM     26  O   UNL     1       7.653   5.407  14.297  0.00  0.00    +0.000 OA
ATOM     27  O   UNL     1       6.440   3.732  13.328  0.00  0.00    +0.000 OA
ENDBRANCH  24  25
ENDBRANCH   7  24
TORSDOF 15
ENDMDL
MODEL 2
REMARK VINA RESULT:      -6.3      1.284      1.728
REMARK  Name = 
REMARK  18 active torsions:
REMARK  status: ('A' for Active; 'I' for Inactive)
REMARK    1  A    between atoms: C_1  and  C_2
REMARK    2  A    between atoms: C_2  and  C_3
REMARK    3  A    between atoms: C_3  and  C_4
REMARK    4  A    between atoms: C_4  and  C_5
REMARK    5  A    between atoms: C_5  and  C_6
REMARK    6  A    between atoms: C_6  and  C_7
REMARK    7  A    between atoms: C_7  and  C_8
REMARK    8  A    between atoms: C_8  and  C_9
REMARK    9  A    between atoms: C_9  and  C_10
REMARK   10  A    between atoms: C_10  and  C_11
REMARK   11  A    between atoms: C_11  and  C_12
REMARK   12  A    between atoms: C_12  and  C_13
REMARK   13  A    between atoms: C_13  and  C_14
REMARK   14  A    between atoms: C_14  and  O_15
REMARK   15  A    between atoms: N_17  and  C_18
REMARK   16  A    between atoms: N_17  and  C_19
REMARK   17  A    between atoms: C_21  and  C_22
REMARK   18  A    between atoms: C_22  and  C_23
REMARK                            x       y       z     vdW  Elec       q    Type
REMARK                         _______ _______ _______ _____ _____    ______ ____
ROOT
ATOM      1  C   UNL     1       6.295   5.317  18.336  0.00  0.00    +0.000 C 
ATOM      2  C   UNL     1       5.045   4.818  19.112  0.00  0.00    +0.000 C 
ATOM      3  N   UNL     1       3.845   4.386  18.275  0.00  0.00    +0.000 N 
ATOM      4  C   UNL     1       3.007   5.542  17.761  0.00  0.00    +0.000 C 
ATOM      5  C   UNL     1       2.950   3.540  19.185  0.00  0.00    +0.000 C 
ATOM      6  C   UNL     1       4.327   3.490  17.103  0.00  0.00    +0.000 C 
ATOM      7  C   UNL     1       5.643   3.961  16.417  0.00  0.00    +0.000 C 
ATOM      8  O   UNL     1       6.668   4.414  17.314  0.00  0.00    +0.000 OA
ENDROOT
BRANCH   1   9
ATOM      9  O   UNL     1       7.378   5.200  19.276  0.00  0.00    +0.000 OA
ATOM     10  H   UNL     1       7.497   6.104  19.621  0.00  0.00    +0.000 HD
ENDBRANCH   1   9
BRANCH   1  11
ATOM     11  C   UNL     1       6.258   6.801  17.891  0.00  0.00    +0.000 C 
BRANCH  11  12
ATOM     12  C   UNL     1       7.666   7.279  17.529  0.00  0.00    +0.000 C 
BRANCH  12  13
ATOM     13  C   UNL     1       8.376   8.199  18.511  0.00  0.00    +0.000 C 
BRANCH  13  14
ATOM     14  C   UNL     1       8.328   9.645  17.976  0.00  0.00    +0.000 C 
BRANCH  14  15
ATOM     15  C   UNL     1       9.230  10.646  18.719  0.00  0.00    +0.000 C 
BRANCH  15  16
ATOM     16  C   UNL     1      10.437  11.080  17.889  0.00  0.00    +0.000 C 
BRANCH  16  17
ATOM     17  C   UNL     1      11.204  12.187  18.602  0.00  0.00    +0.000 C 
BRANCH  17  18
ATOM     18  C   UNL     1      10.665  12.429  20.011  0.00  0.00    +0.000 C 
BRANCH  18  19
ATOM     19  C   UNL     1      10.184  13.871  20.137  0.00  0.00    +0.000 C 
BRANCH  19  20
ATOM     20  C   UNL     1      10.519  14.700  18.902  0.00  0.00    +0.000 C 
BRANCH  20  21
ATOM     21  C   UNL     1       9.243  15.315  18.327  0.00  0.00    +0.000 C 
BRANCH  21  23
ATOM     22  C   UNL     1       6.786  14.816  18.374  0.00  0.00    +0.000 C 
ATOM     23  C   UNL     1       8.169  14.260  18.081  0.00  0.00    +0.000 C 
ENDBRANCH  21  23
ENDBRANCH  20  21
ENDBRANCH  19  20
ENDBRANCH  18  19
ENDBRANCH  17  18
ENDBRANCH  16  17
ENDBRANCH  15  16
ENDBRANCH  14  15
ENDBRANCH  13  14
ENDBRANCH  12  13
ENDBRANCH  11  12
ENDBRANCH   1  11
BRANCH   7  24
ATOM     24  C   UNL     1       5.515   4.920  15.249  0.00  0.00    +0.000 C 
BRANCH  24  25
ATOM     25  C   UNL     1       6.649   4.743  14.248  0.00  0.00    +0.000 C 
ATOM     26  O   UNL     1       6.451   3.839  13.401  0.00  0.00    +0.000 OA
ATOM     27  O   UNL     1       7.661   5.470  14.447  0.00  0.00    +0.000 OA
ENDBRANCH  24  25
ENDBRANCH   7  24
TORSDOF 15
ENDMDL
MODEL 3
REMARK VINA RESULT:      -6.3      5.827      8.217
REMARK  Name = 
REMARK  18 active torsions:
REMARK  status: ('A' for Active; 'I' for Inactive)
REMARK    1  A    between atoms: C_1  and  C_2
REMARK    2  A    between atoms: C_2  and  C_3
REMARK    3  A    between atoms: C_3  and  C_4
REMARK    4  A    between atoms: C_4  and  C_5
REMARK    5  A    between atoms: C_5  and  C_6
REMARK    6  A    between atoms: C_6  and  C_7
REMARK    7  A    between atoms: C_7  and  C_8
REMARK    8  A    between atoms: C_8  and  C_9
REMARK    9  A    between atoms: C_9  and  C_10
REMARK   10  A    between atoms: C_10  and  C_11
REMARK   11  A    between atoms: C_11  and  C_12
REMARK   12  A    between atoms: C_12  and  C_13
REMARK   13  A    between atoms: C_13  and  C_14
REMARK   14  A    between atoms: C_14  and  O_15
REMARK   15  A    between atoms: N_17  and  C_18
REMARK   16  A    between atoms: N_17  and  C_19
REMARK   17  A    between atoms: C_21  and  C_22
REMARK   18  A    between atoms: C_22  and  C_23
REMARK                            x       y       z     vdW  Elec       q    Type
REMARK                         _______ _______ _______ _____ _____    ______ ____
ROOT
ATOM      1  C   UNL     1       3.171   5.681  19.372  0.00  0.00    +0.000 C 
ATOM      2  C   UNL     1       2.353   4.362  19.429  0.00  0.00    +0.000 C 
ATOM      3  N   UNL     1       2.941   3.158  18.698  0.00  0.00    +0.000 N 
ATOM      4  C   UNL     1       2.712   3.181  17.198  0.00  0.00    +0.000 C 
ATOM      5  C   UNL     1       2.236   1.916  19.251  0.00  0.00    +0.000 C 
ATOM      6  C   UNL     1       4.453   3.043  19.024  0.00  0.00    +0.000 C 
ATOM      7  C   UNL     1       5.220   4.397  19.064  0.00  0.00    +0.000 C 
ATOM      8  O   UNL     1       4.525   5.470  19.717  0.00  0.00    +0.000 OA
ENDROOT
BRANCH   1   9
ATOM      9  O   UNL     1       2.679   6.463  20.475  0.00  0.00    +0.000 OA
ATOM     10  H   UNL     1       2.050   7.086  20.069  0.00  0.00    +0.000 HD
ENDBRANCH   1   9
BRANCH   1  11
ATOM     11  C   UNL     1       2.965   6.541  18.099  0.00  0.00    +0.000 C 
BRANCH  11  12
ATOM     12  C   UNL     1       2.532   7.958  18.484  0.00  0.00    +0.000 C 
BRANCH  12  13
ATOM     13  C   UNL     1       1.598   8.696  17.536  0.00  0.00    +0.000 C 
BRANCH  13  14
ATOM     14  C   UNL     1       1.226  10.060  18.152  0.00  0.00    +0.000 C 
BRANCH  14  15
ATOM     15  C   UNL     1       1.126  10.076  19.687  0.00  0.00    +0.000 C 
BRANCH  15  16
ATOM     16  C   UNL     1      -0.297   9.839  20.188  0.00  0.00    +0.000 C 
BRANCH  16  17
ATOM     17  C   UNL     1      -0.858  11.107  20.821  0.00  0.00    +0.000 C 
BRANCH  17  18
ATOM     18  C   UNL     1      -0.436  12.356  20.049  0.00  0.00    +0.000 C 
BRANCH  18  19
ATOM     19  C   UNL     1      -1.340  12.541  18.835  0.00  0.00    +0.000 C 
BRANCH  19  20
ATOM     20  C   UNL     1      -2.755  12.028  19.087  0.00  0.00    +0.000 C 
BRANCH  20  21
ATOM     21  C   UNL     1      -3.320  11.412  17.807  0.00  0.00    +0.000 C 
BRANCH  21  23
ATOM     22  C   UNL     1      -2.757   9.891  15.894  0.00  0.00    +0.000 C 
ATOM     23  C   UNL     1      -2.514  10.196  17.363  0.00  0.00    +0.000 C 
ENDBRANCH  21  23
ENDBRANCH  20  21
ENDBRANCH  19  20
ENDBRANCH  18  19
ENDBRANCH  17  18
ENDBRANCH  16  17
ENDBRANCH  15  16
ENDBRANCH  14  15
ENDBRANCH  13  14
ENDBRANCH  12  13
ENDBRANCH  11  12
ENDBRANCH   1  11
BRANCH   7  24
ATOM     24  C   UNL     1       5.834   4.888  17.767  0.00  0.00    +0.000 C 
BRANCH  24  25
ATOM     25  C   UNL     1       7.345   4.694  17.750  0.00  0.00    +0.000 C 
ATOM     26  O   UNL     1       7.901   4.896  18.855  0.00  0.00    +0.000 OA
ATOM     27  O   UNL     1       7.841   4.433  16.620  0.00  0.00    +0.000 OA
ENDBRANCH  24  25
ENDBRANCH   7  24
TORSDOF 15
ENDMDL
MODEL 4
REMARK VINA RESULT:      -6.3      1.232      1.810
REMARK  Name = 
REMARK  18 active torsions:
REMARK  status: ('A' for Active; 'I' for Inactive)
REMARK    1  A    between atoms: C_1  and  C_2
REMARK    2  A    between atoms: C_2  and  C_3
REMARK    3  A    between atoms: C_3  and  C_4
REMARK    4  A    between atoms: C_4  and  C_5
REMARK    5  A    between atoms: C_5  and  C_6
REMARK    6  A    between atoms: C_6  and  C_7
REMARK    7  A    between atoms: C_7  and  C_8
REMARK    8  A    between atoms: C_8  and  C_9
REMARK    9  A    between atoms: C_9  and  C_10
REMARK   10  A    between atoms: C_10  and  C_11
REMARK   11  A    between atoms: C_11  and  C_12
REMARK   12  A    between atoms: C_12  and  C_13
REMARK   13  A    between atoms: C_13  and  C_14
REMARK   14  A    between atoms: C_14  and  O_15
REMARK   15  A    between atoms: N_17  and  C_18
REMARK   16  A    between atoms: N_17  and  C_19
REMARK   17  A    between atoms: C_21  and  C_22
REMARK   18  A    between atoms: C_22  and  C_23
REMARK                            x       y       z     vdW  Elec       q    Type
REMARK                         _______ _______ _______ _____ _____    ______ ____
ROOT
ATOM      1  C   UNL     1       6.948   5.237  17.859  0.00  0.00    +0.000 C 
ATOM      2  C   UNL     1       5.765   5.130  18.861  0.00  0.00    +0.000 C 
ATOM      3  N   UNL     1       4.370   4.983  18.261  0.00  0.00    +0.000 N 
ATOM      4  C   UNL     1       3.774   6.289  17.767  0.00  0.00    +0.000 C 
ATOM      5  C   UNL     1       3.461   4.456  19.376  0.00  0.00    +0.000 C 
ATOM      6  C   UNL     1       4.404   3.927  17.125  0.00  0.00    +0.000 C 
ATOM      7  C   UNL     1       5.657   3.995  16.204  0.00  0.00    +0.000 C 
ATOM      8  O   UNL     1       6.901   4.211  16.887  0.00  0.00    +0.000 OA
ENDROOT
BRANCH   1   9
ATOM      9  O   UNL     1       8.111   4.892  18.631  0.00  0.00    +0.000 OA
ATOM     10  H   UNL     1       8.661   4.367  18.021  0.00  0.00    +0.000 HD
ENDBRANCH   1   9
BRANCH   1  11
ATOM     11  C   UNL     1       7.209   6.651  17.280  0.00  0.00    +0.000 C 
BRANCH  11  12
ATOM     12  C   UNL     1       8.010   7.490  18.278  0.00  0.00    +0.000 C 
BRANCH  12  13
ATOM     13  C   UNL     1       8.184   8.972  17.979  0.00  0.00    +0.000 C 
BRANCH  13  14
ATOM     14  C   UNL     1       9.182   9.577  18.987  0.00  0.00    +0.000 C 
BRANCH  14  15
ATOM     15  C   UNL     1       9.469  11.078  18.799  0.00  0.00    +0.000 C 
BRANCH  15  16
ATOM     16  C   UNL     1      10.908  11.452  19.151  0.00  0.00    +0.000 C 
BRANCH  16  17
ATOM     17  C   UNL     1      10.933  12.658  20.081  0.00  0.00    +0.000 C 
BRANCH  17  18
ATOM     18  C   UNL     1       9.611  12.820  20.829  0.00  0.00    +0.000 C 
BRANCH  18  19
ATOM     19  C   UNL     1       9.731  13.950  21.846  0.00  0.00    +0.000 C 
BRANCH  19  20
ATOM     20  C   UNL     1       8.388  14.299  22.481  0.00  0.00    +0.000 C 
BRANCH  20  21
ATOM     21  C   UNL     1       8.441  14.034  23.986  0.00  0.00    +0.000 C 
BRANCH  21  23
ATOM     22  C   UNL     1       7.807  12.352  25.736  0.00  0.00    +0.000 C 
ATOM     23  C   UNL     1       8.278  12.551  24.305  0.00  0.00    +0.000 C 
ENDBRANCH  21  23
ENDBRANCH  20  21
ENDBRANCH  19  20
ENDBRANCH  18  19
ENDBRANCH  17  18
ENDBRANCH  16  17
ENDBRANCH  15  16
ENDBRANCH  14  15
ENDBRANCH  13  14
ENDBRANCH  12  13
ENDBRANCH  11  12
ENDBRANCH   1  11
BRANCH   7  24
ATOM     24  C   UNL     1       5.575   4.886  14.980  0.00  0.00    +0.000 C 
BRANCH  24  25
ATOM     25  C   UNL     1       6.696   4.590  13.991  0.00  0.00    +0.000 C 
ATOM     26  O   UNL     1       7.680   5.361  14.085  0.00  0.00    +0.000 OA
ATOM     27  O   UNL     1       6.455   3.666  13.167  0.00  0.00    +0.000 OA
ENDBRANCH  24  25
ENDBRANCH   7  24
TORSDOF 15
ENDMDL
MODEL 5
REMARK VINA RESULT:      -6.2      1.786      2.280
REMARK  Name = 
REMARK  18 active torsions:
REMARK  status: ('A' for Active; 'I' for Inactive)
REMARK    1  A    between atoms: C_1  and  C_2
REMARK    2  A    between atoms: C_2  and  C_3
REMARK    3  A    between atoms: C_3  and  C_4
REMARK    4  A    between atoms: C_4  and  C_5
REMARK    5  A    between atoms: C_5  and  C_6
REMARK    6  A    between atoms: C_6  and  C_7
REMARK    7  A    between atoms: C_7  and  C_8
REMARK    8  A    between atoms: C_8  and  C_9
REMARK    9  A    between atoms: C_9  and  C_10
REMARK   10  A    between atoms: C_10  and  C_11
REMARK   11  A    between atoms: C_11  and  C_12
REMARK   12  A    between atoms: C_12  and  C_13
REMARK   13  A    between atoms: C_13  and  C_14
REMARK   14  A    between atoms: C_14  and  O_15
REMARK   15  A    between atoms: N_17  and  C_18
REMARK   16  A    between atoms: N_17  and  C_19
REMARK   17  A    between atoms: C_21  and  C_22
REMARK   18  A    between atoms: C_22  and  C_23
REMARK                            x       y       z     vdW  Elec       q    Type
REMARK                         _______ _______ _______ _____ _____    ______ ____
ROOT
ATOM      1  C   UNL     1       7.004   5.412  18.036  0.00  0.00    +0.000 C 
ATOM      2  C   UNL     1       5.830   5.361  19.052  0.00  0.00    +0.000 C 
ATOM      3  N   UNL     1       4.425   5.225  18.471  0.00  0.00    +0.000 N 
ATOM      4  C   UNL     1       3.851   6.527  17.942  0.00  0.00    +0.000 C 
ATOM      5  C   UNL     1       3.518   4.752  19.610  0.00  0.00    +0.000 C 
ATOM      6  C   UNL     1       4.426   4.134  17.368  0.00  0.00    +0.000 C 
ATOM      7  C   UNL     1       5.671   4.147  16.434  0.00  0.00    +0.000 C 
ATOM      8  O   UNL     1       6.927   4.358  17.098  0.00  0.00    +0.000 OA
ENDROOT
BRANCH   1   9
ATOM      9  O   UNL     1       8.168   5.067  18.808  0.00  0.00    +0.000 OA
ATOM     10  H   UNL     1       8.488   4.239  18.407  0.00  0.00    +0.000 HD
ENDBRANCH   1   9
BRANCH   1  11
ATOM     11  C   UNL     1       7.288   6.802  17.411  0.00  0.00    +0.000 C 
BRANCH  11  12
ATOM     12  C   UNL     1       8.154   7.638  18.356  0.00  0.00    +0.000 C 
BRANCH  12  13
ATOM     13  C   UNL     1       8.422   9.087  17.976  0.00  0.00    +0.000 C 
BRANCH  13  14
ATOM     14  C   UNL     1       8.891   9.860  19.225  0.00  0.00    +0.000 C 
BRANCH  14  15
ATOM     15  C   UNL     1      10.131  10.747  19.016  0.00  0.00    +0.000 C 
BRANCH  15  16
ATOM     16  C   UNL     1       9.992  11.679  17.814  0.00  0.00    +0.000 C 
BRANCH  16  17
ATOM     17  C   UNL     1       9.078  12.852  18.150  0.00  0.00    +0.000 C 
BRANCH  17  18
ATOM     18  C   UNL     1       7.848  12.884  17.245  0.00  0.00    +0.000 C 
BRANCH  18  19
ATOM     19  C   UNL     1       6.960  14.064  17.628  0.00  0.00    +0.000 C 
BRANCH  19  20
ATOM     20  C   UNL     1       7.604  14.949  18.690  0.00  0.00    +0.000 C 
BRANCH  20  21
ATOM     21  C   UNL     1       8.050  16.271  18.064  0.00  0.00    +0.000 C 
BRANCH  21  23
ATOM     22  C   UNL     1       8.879  17.391  20.149  0.00  0.00    +0.000 C 
ATOM     23  C   UNL     1       7.860  17.442  19.023  0.00  0.00    +0.000 C 
ENDBRANCH  21  23
ENDBRANCH  20  21
ENDBRANCH  19  20
ENDBRANCH  18  19
ENDBRANCH  17  18
ENDBRANCH  16  17
ENDBRANCH  15  16
ENDBRANCH  14  15
ENDBRANCH  13  14
ENDBRANCH  12  13
ENDBRANCH  11  12
ENDBRANCH   1  11
BRANCH   7  24
ATOM     24  C   UNL     1       5.595   5.001  15.183  0.00  0.00    +0.000 C 
BRANCH  24  25
ATOM     25  C   UNL     1       6.691   4.641  14.187  0.00  0.00    +0.000 C 
ATOM     26  O   UNL     1       7.681   5.412  14.212  0.00  0.00    +0.000 OA
ATOM     27  O   UNL     1       6.428   3.672  13.425  0.00  0.00    +0.000 OA
ENDBRANCH  24  25
ENDBRANCH   7  24
TORSDOF 15
ENDMDL
MODEL 6
REMARK VINA RESULT:      -6.2      1.364      2.246
REMARK  Name = 
REMARK  18 active torsions:
REMARK  status: ('A' for Active; 'I' for Inactive)
REMARK    1  A    between atoms: C_1  and  C_2
REMARK    2  A    between atoms: C_2  and  C_3
REMARK    3  A    between atoms: C_3  and  C_4
REMARK    4  A    between atoms: C_4  and  C_5
REMARK    5  A    between atoms: C_5  and  C_6
REMARK    6  A    between atoms: C_6  and  C_7
REMARK    7  A    between atoms: C_7  and  C_8
REMARK    8  A    between atoms: C_8  and  C_9
REMARK    9  A    between atoms: C_9  and  C_10
REMARK   10  A    between atoms: C_10  and  C_11
REMARK   11  A    between atoms: C_11  and  C_12
REMARK   12  A    between atoms: C_12  and  C_13
REMARK   13  A    between atoms: C_13  and  C_14
REMARK   14  A    between atoms: C_14  and  O_15
REMARK   15  A    between atoms: N_17  and  C_18
REMARK   16  A    between atoms: N_17  and  C_19
REMARK   17  A    between atoms: C_21  and  C_22
REMARK   18  A    between atoms: C_22  and  C_23
REMARK                            x       y       z     vdW  Elec       q    Type
REMARK                         _______ _______ _______ _____ _____    ______ ____
ROOT
ATOM      1  C   UNL     1       6.975   5.369  17.912  0.00  0.00    +0.000 C 
ATOM      2  C   UNL     1       5.805   5.378  18.933  0.00  0.00    +0.000 C 
ATOM      3  N   UNL     1       4.392   5.320  18.358  0.00  0.00    +0.000 N 
ATOM      4  C   UNL     1       3.887   6.653  17.837  0.00  0.00    +0.000 C 
ATOM      5  C   UNL     1       3.465   4.893  19.500  0.00  0.00    +0.000 C 
ATOM      6  C   UNL     1       4.328   4.235  17.252  0.00  0.00    +0.000 C 
ATOM      7  C   UNL     1       5.568   4.184  16.312  0.00  0.00    +0.000 C 
ATOM      8  O   UNL     1       6.836   4.324  16.970  0.00  0.00    +0.000 OA
ENDROOT
BRANCH   1   9
ATOM      9  O   UNL     1       8.122   4.959  18.677  0.00  0.00    +0.000 OA
ATOM     10  H   UNL     1       8.116   5.544  19.456  0.00  0.00    +0.000 HD
ENDBRANCH   1   9
BRANCH   1  11
ATOM     11  C   UNL     1       7.331   6.744  17.290  0.00  0.00    +0.000 C 
BRANCH  11  12
ATOM     12  C   UNL     1       8.036   7.624  18.324  0.00  0.00    +0.000 C 
BRANCH  12  13
ATOM     13  C   UNL     1       8.064   9.125  18.076  0.00  0.00    +0.000 C 
BRANCH  13  14
ATOM     14  C   UNL     1       9.398   9.699  18.598  0.00  0.00    +0.000 C 
BRANCH  14  15
ATOM     15  C   UNL     1       9.263  10.750  19.714  0.00  0.00    +0.000 C 
BRANCH  15  16
ATOM     16  C   UNL     1      10.264  11.894  19.571  0.00  0.00    +0.000 C 
BRANCH  16  17
ATOM     17  C   UNL     1      11.177  11.658  18.374  0.00  0.00    +0.000 C 
BRANCH  17  18
ATOM     18  C   UNL     1      11.922  12.930  17.974  0.00  0.00    +0.000 C 
BRANCH  18  19
ATOM     19  C   UNL     1      10.947  13.921  17.347  0.00  0.00    +0.000 C 
BRANCH  19  20
ATOM     20  C   UNL     1      10.764  15.170  18.205  0.00  0.00    +0.000 C 
BRANCH  20  21
ATOM     21  C   UNL     1      10.154  16.292  17.366  0.00  0.00    +0.000 C 
BRANCH  21  23
ATOM     22  C   UNL     1      12.271  17.356  18.189  0.00  0.00    +0.000 C 
ATOM     23  C   UNL     1      11.117  17.464  17.205  0.00  0.00    +0.000 C 
ENDBRANCH  21  23
ENDBRANCH  20  21
ENDBRANCH  19  20
ENDBRANCH  18  19
ENDBRANCH  17  18
ENDBRANCH  16  17
ENDBRANCH  15  16
ENDBRANCH  14  15
ENDBRANCH  13  14
ENDBRANCH  12  13
ENDBRANCH  11  12
ENDBRANCH   1  11
BRANCH   7  24
ATOM     24  C   UNL     1       5.533   5.045  15.064  0.00  0.00    +0.000 C 
BRANCH  24  25
ATOM     25  C   UNL     1       6.626   4.654  14.077  0.00  0.00    +0.000 C 
ATOM     26  O   UNL     1       6.394   3.594  13.448  0.00  0.00    +0.000 OA
ATOM     27  O   UNL     1       7.644   5.398  14.079  0.00  0.00    +0.000 OA
ENDBRANCH  24  25
ENDBRANCH   7  24
TORSDOF 15
ENDMDL
MODEL 7
REMARK VINA RESULT:      -6.1      5.785      7.793
REMARK  Name = 
REMARK  18 active torsions:
REMARK  status: ('A' for Active; 'I' for Inactive)
REMARK    1  A    between atoms: C_1  and  C_2
REMARK    2  A    between atoms: C_2  and  C_3
REMARK    3  A    between atoms: C_3  and  C_4
REMARK    4  A    between atoms: C_4  and  C_5
REMARK    5  A    between atoms: C_5  and  C_6
REMARK    6  A    between atoms: C_6  and  C_7
REMARK    7  A    between atoms: C_7  and  C_8
REMARK    8  A    between atoms: C_8  and  C_9
REMARK    9  A    between atoms: C_9  and  C_10
REMARK   10  A    between atoms: C_10  and  C_11
REMARK   11  A    between atoms: C_11  and  C_12
REMARK   12  A    between atoms: C_12  and  C_13
REMARK   13  A    between atoms: C_13  and  C_14
REMARK   14  A    between atoms: C_14  and  O_15
REMARK   15  A    between atoms: N_17  and  C_18
REMARK   16  A    between atoms: N_17  and  C_19
REMARK   17  A    between atoms: C_21  and  C_22
REMARK   18  A    between atoms: C_22  and  C_23
REMARK                            x       y       z     vdW  Elec       q    Type
REMARK                         _______ _______ _______ _____ _____    ______ ____
ROOT
ATOM      1  C   UNL     1       3.036   5.844  19.253  0.00  0.00    +0.000 C 
ATOM      2  C   UNL     1       2.376   4.440  19.189  0.00  0.00    +0.000 C 
ATOM      3  N   UNL     1       3.162   3.344  18.475  0.00  0.00    +0.000 N 
ATOM      4  C   UNL     1       3.067   3.407  16.961  0.00  0.00    +0.000 C 
ATOM      5  C   UNL     1       2.560   2.006  18.917  0.00  0.00    +0.000 C 
ATOM      6  C   UNL     1       4.642   3.385  18.937  0.00  0.00    +0.000 C 
ATOM      7  C   UNL     1       5.240   4.813  19.095  0.00  0.00    +0.000 C 
ATOM      8  O   UNL     1       4.370   5.771  19.716  0.00  0.00    +0.000 OA
ENDROOT
BRANCH   1   9
ATOM      9  O   UNL     1       2.361   6.515  20.331  0.00  0.00    +0.000 OA
ATOM     10  H   UNL     1       2.079   7.366  19.948  0.00  0.00    +0.000 HD
ENDBRANCH   1   9
BRANCH   1  11
ATOM     11  C   UNL     1       2.846   6.731  17.996  0.00  0.00    +0.000 C 
BRANCH  11  12
ATOM     12  C   UNL     1       1.922   7.909  18.316  0.00  0.00    +0.000 C 
BRANCH  12  13
ATOM     13  C   UNL     1       2.276   9.267  17.728  0.00  0.00    +0.000 C 
BRANCH  13  14
ATOM     14  C   UNL     1       1.396  10.348  18.387  0.00  0.00    +0.000 C 
BRANCH  14  15
ATOM     15  C   UNL     1      -0.120  10.152  18.210  0.00  0.00    +0.000 C 
BRANCH  15  16
ATOM     16  C   UNL     1      -0.897  11.466  18.286  0.00  0.00    +0.000 C 
BRANCH  16  17
ATOM     17  C   UNL     1      -1.918  11.417  19.417  0.00  0.00    +0.000 C 
BRANCH  17  18
ATOM     18  C   UNL     1      -1.881  12.688  20.264  0.00  0.00    +0.000 C 
BRANCH  18  19
ATOM     19  C   UNL     1      -1.977  12.324  21.741  0.00  0.00    +0.000 C 
BRANCH  19  20
ATOM     20  C   UNL     1      -0.685  11.707  22.268  0.00  0.00    +0.000 C 
BRANCH  20  21
ATOM     21  C   UNL     1      -1.008  10.528  23.186  0.00  0.00    +0.000 C 
BRANCH  21  23
ATOM     22  C   UNL     1       0.919   9.615  21.866  0.00  0.00    +0.000 C 
ATOM     23  C   UNL     1       0.061   9.443  23.108  0.00  0.00    +0.000 C 
ENDBRANCH  21  23
ENDBRANCH  20  21
ENDBRANCH  19  20
ENDBRANCH  18  19
ENDBRANCH  17  18
ENDBRANCH  16  17
ENDBRANCH  15  16
ENDBRANCH  14  15
ENDBRANCH  13  14
ENDBRANCH  12  13
ENDBRANCH  11  12
ENDBRANCH   1  11
BRANCH   7  24
ATOM     24  C   UNL     1       5.906   5.428  17.878  0.00  0.00    +0.000 C 
BRANCH  24  25
ATOM     25  C   UNL     1       7.084   4.590  17.397  0.00  0.00    +0.000 C 
ATOM     26  O   UNL     1       6.933   4.100  16.253  0.00  0.00    +0.000 OA
ATOM     27  O   UNL     1       8.015   4.440  18.236  0.00  0.00    +0.000 OA
ENDBRANCH  24  25
ENDBRANCH   7  24
TORSDOF 15
ENDMDL
MODEL 8
REMARK VINA RESULT:      -6.1      1.169      1.868
REMARK  Name = 
REMARK  18 active torsions:
REMARK  status: ('A' for Active; 'I' for Inactive)
REMARK    1  A    between atoms: C_1  and  C_2
REMARK    2  A    between atoms: C_2  and  C_3
REMARK    3  A    between atoms: C_3  and  C_4
REMARK    4  A    between atoms: C_4  and  C_5
REMARK    5  A    between atoms: C_5  and  C_6
REMARK    6  A    between atoms: C_6  and  C_7
REMARK    7  A    between atoms: C_7  and  C_8
REMARK    8  A    between atoms: C_8  and  C_9
REMARK    9  A    between atoms: C_9  and  C_10
REMARK   10  A    between atoms: C_10  and  C_11
REMARK   11  A    between atoms: C_11  and  C_12
REMARK   12  A    between atoms: C_12  and  C_13
REMARK   13  A    between atoms: C_13  and  C_14
REMARK   14  A    between atoms: C_14  and  O_15
REMARK   15  A    between atoms: N_17  and  C_18
REMARK   16  A    between atoms: N_17  and  C_19
REMARK   17  A    between atoms: C_21  and  C_22
REMARK   18  A    between atoms: C_22  and  C_23
REMARK                            x       y       z     vdW  Elec       q    Type
REMARK                         _______ _______ _______ _____ _____    ______ ____
ROOT
ATOM      1  C   UNL     1       6.275   5.110  18.308  0.00  0.00    +0.000 C 
ATOM      2  C   UNL     1       5.019   4.685  19.115  0.00  0.00    +0.000 C 
ATOM      3  N   UNL     1       3.765   4.354  18.310  0.00  0.00    +0.000 N 
ATOM      4  C   UNL     1       2.996   5.577  17.844  0.00  0.00    +0.000 C 
ATOM      5  C   UNL     1       2.842   3.555  19.234  0.00  0.00    +0.000 C 
ATOM      6  C   UNL     1       4.147   3.451  17.108  0.00  0.00    +0.000 C 
ATOM      7  C   UNL     1       5.470   3.842  16.387  0.00  0.00    +0.000 C 
ATOM      8  O   UNL     1       6.552   4.204  17.259  0.00  0.00    +0.000 OA
ENDROOT
BRANCH   1   9
ATOM      9  O   UNL     1       7.376   4.899  19.209  0.00  0.00    +0.000 OA
ATOM     10  H   UNL     1       7.922   4.221  18.772  0.00  0.00    +0.000 HD
ENDBRANCH   1   9
BRANCH   1  11
ATOM     11  C   UNL     1       6.330   6.602  17.891  0.00  0.00    +0.000 C 
BRANCH  11  12
ATOM     12  C   UNL     1       7.731   7.167  18.134  0.00  0.00    +0.000 C 
BRANCH  12  13
ATOM     13  C   UNL     1       8.176   8.348  17.283  0.00  0.00    +0.000 C 
BRANCH  13  14
ATOM     14  C   UNL     1       8.138   9.631  18.139  0.00  0.00    +0.000 C 
BRANCH  14  15
ATOM     15  C   UNL     1       9.429   9.929  18.922  0.00  0.00    +0.000 C 
BRANCH  15  16
ATOM     16  C   UNL     1       9.835  11.400  18.851  0.00  0.00    +0.000 C 
BRANCH  16  17
ATOM     17  C   UNL     1      10.445  11.850  20.173  0.00  0.00    +0.000 C 
BRANCH  17  18
ATOM     18  C   UNL     1      11.964  11.981  20.077  0.00  0.00    +0.000 C 
BRANCH  18  19
ATOM     19  C   UNL     1      12.333  12.785  18.835  0.00  0.00    +0.000 C 
BRANCH  19  20
ATOM     20  C   UNL     1      12.145  14.284  19.043  0.00  0.00    +0.000 C 
BRANCH  20  21
ATOM     21  C   UNL     1      11.133  14.826  18.031  0.00  0.00    +0.000 C 
BRANCH  21  23
ATOM     22  C   UNL     1       8.947  16.050  18.133  0.00  0.00    +0.000 C 
ATOM     23  C   UNL     1      10.404  16.054  18.565  0.00  0.00    +0.000 C 
ENDBRANCH  21  23
ENDBRANCH  20  21
ENDBRANCH  19  20
ENDBRANCH  18  19
ENDBRANCH  17  18
ENDBRANCH  16  17
ENDBRANCH  15  16
ENDBRANCH  14  15
ENDBRANCH  13  14
ENDBRANCH  12  13
ENDBRANCH  11  12
ENDBRANCH   1  11
BRANCH   7  24
ATOM     24  C   UNL     1       5.373   4.830  15.241  0.00  0.00    +0.000 C 
BRANCH  24  25
ATOM     25  C   UNL     1       6.591   4.755  14.328  0.00  0.00    +0.000 C 
ATOM     26  O   UNL     1       6.516   3.869  13.444  0.00  0.00    +0.000 OA
ATOM     27  O   UNL     1       7.536   5.536  14.627  0.00  0.00    +0.000 OA
ENDBRANCH  24  25
ENDBRANCH   7  24
TORSDOF 15
ENDMDL
MODEL 9
REMARK VINA RESULT:      -6.1      7.091     10.605
REMARK  Name = 
REMARK  18 active torsions:
REMARK  status: ('A' for Active; 'I' for Inactive)
REMARK    1  A    between atoms: C_1  and  C_2
REMARK    2  A    between atoms: C_2  and  C_3
REMARK    3  A    between atoms: C_3  and  C_4
REMARK    4  A    between atoms: C_4  and  C_5
REMARK    5  A    between atoms: C_5  and  C_6
REMARK    6  A    between atoms: C_6  and  C_7
REMARK    7  A    between atoms: C_7  and  C_8
REMARK    8  A    between atoms: C_8  and  C_9
REMARK    9  A    between atoms: C_9  and  C_10
REMARK   10  A    between atoms: C_10  and  C_11
REMARK   11  A    between atoms: C_11  and  C_12
REMARK   12  A    between atoms: C_12  and  C_13
REMARK   13  A    between atoms: C_13  and  C_14
REMARK   14  A    between atoms: C_14  and  O_15
REMARK   15  A    between atoms: N_17  and  C_18
REMARK   16  A    between atoms: N_17  and  C_19
REMARK   17  A    between atoms: C_21  and  C_22
REMARK   18  A    between atoms: C_22  and  C_23
REMARK                            x       y       z     vdW  Elec       q    Type
REMARK                         _______ _______ _______ _____ _____    ______ ____
ROOT
ATOM      1  C   UNL     1       0.578  10.017  19.461  0.00  0.00    +0.000 C 
ATOM      2  C   UNL     1       1.039  11.294  20.215  0.00  0.00    +0.000 C 
ATOM      3  N   UNL     1       0.406  12.613  19.781  0.00  0.00    +0.000 N 
ATOM      4  C   UNL     1       1.011  13.197  18.517  0.00  0.00    +0.000 C 
ATOM      5  C   UNL     1       0.651  13.616  20.912  0.00  0.00    +0.000 C 
ATOM      6  C   UNL     1      -1.126  12.424  19.625  0.00  0.00    +0.000 C 
ATOM      7  C   UNL     1      -1.557  11.084  18.961  0.00  0.00    +0.000 C 
ATOM      8  O   UNL     1      -0.832   9.926  19.403  0.00  0.00    +0.000 OA
ENDROOT
BRANCH   1   9
ATOM      9  O   UNL     1       0.932   8.930  20.335  0.00  0.00    +0.000 OA
ATOM     10  H   UNL     1       1.643   9.291  20.894  0.00  0.00    +0.000 HD
ENDBRANCH   1   9
BRANCH   1  11
ATOM     11  C   UNL     1       1.289   9.743  18.111  0.00  0.00    +0.000 C 
BRANCH  11  12
ATOM     12  C   UNL     1       1.672   8.265  18.006  0.00  0.00    +0.000 C 
BRANCH  12  13
ATOM     13  C   UNL     1       3.146   7.925  17.843  0.00  0.00    +0.000 C 
BRANCH  13  14
ATOM     14  C   UNL     1       3.332   6.400  17.984  0.00  0.00    +0.000 C 
BRANCH  14  15
ATOM     15  C   UNL     1       4.396   5.785  17.057  0.00  0.00    +0.000 C 
BRANCH  15  16
ATOM     16  C   UNL     1       4.198   4.285  16.846  0.00  0.00    +0.000 C 
BRANCH  16  17
ATOM     17  C   UNL     1       4.297   3.542  18.173  0.00  0.00    +0.000 C 
BRANCH  17  18
ATOM     18  C   UNL     1       3.378   2.322  18.204  0.00  0.00    +0.000 C 
BRANCH  18  19
ATOM     19  C   UNL     1       1.938   2.756  17.954  0.00  0.00    +0.000 C 
BRANCH  19  20
ATOM     20  C   UNL     1       1.088   2.691  19.220  0.00  0.00    +0.000 C 
BRANCH  20  21
ATOM     21  C   UNL     1       1.082   4.055  19.911  0.00  0.00    +0.000 C 
BRANCH  21  23
ATOM     22  C   UNL     1       2.133   2.660  21.711  0.00  0.00    +0.000 C 
ATOM     23  C   UNL     1       1.971   4.063  21.150  0.00  0.00    +0.000 C 
ENDBRANCH  21  23
ENDBRANCH  20  21
ENDBRANCH  19  20
ENDBRANCH  18  19
ENDBRANCH  17  18
ENDBRANCH  16  17
ENDBRANCH  15  16
ENDBRANCH  14  15
ENDBRANCH  13  14
ENDBRANCH  12  13
ENDBRANCH  11  12
ENDBRANCH   1  11
BRANCH   7  24
ATOM     24  C   UNL     1      -1.693  11.066  17.451  0.00  0.00    +0.000 C 
BRANCH  24  25
ATOM     25  C   UNL     1      -3.152  11.118  17.016  0.00  0.00    +0.000 C 
ATOM     26  O   UNL     1      -3.320  11.065  15.774  0.00  0.00    +0.000 OA
ATOM     27  O   UNL     1      -3.985  11.283  17.948  0.00  0.00    +0.000 OA
ENDBRANCH  24  25
ENDBRANCH   7  24
TORSDOF 15
ENDMDL
