MODEL 1
REMARK VINA RESULT:      -7.5      0.000      0.000
REMARK  Name = 
REMARK  6 active torsions:
REMARK  status: ('A' for Active; 'I' for Inactive)
REMARK    1  A    between atoms: C_1  and  C_2
REMARK    2  A    between atoms: C_2  and  C_3
REMARK    3  A    between atoms: C_2  and  C_4
REMARK    4  A    between atoms: C_12  and  C_13
REMARK    5  A    between atoms: C_17  and  N_18
REMARK    6  A    between atoms: C_19  and  C_21
REMARK                            x       y       z     vdW  Elec       q    Type
REMARK                         _______ _______ _______ _____ _____    ______ ____
ROOT
ATOM      1  C   UNL     1      -3.909  11.091  17.489  0.00  0.00    +0.000 A 
ATOM      2  C   UNL     1      -5.161  11.555  17.335  0.00  0.00    +0.000 A 
ATOM      3  C   UNL     1      -5.688  12.537  18.299  0.00  0.00    +0.000 A 
ATOM      4  O   UNL     1      -6.809  13.013  18.188  0.00  0.00    +0.000 OA
ATOM      5  N   UNL     1      -4.826  12.864  19.297  0.00  0.00    +0.000 N 
ATOM      6  C   UNL     1      -3.567  12.329  19.356  0.00  0.00    +0.000 A 
ATOM      7  N   UNL     1      -2.840  12.828  20.445  0.00  0.00    +0.000 N 
ATOM      8  N   UNL     1      -3.448  13.661  21.332  0.00  0.00    +0.000 NA
ATOM      9  C   UNL     1      -2.473  14.000  22.172  0.00  0.00    +0.000 A 
ATOM     10  C   UNL     1      -1.243  13.397  21.848  0.00  0.00    +0.000 A 
ATOM     11  C   UNL     1      -1.503  12.592  20.760  0.00  0.00    +0.000 A 
ATOM     12  N   UNL     1      -3.066  11.481  18.517  0.00  0.00    +0.000 NA
ATOM     13  H   UNL     1      -5.123  13.542  19.992  0.00  0.00    +0.000 HD
ENDROOT
BRANCH  11  14
ATOM     14  N   UNL     1      -0.629  11.722  20.085  0.00  0.00    +0.000 N 
ATOM     15  C   UNL     1      -0.165  10.484  20.653  0.00  0.00    +0.000 C 
ATOM     16  O   UNL     1      -0.503  10.139  21.774  0.00  0.00    +0.000 OA
ATOM     17  H   UNL     1      -0.369  11.999  19.140  0.00  0.00    +0.000 HD
BRANCH  15  18
ATOM     18  C   UNL     1       0.716   9.606  19.842  0.00  0.00    +0.000 A 
ATOM     19  C   UNL     1       1.103   9.924  18.535  0.00  0.00    +0.000 A 
ATOM     20  C   UNL     1       1.978   9.076  17.845  0.00  0.00    +0.000 A 
ATOM     21  C   UNL     1       2.458   7.922  18.459  0.00  0.00    +0.000 A 
ATOM     22  F   UNL     1       3.299   7.121  17.793  0.00  0.00    +0.000 F 
ATOM     23  C   UNL     1       2.086   7.597  19.757  0.00  0.00    +0.000 A 
ATOM     24  C   UNL     1       1.220   8.441  20.452  0.00  0.00    +0.000 A 
ENDBRANCH  15  18
ENDBRANCH  11  14
BRANCH   1  26
ATOM     25  C   UNL     1      -3.419  10.612  15.070  0.00  0.00    +0.000 C 
ATOM     26  C   UNL     1      -3.329  10.085  16.505  0.00  0.00    +0.000 C 
ATOM     27  C   UNL     1      -1.882   9.738  16.864  0.00  0.00    +0.000 C 
ENDBRANCH   1  26
BRANCH   9  28
ATOM     28  C   UNL     1      -2.662  14.940  23.351  0.00  0.00    +0.000 C 
ATOM     29  C   UNL     1      -3.156  14.353  24.660  0.00  0.00    +0.000 C 
ATOM     30  C   UNL     1      -1.746  14.820  24.551  0.00  0.00    +0.000 C 
ENDBRANCH   9  28
TORSDOF 4
ENDMDL
MODEL 2
REMARK VINA RESULT:      -7.4      3.029      6.463
REMARK  Name = 
REMARK  6 active torsions:
REMARK  status: ('A' for Active; 'I' for Inactive)
REMARK    1  A    between atoms: C_1  and  C_2
REMARK    2  A    between atoms: C_2  and  C_3
REMARK    3  A    between atoms: C_2  and  C_4
REMARK    4  A    between atoms: C_12  and  C_13
REMARK    5  A    between atoms: C_17  and  N_18
REMARK    6  A    between atoms: C_19  and  C_21
REMARK                            x       y       z     vdW  Elec       q    Type
REMARK                         _______ _______ _______ _____ _____    ______ ____
ROOT
ATOM      1  C   UNL     1      -3.892  11.512  17.763  0.00  0.00    +0.000 A 
ATOM      2  C   UNL     1      -4.041  11.136  16.482  0.00  0.00    +0.000 A 
ATOM      3  C   UNL     1      -2.970  10.361  15.830  0.00  0.00    +0.000 A 
ATOM      4  O   UNL     1      -3.067   9.969  14.676  0.00  0.00    +0.000 OA
ATOM      5  N   UNL     1      -1.890  10.120  16.619  0.00  0.00    +0.000 N 
ATOM      6  C   UNL     1      -1.846  10.551  17.918  0.00  0.00    +0.000 A 
ATOM      7  N   UNL     1      -0.657  10.166  18.552  0.00  0.00    +0.000 N 
ATOM      8  N   UNL     1       0.311   9.533  17.837  0.00  0.00    +0.000 NA
ATOM      9  C   UNL     1       1.243   9.247  18.744  0.00  0.00    +0.000 A 
ATOM     10  C   UNL     1       0.898   9.688  20.035  0.00  0.00    +0.000 A 
ATOM     11  C   UNL     1      -0.310  10.336  19.893  0.00  0.00    +0.000 A 
ATOM     12  N   UNL     1      -2.774  11.215  18.527  0.00  0.00    +0.000 NA
ATOM     13  H   UNL     1      -1.118   9.585  16.234  0.00  0.00    +0.000 HD
ENDROOT
BRANCH  11  14
ATOM     14  N   UNL     1      -1.060  11.015  20.868  0.00  0.00    +0.000 N 
ATOM     15  C   UNL     1      -0.529  12.101  21.647  0.00  0.00    +0.000 C 
ATOM     16  O   UNL     1       0.626  12.472  21.505  0.00  0.00    +0.000 OA
ATOM     17  H   UNL     1      -2.030  10.721  20.966  0.00  0.00    +0.000 HD
BRANCH  15  18
ATOM     18  C   UNL     1      -1.415  12.792  22.618  0.00  0.00    +0.000 A 
ATOM     19  C   UNL     1      -2.632  12.251  23.046  0.00  0.00    +0.000 A 
ATOM     20  C   UNL     1      -3.395  12.932  24.003  0.00  0.00    +0.000 A 
ATOM     21  C   UNL     1      -2.942  14.142  24.523  0.00  0.00    +0.000 A 
ATOM     22  F   UNL     1      -3.675  14.781  25.442  0.00  0.00    +0.000 F 
ATOM     23  C   UNL     1      -1.733  14.687  24.111  0.00  0.00    +0.000 A 
ATOM     24  C   UNL     1      -0.966  14.010  23.163  0.00  0.00    +0.000 A 
ENDBRANCH  15  18
ENDBRANCH  11  14
BRANCH   1  26
ATOM     25  C   UNL     1      -6.325  11.570  18.392  0.00  0.00    +0.000 C 
ATOM     26  C   UNL     1      -4.983  12.303  18.471  0.00  0.00    +0.000 C 
ATOM     27  C   UNL     1      -4.603  12.581  19.928  0.00  0.00    +0.000 C 
ENDBRANCH   1  26
BRANCH   9  28
ATOM     28  C   UNL     1       2.537   8.518  18.423  0.00  0.00    +0.000 C 
ATOM     29  C   UNL     1       2.721   7.116  18.972  0.00  0.00    +0.000 C 
ATOM     30  C   UNL     1       2.501   7.308  17.511  0.00  0.00    +0.000 C 
ENDBRANCH   9  28
TORSDOF 4
ENDMDL
MODEL 3
REMARK VINA RESULT:      -7.3      0.576      1.162
REMARK  Name = 
REMARK  6 active torsions:
REMARK  status: ('A' for Active; 'I' for Inactive)
REMARK    1  A    between atoms: C_1  and  C_2
REMARK    2  A    between atoms: C_2  and  C_3
REMARK    3  A    between atoms: C_2  and  C_4
REMARK    4  A    between atoms: C_12  and  C_13
REMARK    5  A    between atoms: C_17  and  N_18
REMARK    6  A    between atoms: C_19  and  C_21
REMARK                            x       y       z     vdW  Elec       q    Type
REMARK                         _______ _______ _______ _____ _____    ______ ____
ROOT
ATOM      1  C   UNL     1      -3.628  11.215  17.837  0.00  0.00    +0.000 A 
ATOM      2  C   UNL     1      -4.857  11.742  17.710  0.00  0.00    +0.000 A 
ATOM      3  C   UNL     1      -5.356  12.663  18.747  0.00  0.00    +0.000 A 
ATOM      4  O   UNL     1      -6.454  13.194  18.666  0.00  0.00    +0.000 OA
ATOM      5  N   UNL     1      -4.493  12.871  19.777  0.00  0.00    +0.000 N 
ATOM      6  C   UNL     1      -3.258  12.279  19.802  0.00  0.00    +0.000 A 
ATOM      7  N   UNL     1      -2.526  12.656  20.936  0.00  0.00    +0.000 N 
ATOM      8  N   UNL     1      -3.110  13.438  21.883  0.00  0.00    +0.000 NA
ATOM      9  C   UNL     1      -2.132  13.665  22.757  0.00  0.00    +0.000 A 
ATOM     10  C   UNL     1      -0.924  13.040  22.396  0.00  0.00    +0.000 A 
ATOM     11  C   UNL     1      -1.203  12.339  21.243  0.00  0.00    +0.000 A 
ATOM     12  N   UNL     1      -2.782  11.483  18.901  0.00  0.00    +0.000 NA
ATOM     13  H   UNL     1      -4.771  13.500  20.523  0.00  0.00    +0.000 HD
ENDROOT
BRANCH  11  14
ATOM     14  N   UNL     1      -0.357  11.491  20.506  0.00  0.00    +0.000 N 
ATOM     15  C   UNL     1       0.112  10.227  21.007  0.00  0.00    +0.000 C 
ATOM     16  O   UNL     1      -0.196   9.838  22.123  0.00  0.00    +0.000 OA
ATOM     17  H   UNL     1      -0.123  11.806  19.567  0.00  0.00    +0.000 HD
BRANCH  15  18
ATOM     18  C   UNL     1       0.961   9.377  20.134  0.00  0.00    +0.000 A 
ATOM     19  C   UNL     1       1.441   8.125  20.535  0.00  0.00    +0.000 A 
ATOM     20  C   UNL     1       2.195   7.354  19.642  0.00  0.00    +0.000 A 
ATOM     21  C   UNL     1       2.464   7.833  18.362  0.00  0.00    +0.000 A 
ATOM     22  F   UNL     1       3.180   7.085  17.514  0.00  0.00    +0.000 F 
ATOM     23  C   UNL     1       1.989   9.071  17.950  0.00  0.00    +0.000 A 
ATOM     24  C   UNL     1       1.233   9.842  18.833  0.00  0.00    +0.000 A 
ENDBRANCH  15  18
ENDBRANCH  11  14
BRANCH   1  26
ATOM     25  C   UNL     1      -3.113  10.922  15.393  0.00  0.00    +0.000 C 
ATOM     26  C   UNL     1      -3.077  10.270  16.778  0.00  0.00    +0.000 C 
ATOM     27  C   UNL     1      -1.655   9.822  17.128  0.00  0.00    +0.000 C 
ENDBRANCH   1  26
BRANCH   9  28
ATOM     28  C   UNL     1      -2.297  14.513  24.008  0.00  0.00    +0.000 C 
ATOM     29  C   UNL     1      -2.696  15.967  23.837  0.00  0.00    +0.000 C 
ATOM     30  C   UNL     1      -3.679  14.998  24.398  0.00  0.00    +0.000 C 
ENDBRANCH   9  28
TORSDOF 4
ENDMDL
MODEL 4
REMARK VINA RESULT:      -7.2      6.208     11.127
REMARK  Name = 
REMARK  6 active torsions:
REMARK  status: ('A' for Active; 'I' for Inactive)
REMARK    1  A    between atoms: C_1  and  C_2
REMARK    2  A    between atoms: C_2  and  C_3
REMARK    3  A    between atoms: C_2  and  C_4
REMARK    4  A    between atoms: C_12  and  C_13
REMARK    5  A    between atoms: C_17  and  N_18
REMARK    6  A    between atoms: C_19  and  C_21
REMARK                            x       y       z     vdW  Elec       q    Type
REMARK                         _______ _______ _______ _____ _____    ______ ____
ROOT
ATOM      1  C   UNL     1       3.080   3.171  20.629  0.00  0.00    +0.000 A 
ATOM      2  C   UNL     1       3.747   2.057  20.973  0.00  0.00    +0.000 A 
ATOM      3  C   UNL     1       4.826   1.566  20.096  0.00  0.00    +0.000 A 
ATOM      4  O   UNL     1       5.484   0.574  20.376  0.00  0.00    +0.000 OA
ATOM      5  N   UNL     1       5.022   2.309  18.975  0.00  0.00    +0.000 N 
ATOM      6  C   UNL     1       4.280   3.433  18.726  0.00  0.00    +0.000 A 
ATOM      7  N   UNL     1       4.671   4.059  17.535  0.00  0.00    +0.000 N 
ATOM      8  N   UNL     1       5.614   3.475  16.748  0.00  0.00    +0.000 NA
ATOM      9  C   UNL     1       5.799   4.355  15.765  0.00  0.00    +0.000 A 
ATOM     10  C   UNL     1       4.988   5.497  15.899  0.00  0.00    +0.000 A 
ATOM     11  C   UNL     1       4.216   5.272  17.018  0.00  0.00    +0.000 A 
ATOM     12  N   UNL     1       3.341   3.902  19.482  0.00  0.00    +0.000 NA
ATOM     13  H   UNL     1       5.755   2.030  18.331  0.00  0.00    +0.000 HD
ENDROOT
BRANCH  11  14
ATOM     14  N   UNL     1       3.195   6.075  17.555  0.00  0.00    +0.000 N 
ATOM     15  C   UNL     1       3.413   7.428  17.992  0.00  0.00    +0.000 C 
ATOM     16  O   UNL     1       4.521   7.939  17.933  0.00  0.00    +0.000 OA
ATOM     17  H   UNL     1       2.267   5.656  17.579  0.00  0.00    +0.000 HD
BRANCH  15  18
ATOM     18  C   UNL     1       2.260   8.216  18.497  0.00  0.00    +0.000 A 
ATOM     19  C   UNL     1       1.824   8.149  19.825  0.00  0.00    +0.000 A 
ATOM     20  C   UNL     1       0.761   8.958  20.247  0.00  0.00    +0.000 A 
ATOM     21  C   UNL     1       0.144   9.823  19.347  0.00  0.00    +0.000 A 
ATOM     22  F   UNL     1      -0.866  10.597  19.762  0.00  0.00    +0.000 F 
ATOM     23  C   UNL     1       0.570   9.903  18.028  0.00  0.00    +0.000 A 
ATOM     24  C   UNL     1       1.632   9.104  17.603  0.00  0.00    +0.000 A 
ENDBRANCH  15  18
ENDBRANCH  11  14
BRANCH   1  26
ATOM     25  C   UNL     1       1.084   4.697  20.745  0.00  0.00    +0.000 C 
ATOM     26  C   UNL     1       1.968   3.713  21.517  0.00  0.00    +0.000 C 
ATOM     27  C   UNL     1       1.127   2.575  22.101  0.00  0.00    +0.000 C 
ENDBRANCH   1  26
BRANCH   9  28
ATOM     28  C   UNL     1       6.783   4.152  14.625  0.00  0.00    +0.000 C 
ATOM     29  C   UNL     1       6.240   3.685  13.288  0.00  0.00    +0.000 C 
ATOM     30  C   UNL     1       6.737   5.082  13.430  0.00  0.00    +0.000 C 
ENDBRANCH   9  28
TORSDOF 4
ENDMDL
MODEL 5
REMARK VINA RESULT:      -7.1      0.872      1.221
REMARK  Name = 
REMARK  6 active torsions:
REMARK  status: ('A' for Active; 'I' for Inactive)
REMARK    1  A    between atoms: C_1  and  C_2
REMARK    2  A    between atoms: C_2  and  C_3
REMARK    3  A    between atoms: C_2  and  C_4
REMARK    4  A    between atoms: C_12  and  C_13
REMARK    5  A    between atoms: C_17  and  N_18
REMARK    6  A    between atoms: C_19  and  C_21
REMARK                            x       y       z     vdW  Elec       q    Type
REMARK                         _______ _______ _______ _____ _____    ______ ____
ROOT
ATOM      1  C   UNL     1      -3.635  11.356  16.953  0.00  0.00    +0.000 A 
ATOM      2  C   UNL     1      -4.857  11.869  16.733  0.00  0.00    +0.000 A 
ATOM      3  C   UNL     1      -5.555  12.562  17.831  0.00  0.00    +0.000 A 
ATOM      4  O   UNL     1      -6.655  13.072  17.676  0.00  0.00    +0.000 OA
ATOM      5  N   UNL     1      -4.870  12.589  19.005  0.00  0.00    +0.000 N 
ATOM      6  C   UNL     1      -3.624  12.032  19.115  0.00  0.00    +0.000 A 
ATOM      7  N   UNL     1      -3.092  12.202  20.401  0.00  0.00    +0.000 N 
ATOM      8  N   UNL     1      -3.853  12.774  21.371  0.00  0.00    +0.000 NA
ATOM      9  C   UNL     1      -3.031  12.853  22.417  0.00  0.00    +0.000 A 
ATOM     10  C   UNL     1      -1.752  12.336  22.142  0.00  0.00    +0.000 A 
ATOM     11  C   UNL     1      -1.816  11.862  20.849  0.00  0.00    +0.000 A 
ATOM     12  N   UNL     1      -2.975  11.435  18.169  0.00  0.00    +0.000 NA
ATOM     13  H   UNL     1      -5.290  13.057  19.801  0.00  0.00    +0.000 HD
ENDROOT
BRANCH  11  14
ATOM     14  N   UNL     1      -0.825  11.192  20.112  0.00  0.00    +0.000 N 
ATOM     15  C   UNL     1      -0.225   9.959  20.548  0.00  0.00    +0.000 C 
ATOM     16  O   UNL     1      -0.544   9.444  21.608  0.00  0.00    +0.000 OA
ATOM     17  H   UNL     1      -0.579  11.609  19.216  0.00  0.00    +0.000 HD
BRANCH  15  18
ATOM     18  C   UNL     1       0.778   9.298  19.675  0.00  0.00    +0.000 A 
ATOM     19  C   UNL     1       1.143   9.808  18.424  0.00  0.00    +0.000 A 
ATOM     20  C   UNL     1       2.133   9.161  17.674  0.00  0.00    +0.000 A 
ATOM     21  C   UNL     1       2.748   8.015  18.173  0.00  0.00    +0.000 A 
ATOM     22  F   UNL     1       3.698   7.409  17.452  0.00  0.00    +0.000 F 
ATOM     23  C   UNL     1       2.399   7.502  19.415  0.00  0.00    +0.000 A 
ATOM     24  C   UNL     1       1.418   8.145  20.170  0.00  0.00    +0.000 A 
ENDBRANCH  15  18
ENDBRANCH  11  14
BRANCH   1  26
ATOM     25  C   UNL     1      -2.008   9.520  16.403  0.00  0.00    +0.000 C 
ATOM     26  C   UNL     1      -2.881  10.644  15.839  0.00  0.00    +0.000 C 
ATOM     27  C   UNL     1      -3.847  10.099  14.783  0.00  0.00    +0.000 C 
ENDBRANCH   1  26
BRANCH   9  28
ATOM     28  C   UNL     1      -3.429  13.441  23.760  0.00  0.00    +0.000 C 
ATOM     29  C   UNL     1      -4.896  13.745  24.000  0.00  0.00    +0.000 C 
ATOM     30  C   UNL     1      -4.256  12.609  24.720  0.00  0.00    +0.000 C 
ENDBRANCH   9  28
TORSDOF 4
ENDMDL
MODEL 6
REMARK VINA RESULT:      -7.1      3.119      6.491
REMARK  Name = 
REMARK  6 active torsions:
REMARK  status: ('A' for Active; 'I' for Inactive)
REMARK    1  A    between atoms: C_1  and  C_2
REMARK    2  A    between atoms: C_2  and  C_3
REMARK    3  A    between atoms: C_2  and  C_4
REMARK    4  A    between atoms: C_12  and  C_13
REMARK    5  A    between atoms: C_17  and  N_18
REMARK    6  A    between atoms: C_19  and  C_21
REMARK                            x       y       z     vdW  Elec       q    Type
REMARK                         _______ _______ _______ _____ _____    ______ ____
ROOT
ATOM      1  C   UNL     1      -4.150  11.527  17.508  0.00  0.00    +0.000 A 
ATOM      2  C   UNL     1      -4.233  11.086  16.242  0.00  0.00    +0.000 A 
ATOM      3  C   UNL     1      -3.102  10.335  15.666  0.00  0.00    +0.000 A 
ATOM      4  O   UNL     1      -3.137   9.886  14.529  0.00  0.00    +0.000 OA
ATOM      5  N   UNL     1      -2.043  10.184  16.503  0.00  0.00    +0.000 N 
ATOM      6  C   UNL     1      -2.068  10.676  17.781  0.00  0.00    +0.000 A 
ATOM      7  N   UNL     1      -0.887  10.379  18.475  0.00  0.00    +0.000 N 
ATOM      8  N   UNL     1       0.136   9.763  17.825  0.00  0.00    +0.000 NA
ATOM      9  C   UNL     1       1.045   9.565  18.777  0.00  0.00    +0.000 A 
ATOM     10  C   UNL     1       0.631  10.047  20.033  0.00  0.00    +0.000 A 
ATOM     11  C   UNL     1      -0.600  10.628  19.817  0.00  0.00    +0.000 A 
ATOM     12  N   UNL     1      -3.050  11.321  18.324  0.00  0.00    +0.000 NA
ATOM     13  H   UNL     1      -1.232   9.670  16.172  0.00  0.00    +0.000 HD
ENDROOT
BRANCH  11  14
ATOM     14  N   UNL     1      -1.418  11.314  20.731  0.00  0.00    +0.000 N 
ATOM     15  C   UNL     1      -1.316  12.730  20.961  0.00  0.00    +0.000 C 
ATOM     16  O   UNL     1      -0.485  13.406  20.374  0.00  0.00    +0.000 OA
ATOM     17  H   UNL     1      -2.127  10.753  21.200  0.00  0.00    +0.000 HD
BRANCH  15  18
ATOM     18  C   UNL     1      -2.259  13.375  21.910  0.00  0.00    +0.000 A 
ATOM     19  C   UNL     1      -2.646  14.715  21.797  0.00  0.00    +0.000 A 
ATOM     20  C   UNL     1      -3.580  15.245  22.696  0.00  0.00    +0.000 A 
ATOM     21  C   UNL     1      -4.118  14.440  23.697  0.00  0.00    +0.000 A 
ATOM     22  F   UNL     1      -5.014  14.955  24.547  0.00  0.00    +0.000 F 
ATOM     23  C   UNL     1      -3.747  13.108  23.817  0.00  0.00    +0.000 A 
ATOM     24  C   UNL     1      -2.822  12.572  22.921  0.00  0.00    +0.000 A 
ENDBRANCH  15  18
ENDBRANCH  11  14
BRANCH   1  26
ATOM     25  C   UNL     1      -6.627  11.550  17.940  0.00  0.00    +0.000 C 
ATOM     26  C   UNL     1      -5.303  12.295  18.137  0.00  0.00    +0.000 C 
ATOM     27  C   UNL     1      -5.045  12.553  19.624  0.00  0.00    +0.000 C 
ENDBRANCH   1  26
BRANCH   9  28
ATOM     28  C   UNL     1       2.384   8.886  18.538  0.00  0.00    +0.000 C 
ATOM     29  C   UNL     1       2.491   7.399  18.820  0.00  0.00    +0.000 C 
ATOM     30  C   UNL     1       2.516   7.883  17.411  0.00  0.00    +0.000 C 
ENDBRANCH   9  28
TORSDOF 4
ENDMDL
MODEL 7
REMARK VINA RESULT:      -7.1      5.915      9.014
REMARK  Name = 
REMARK  6 active torsions:
REMARK  status: ('A' for Active; 'I' for Inactive)
REMARK    1  A    between atoms: C_1  and  C_2
REMARK    2  A    between atoms: C_2  and  C_3
REMARK    3  A    between atoms: C_2  and  C_4
REMARK    4  A    between atoms: C_12  and  C_13
REMARK    5  A    between atoms: C_17  and  N_18
REMARK    6  A    between atoms: C_19  and  C_21
REMARK                            x       y       z     vdW  Elec       q    Type
REMARK                         _______ _______ _______ _____ _____    ______ ____
ROOT
ATOM      1  C   UNL     1       2.820   2.508  19.516  0.00  0.00    +0.000 A 
ATOM      2  C   UNL     1       2.212   2.024  20.611  0.00  0.00    +0.000 A 
ATOM      3  C   UNL     1       1.530   2.957  21.527  0.00  0.00    +0.000 A 
ATOM      4  O   UNL     1       0.936   2.566  22.522  0.00  0.00    +0.000 OA
ATOM      5  N   UNL     1       1.614   4.263  21.165  0.00  0.00    +0.000 N 
ATOM      6  C   UNL     1       2.262   4.645  20.020  0.00  0.00    +0.000 A 
ATOM      7  N   UNL     1       2.199   6.031  19.826  0.00  0.00    +0.000 N 
ATOM      8  N   UNL     1       1.627   6.817  20.777  0.00  0.00    +0.000 NA
ATOM      9  C   UNL     1       1.663   8.038  20.247  0.00  0.00    +0.000 A 
ATOM     10  C   UNL     1       2.253   8.058  18.969  0.00  0.00    +0.000 A 
ATOM     11  C   UNL     1       2.652   6.761  18.727  0.00  0.00    +0.000 A 
ATOM     12  N   UNL     1       2.853   3.853  19.185  0.00  0.00    +0.000 NA
ATOM     13  H   UNL     1       1.160   4.959  21.748  0.00  0.00    +0.000 HD
ENDROOT
BRANCH  11  14
ATOM     14  N   UNL     1       3.350   6.252  17.619  0.00  0.00    +0.000 N 
ATOM     15  C   UNL     1       4.782   6.113  17.594  0.00  0.00    +0.000 C 
ATOM     16  O   UNL     1       5.465   6.457  18.545  0.00  0.00    +0.000 OA
ATOM     17  H   UNL     1       2.777   5.942  16.837  0.00  0.00    +0.000 HD
BRANCH  15  18
ATOM     18  C   UNL     1       5.426   5.516  16.396  0.00  0.00    +0.000 A 
ATOM     19  C   UNL     1       6.815   5.481  16.224  0.00  0.00    +0.000 A 
ATOM     20  C   UNL     1       7.357   4.857  15.094  0.00  0.00    +0.000 A 
ATOM     21  C   UNL     1       6.517   4.276  14.148  0.00  0.00    +0.000 A 
ATOM     22  F   UNL     1       7.046   3.676  13.075  0.00  0.00    +0.000 F 
ATOM     23  C   UNL     1       5.138   4.299  14.309  0.00  0.00    +0.000 A 
ATOM     24  C   UNL     1       4.591   4.914  15.435  0.00  0.00    +0.000 A 
ENDBRANCH  15  18
ENDBRANCH  11  14
BRANCH   1  26
ATOM     25  C   UNL     1       3.973   2.327  17.289  0.00  0.00    +0.000 C 
ATOM     26  C   UNL     1       3.524   1.572  18.543  0.00  0.00    +0.000 C 
ATOM     27  C   UNL     1       4.713   0.878  19.211  0.00  0.00    +0.000 C 
ENDBRANCH   1  26
BRANCH   9  28
ATOM     28  C   UNL     1       1.120   9.276  20.941  0.00  0.00    +0.000 C 
ATOM     29  C   UNL     1      -0.280   9.739  20.584  0.00  0.00    +0.000 C 
ATOM     30  C   UNL     1      -0.026   9.135  21.921  0.00  0.00    +0.000 C 
ENDBRANCH   9  28
TORSDOF 4
ENDMDL
MODEL 8
REMARK VINA RESULT:      -7.0      0.812      1.212
REMARK  Name = 
REMARK  6 active torsions:
REMARK  status: ('A' for Active; 'I' for Inactive)
REMARK    1  A    between atoms: C_1  and  C_2
REMARK    2  A    between atoms: C_2  and  C_3
REMARK    3  A    between atoms: C_2  and  C_4
REMARK    4  A    between atoms: C_12  and  C_13
REMARK    5  A    between atoms: C_17  and  N_18
REMARK    6  A    between atoms: C_19  and  C_21
REMARK                            x       y       z     vdW  Elec       q    Type
REMARK                         _______ _______ _______ _____ _____    ______ ____
ROOT
ATOM      1  C   UNL     1      -3.887  11.044  17.494  0.00  0.00    +0.000 A 
ATOM      2  C   UNL     1      -4.970  11.731  17.096  0.00  0.00    +0.000 A 
ATOM      3  C   UNL     1      -5.467  12.839  17.932  0.00  0.00    +0.000 A 
ATOM      4  O   UNL     1      -6.431  13.515  17.601  0.00  0.00    +0.000 OA
ATOM      5  N   UNL     1      -4.762  13.040  19.076  0.00  0.00    +0.000 N 
ATOM      6  C   UNL     1      -3.667  12.277  19.382  0.00  0.00    +0.000 A 
ATOM      7  N   UNL     1      -3.076  12.677  20.588  0.00  0.00    +0.000 N 
ATOM      8  N   UNL     1      -3.665  13.650  21.333  0.00  0.00    +0.000 NA
ATOM      9  C   UNL     1      -2.819  13.834  22.345  0.00  0.00    +0.000 A 
ATOM     10  C   UNL     1      -1.693  12.993  22.270  0.00  0.00    +0.000 A 
ATOM     11  C   UNL     1      -1.895  12.203  21.159  0.00  0.00    +0.000 A 
ATOM     12  N   UNL     1      -3.193  11.311  18.663  0.00  0.00    +0.000 NA
ATOM     13  H   UNL     1      -5.046  13.792  19.695  0.00  0.00    +0.000 HD
ENDROOT
BRANCH  11  14
ATOM     14  N   UNL     1      -1.098  11.152  20.673  0.00  0.00    +0.000 N 
ATOM     15  C   UNL     1       0.111  11.370  19.925  0.00  0.00    +0.000 C 
ATOM     16  O   UNL     1       0.492  12.499  19.658  0.00  0.00    +0.000 OA
ATOM     17  H   UNL     1      -1.404  10.213  20.920  0.00  0.00    +0.000 HD
BRANCH  15  18
ATOM     18  C   UNL     1       0.915  10.196  19.498  0.00  0.00    +0.000 A 
ATOM     19  C   UNL     1       1.079   9.062  20.301  0.00  0.00    +0.000 A 
ATOM     20  C   UNL     1       1.808   7.969  19.816  0.00  0.00    +0.000 A 
ATOM     21  C   UNL     1       2.366   8.014  18.541  0.00  0.00    +0.000 A 
ATOM     22  F   UNL     1       3.055   6.962  18.084  0.00  0.00    +0.000 F 
ATOM     23  C   UNL     1       2.206   9.132  17.732  0.00  0.00    +0.000 A 
ATOM     24  C   UNL     1       1.476  10.221  18.207  0.00  0.00    +0.000 A 
ENDBRANCH  15  18
ENDBRANCH  11  14
BRANCH   1  26
ATOM     25  C   UNL     1      -3.551  10.177  15.158  0.00  0.00    +0.000 C 
ATOM     26  C   UNL     1      -3.340   9.901  16.649  0.00  0.00    +0.000 C 
ATOM     27  C   UNL     1      -1.859   9.655  16.950  0.00  0.00    +0.000 C 
ENDBRANCH   1  26
BRANCH   9  28
ATOM     28  C   UNL     1      -3.039  14.846  23.457  0.00  0.00    +0.000 C 
ATOM     29  C   UNL     1      -3.504  14.332  24.807  0.00  0.00    +0.000 C 
ATOM     30  C   UNL     1      -2.113  14.845  24.656  0.00  0.00    +0.000 C 
ENDBRANCH   9  28
TORSDOF 4
ENDMDL
MODEL 9
REMARK VINA RESULT:      -7.0      6.000     10.694
REMARK  Name = 
REMARK  6 active torsions:
REMARK  status: ('A' for Active; 'I' for Inactive)
REMARK    1  A    between atoms: C_1  and  C_2
REMARK    2  A    between atoms: C_2  and  C_3
REMARK    3  A    between atoms: C_2  and  C_4
REMARK    4  A    between atoms: C_12  and  C_13
REMARK    5  A    between atoms: C_17  and  N_18
REMARK    6  A    between atoms: C_19  and  C_21
REMARK                            x       y       z     vdW  Elec       q    Type
REMARK                         _______ _______ _______ _____ _____    ______ ____
ROOT
ATOM      1  C   UNL     1       2.784   3.408  20.008  0.00  0.00    +0.000 A 
ATOM      2  C   UNL     1       3.012   2.098  19.818  0.00  0.00    +0.000 A 
ATOM      3  C   UNL     1       3.774   1.665  18.632  0.00  0.00    +0.000 A 
ATOM      4  O   UNL     1       4.035   0.488  18.428  0.00  0.00    +0.000 OA
ATOM      5  N   UNL     1       4.158   2.676  17.811  0.00  0.00    +0.000 N 
ATOM      6  C   UNL     1       3.871   3.982  18.105  0.00  0.00    +0.000 A 
ATOM      7  N   UNL     1       4.388   4.858  17.141  0.00  0.00    +0.000 N 
ATOM      8  N   UNL     1       4.996   4.353  16.034  0.00  0.00    +0.000 NA
ATOM      9  C   UNL     1       5.430   5.434  15.387  0.00  0.00    +0.000 A 
ATOM     10  C   UNL     1       5.109   6.631  16.054  0.00  0.00    +0.000 A 
ATOM     11  C   UNL     1       4.382   6.252  17.162  0.00  0.00    +0.000 A 
ATOM     12  N   UNL     1       3.223   4.399  19.145  0.00  0.00    +0.000 NA
ATOM     13  H   UNL     1       4.693   2.449  16.979  0.00  0.00    +0.000 HD
ENDROOT
BRANCH  11  14
ATOM     14  N   UNL     1       3.768   7.068  18.128  0.00  0.00    +0.000 N 
ATOM     15  C   UNL     1       2.371   7.410  18.088  0.00  0.00    +0.000 C 
ATOM     16  O   UNL     1       1.650   7.014  17.186  0.00  0.00    +0.000 OA
ATOM     17  H   UNL     1       4.365   7.376  18.893  0.00  0.00    +0.000 HD
BRANCH  15  18
ATOM     18  C   UNL     1       1.801   8.237  19.183  0.00  0.00    +0.000 A 
ATOM     19  C   UNL     1       1.805   7.825  20.520  0.00  0.00    +0.000 A 
ATOM     20  C   UNL     1       1.297   8.677  21.509  0.00  0.00    +0.000 A 
ATOM     21  C   UNL     1       0.791   9.926  21.160  0.00  0.00    +0.000 A 
ATOM     22  F   UNL     1       0.314  10.735  22.113  0.00  0.00    +0.000 F 
ATOM     23  C   UNL     1       0.786  10.349  19.837  0.00  0.00    +0.000 A 
ATOM     24  C   UNL     1       1.296   9.508  18.848  0.00  0.00    +0.000 A 
ENDBRANCH  15  18
ENDBRANCH  11  14
BRANCH   1  26
ATOM     25  C   UNL     1       0.829   4.771  20.810  0.00  0.00    +0.000 C 
ATOM     26  C   UNL     1       2.011   3.891  21.227  0.00  0.00    +0.000 C 
ATOM     27  C   UNL     1       1.534   2.712  22.078  0.00  0.00    +0.000 C 
ENDBRANCH   1  26
BRANCH   9  28
ATOM     28  C   UNL     1       6.193   5.382  14.074  0.00  0.00    +0.000 C 
ATOM     29  C   UNL     1       7.577   4.760  14.078  0.00  0.00    +0.000 C 
ATOM     30  C   UNL     1       6.452   4.041  13.419  0.00  0.00    +0.000 C 
ENDBRANCH   9  28
TORSDOF 4
ENDMDL
