MODEL 1
REMARK VINA RESULT:      -7.7      0.000      0.000
REMARK  Name = 
REMARK  5 active torsions:
REMARK  status: ('A' for Active; 'I' for Inactive)
REMARK    1  A    between atoms: C_1  and  O_2
REMARK    2  A    between atoms: O_2  and  C_3
REMARK    3  A    between atoms: C_6  and  C_7
REMARK    4  A    between atoms: C_7  and  O_8
REMARK    5  A    between atoms: O_8  and  C_9
REMARK                            x       y       z     vdW  Elec       q    Type
REMARK                         _______ _______ _______ _____ _____    ______ ____
ROOT
ATOM      1  C   UNL     1       5.213   5.290  17.565  0.00  0.00    +0.000 C 
ATOM      2  C   UNL     1       4.024   6.233  17.652  0.00  0.00    +0.000 C 
ATOM      3  C   UNL     1       2.850   5.874  18.185  0.00  0.00    +0.000 C 
ATOM      4  C   UNL     1       2.678   4.503  18.795  0.00  0.00    +0.000 C 
ATOM      5  C   UNL     1       1.259   3.948  18.538  0.00  0.00    +0.000 C 
ATOM      6  C   UNL     1       0.957   2.697  19.375  0.00  0.00    +0.000 C 
ATOM      7  C   UNL     1       1.136   2.975  20.861  0.00  0.00    +0.000 C 
ATOM      8  C   UNL     1       2.559   3.426  21.151  0.00  0.00    +0.000 C 
ATOM      9  C   UNL     1       2.937   4.639  20.312  0.00  0.00    +0.000 C 
ATOM     10  O   UNL     1       3.575   3.605  18.100  0.00  0.00    +0.000 OA
ATOM     11  O   UNL     1       4.969   4.052  18.273  0.00  0.00    +0.000 OA
ENDROOT
BRANCH   1  15
ATOM     12  C   UNL     1       6.487   4.171  13.538  0.00  0.00    +0.000 A 
ATOM     13  C   UNL     1       5.143   4.112  13.897  0.00  0.00    +0.000 A 
ATOM     14  C   UNL     1       4.719   4.571  15.154  0.00  0.00    +0.000 A 
ATOM     15  C   UNL     1       5.638   5.069  16.096  0.00  0.00    +0.000 A 
ATOM     16  C   UNL     1       6.976   5.201  15.678  0.00  0.00    +0.000 A 
ATOM     17  C   UNL     1       7.402   4.738  14.422  0.00  0.00    +0.000 A 
BRANCH  12  19
ATOM     18  C   UNL     1       5.858   2.660  11.818  0.00  0.00    +0.000 C 
ATOM     19  O   UNL     1       6.791   3.602  12.330  0.00  0.00    +0.000 OA
ENDBRANCH  12  19
ENDBRANCH   1  15
BRANCH   1  20
ATOM     20  O   UNL     1       6.327   5.982  18.177  0.00  0.00    +0.000 OA
ATOM     21  C   UNL     1       6.721   5.493  19.449  0.00  0.00    +0.000 C 
ENDBRANCH   1  20
TORSDOF 3
ENDMDL
MODEL 2
REMARK VINA RESULT:      -7.6      0.473      1.118
REMARK  Name = 
REMARK  5 active torsions:
REMARK  status: ('A' for Active; 'I' for Inactive)
REMARK    1  A    between atoms: C_1  and  O_2
REMARK    2  A    between atoms: O_2  and  C_3
REMARK    3  A    between atoms: C_6  and  C_7
REMARK    4  A    between atoms: C_7  and  O_8
REMARK    5  A    between atoms: O_8  and  C_9
REMARK                            x       y       z     vdW  Elec       q    Type
REMARK                         _______ _______ _______ _____ _____    ______ ____
ROOT
ATOM      1  C   UNL     1       5.272   5.176  17.727  0.00  0.00    +0.000 C 
ATOM      2  C   UNL     1       4.027   6.028  17.538  0.00  0.00    +0.000 C 
ATOM      3  C   UNL     1       2.827   5.675  18.015  0.00  0.00    +0.000 C 
ATOM      4  C   UNL     1       2.672   4.416  18.834  0.00  0.00    +0.000 C 
ATOM      5  C   UNL     1       1.323   3.720  18.546  0.00  0.00    +0.000 C 
ATOM      6  C   UNL     1       1.009   2.608  19.555  0.00  0.00    +0.000 C 
ATOM      7  C   UNL     1       1.015   3.142  20.981  0.00  0.00    +0.000 C 
ATOM      8  C   UNL     1       2.371   3.741  21.319  0.00  0.00    +0.000 C 
ATOM      9  C   UNL     1       2.764   4.823  20.322  0.00  0.00    +0.000 C 
ATOM     10  O   UNL     1       3.689   3.485  18.391  0.00  0.00    +0.000 OA
ATOM     11  O   UNL     1       5.028   4.058  18.613  0.00  0.00    +0.000 OA
ENDROOT
BRANCH   1  15
ATOM     12  C   UNL     1       6.708   4.379  13.678  0.00  0.00    +0.000 A 
ATOM     13  C   UNL     1       7.464   5.148  14.559  0.00  0.00    +0.000 A 
ATOM     14  C   UNL     1       7.056   5.316  15.891  0.00  0.00    +0.000 A 
ATOM     15  C   UNL     1       5.860   4.746  16.365  0.00  0.00    +0.000 A 
ATOM     16  C   UNL     1       5.160   3.901  15.482  0.00  0.00    +0.000 A 
ATOM     17  C   UNL     1       5.565   3.736  14.147  0.00  0.00    +0.000 A 
BRANCH  12  19
ATOM     18  C   UNL     1       6.883   3.201  11.624  0.00  0.00    +0.000 C 
ATOM     19  O   UNL     1       7.154   4.372  12.383  0.00  0.00    +0.000 OA
ENDBRANCH  12  19
ENDBRANCH   1  15
BRANCH   1  20
ATOM     20  O   UNL     1       6.274   6.043  18.311  0.00  0.00    +0.000 OA
ATOM     21  C   UNL     1       6.926   5.528  19.460  0.00  0.00    +0.000 C 
ENDBRANCH   1  20
TORSDOF 3
ENDMDL
MODEL 3
REMARK VINA RESULT:      -7.5      2.371      6.684
REMARK  Name = 
REMARK  5 active torsions:
REMARK  status: ('A' for Active; 'I' for Inactive)
REMARK    1  A    between atoms: C_1  and  O_2
REMARK    2  A    between atoms: O_2  and  C_3
REMARK    3  A    between atoms: C_6  and  C_7
REMARK    4  A    between atoms: C_7  and  O_8
REMARK    5  A    between atoms: O_8  and  C_9
REMARK                            x       y       z     vdW  Elec       q    Type
REMARK                         _______ _______ _______ _____ _____    ______ ____
ROOT
ATOM      1  C   UNL     1       5.889   6.408  16.720  0.00  0.00    +0.000 C 
ATOM      2  C   UNL     1       6.735   5.164  16.941  0.00  0.00    +0.000 C 
ATOM      3  C   UNL     1       7.010   4.291  15.965  0.00  0.00    +0.000 C 
ATOM      4  C   UNL     1       6.532   4.548  14.556  0.00  0.00    +0.000 C 
ATOM      5  C   UNL     1       6.133   3.232  13.850  0.00  0.00    +0.000 C 
ATOM      6  C   UNL     1       5.915   3.418  12.343  0.00  0.00    +0.000 C 
ATOM      7  C   UNL     1       7.154   3.999  11.676  0.00  0.00    +0.000 C 
ATOM      8  C   UNL     1       7.505   5.347  12.290  0.00  0.00    +0.000 C 
ATOM      9  C   UNL     1       7.687   5.239  13.797  0.00  0.00    +0.000 C 
ATOM     10  O   UNL     1       5.312   5.321  14.648  0.00  0.00    +0.000 OA
ATOM     11  O   UNL     1       5.580   6.605  15.321  0.00  0.00    +0.000 OA
ENDROOT
BRANCH   1  15
ATOM     12  C   UNL     1       2.578   6.682  19.559  0.00  0.00    +0.000 A 
ATOM     13  C   UNL     1       2.652   7.549  18.472  0.00  0.00    +0.000 A 
ATOM     14  C   UNL     1       3.654   7.394  17.502  0.00  0.00    +0.000 A 
ATOM     15  C   UNL     1       4.630   6.387  17.617  0.00  0.00    +0.000 A 
ATOM     16  C   UNL     1       4.482   5.469  18.675  0.00  0.00    +0.000 A 
ATOM     17  C   UNL     1       3.482   5.626  19.648  0.00  0.00    +0.000 A 
BRANCH  12  19
ATOM     18  C   UNL     1       1.393   8.378  20.725  0.00  0.00    +0.000 C 
ATOM     19  O   UNL     1       1.621   6.995  20.488  0.00  0.00    +0.000 OA
ENDBRANCH  12  19
ENDBRANCH   1  15
BRANCH   1  20
ATOM     20  O   UNL     1       6.673   7.525  17.203  0.00  0.00    +0.000 OA
ATOM     21  C   UNL     1       7.768   7.183  18.036  0.00  0.00    +0.000 C 
ENDBRANCH   1  20
TORSDOF 3
ENDMDL
MODEL 4
REMARK VINA RESULT:      -7.4      1.919      6.478
REMARK  Name = 
REMARK  5 active torsions:
REMARK  status: ('A' for Active; 'I' for Inactive)
REMARK    1  A    between atoms: C_1  and  O_2
REMARK    2  A    between atoms: O_2  and  C_3
REMARK    3  A    between atoms: C_6  and  C_7
REMARK    4  A    between atoms: C_7  and  O_8
REMARK    5  A    between atoms: O_8  and  C_9
REMARK                            x       y       z     vdW  Elec       q    Type
REMARK                         _______ _______ _______ _____ _____    ______ ____
ROOT
ATOM      1  C   UNL     1       6.124   6.462  16.806  0.00  0.00    +0.000 C 
ATOM      2  C   UNL     1       6.983   5.220  16.983  0.00  0.00    +0.000 C 
ATOM      3  C   UNL     1       7.185   4.332  16.002  0.00  0.00    +0.000 C 
ATOM      4  C   UNL     1       6.604   4.568  14.628  0.00  0.00    +0.000 C 
ATOM      5  C   UNL     1       6.152   3.244  13.973  0.00  0.00    +0.000 C 
ATOM      6  C   UNL     1       5.825   3.408  12.483  0.00  0.00    +0.000 C 
ATOM      7  C   UNL     1       7.012   3.976  11.719  0.00  0.00    +0.000 C 
ATOM      8  C   UNL     1       7.409   5.331  12.284  0.00  0.00    +0.000 C 
ATOM      9  C   UNL     1       7.701   5.245  13.776  0.00  0.00    +0.000 C 
ATOM     10  O   UNL     1       5.396   5.346  14.798  0.00  0.00    +0.000 OA
ATOM     11  O   UNL     1       5.713   6.640  15.430  0.00  0.00    +0.000 OA
ENDROOT
BRANCH   1  15
ATOM     12  C   UNL     1       2.577   6.052  19.323  0.00  0.00    +0.000 A 
ATOM     13  C   UNL     1       3.744   5.356  19.627  0.00  0.00    +0.000 A 
ATOM     14  C   UNL     1       4.915   5.568  18.883  0.00  0.00    +0.000 A 
ATOM     15  C   UNL     1       4.935   6.457  17.793  0.00  0.00    +0.000 A 
ATOM     16  C   UNL     1       3.770   7.213  17.561  0.00  0.00    +0.000 A 
ATOM     17  C   UNL     1       2.596   6.999  18.303  0.00  0.00    +0.000 A 
BRANCH  12  19
ATOM     18  C   UNL     1       1.383   4.317  20.420  0.00  0.00    +0.000 C 
ATOM     19  O   UNL     1       1.477   5.687  20.054  0.00  0.00    +0.000 OA
ENDBRANCH  12  19
ENDBRANCH   1  15
BRANCH   1  20
ATOM     20  O   UNL     1       6.943   7.585  17.212  0.00  0.00    +0.000 OA
ATOM     21  C   UNL     1       7.964   7.282  18.150  0.00  0.00    +0.000 C 
ENDBRANCH   1  20
TORSDOF 3
ENDMDL
MODEL 5
REMARK VINA RESULT:      -7.0      0.938      1.082
REMARK  Name = 
REMARK  5 active torsions:
REMARK  status: ('A' for Active; 'I' for Inactive)
REMARK    1  A    between atoms: C_1  and  O_2
REMARK    2  A    between atoms: O_2  and  C_3
REMARK    3  A    between atoms: C_6  and  C_7
REMARK    4  A    between atoms: C_7  and  O_8
REMARK    5  A    between atoms: O_8  and  C_9
REMARK                            x       y       z     vdW  Elec       q    Type
REMARK                         _______ _______ _______ _____ _____    ______ ____
ROOT
ATOM      1  C   UNL     1       5.800   5.338  16.694  0.00  0.00    +0.000 C 
ATOM      2  C   UNL     1       4.836   6.508  16.802  0.00  0.00    +0.000 C 
ATOM      3  C   UNL     1       3.654   6.419  17.423  0.00  0.00    +0.000 C 
ATOM      4  C   UNL     1       3.249   5.138  18.112  0.00  0.00    +0.000 C 
ATOM      5  C   UNL     1       1.733   4.878  17.968  0.00  0.00    +0.000 C 
ATOM      6  C   UNL     1       1.242   3.749  18.885  0.00  0.00    +0.000 C 
ATOM      7  C   UNL     1       1.574   4.041  20.341  0.00  0.00    +0.000 C 
ATOM      8  C   UNL     1       3.076   4.200  20.522  0.00  0.00    +0.000 C 
ATOM      9  C   UNL     1       3.635   5.276  19.602  0.00  0.00    +0.000 C 
ATOM     10  O   UNL     1       3.895   4.049  17.411  0.00  0.00    +0.000 OA
ATOM     11  O   UNL     1       5.360   4.205  17.478  0.00  0.00    +0.000 OA
ENDROOT
BRANCH   1  15
ATOM     12  C   UNL     1       6.761   3.879  12.689  0.00  0.00    +0.000 A 
ATOM     13  C   UNL     1       5.524   3.601  13.266  0.00  0.00    +0.000 A 
ATOM     14  C   UNL     1       5.174   4.157  14.506  0.00  0.00    +0.000 A 
ATOM     15  C   UNL     1       6.070   4.978  15.216  0.00  0.00    +0.000 A 
ATOM     16  C   UNL     1       7.276   5.316  14.573  0.00  0.00    +0.000 A 
ATOM     17  C   UNL     1       7.629   4.756  13.334  0.00  0.00    +0.000 A 
BRANCH  12  19
ATOM     18  C   UNL     1       6.351   1.963  11.348  0.00  0.00    +0.000 C 
ATOM     19  O   UNL     1       7.027   3.200  11.530  0.00  0.00    +0.000 OA
ENDBRANCH  12  19
ENDBRANCH   1  15
BRANCH   1  20
ATOM     20  O   UNL     1       7.072   5.809  17.202  0.00  0.00    +0.000 OA
ATOM     21  C   UNL     1       7.365   5.439  18.540  0.00  0.00    +0.000 C 
ENDBRANCH   1  20
TORSDOF 3
ENDMDL
MODEL 6
REMARK VINA RESULT:      -6.9      2.291      4.396
REMARK  Name = 
REMARK  5 active torsions:
REMARK  status: ('A' for Active; 'I' for Inactive)
REMARK    1  A    between atoms: C_1  and  O_2
REMARK    2  A    between atoms: O_2  and  C_3
REMARK    3  A    between atoms: C_6  and  C_7
REMARK    4  A    between atoms: C_7  and  O_8
REMARK    5  A    between atoms: O_8  and  C_9
REMARK                            x       y       z     vdW  Elec       q    Type
REMARK                         _______ _______ _______ _____ _____    ______ ____
ROOT
ATOM      1  C   UNL     1       5.167   5.033  17.077  0.00  0.00    +0.000 C 
ATOM      2  C   UNL     1       5.452   3.651  17.642  0.00  0.00    +0.000 C 
ATOM      3  C   UNL     1       4.664   3.060  18.548  0.00  0.00    +0.000 C 
ATOM      4  C   UNL     1       3.395   3.735  19.010  0.00  0.00    +0.000 C 
ATOM      5  C   UNL     1       3.128   3.466  20.507  0.00  0.00    +0.000 C 
ATOM      6  C   UNL     1       1.718   3.891  20.938  0.00  0.00    +0.000 C 
ATOM      7  C   UNL     1       0.654   3.199  20.097  0.00  0.00    +0.000 C 
ATOM      8  C   UNL     1       0.839   3.535  18.625  0.00  0.00    +0.000 C 
ATOM      9  C   UNL     1       2.240   3.179  18.147  0.00  0.00    +0.000 C 
ATOM     10  O   UNL     1       3.603   5.163  18.906  0.00  0.00    +0.000 OA
ATOM     11  O   UNL     1       3.878   5.532  17.505  0.00  0.00    +0.000 OA
ENDROOT
BRANCH   1  15
ATOM     12  C   UNL     1       8.155   7.950  18.363  0.00  0.00    +0.000 A 
ATOM     13  C   UNL     1       8.184   6.646  18.849  0.00  0.00    +0.000 A 
ATOM     14  C   UNL     1       7.292   5.681  18.357  0.00  0.00    +0.000 A 
ATOM     15  C   UNL     1       6.324   6.008  17.390  0.00  0.00    +0.000 A 
ATOM     16  C   UNL     1       6.371   7.308  16.851  0.00  0.00    +0.000 A 
ATOM     17  C   UNL     1       7.262   8.276  17.345  0.00  0.00    +0.000 A 
BRANCH  12  19
ATOM     18  C   UNL     1       8.940  10.181  18.575  0.00  0.00    +0.000 C 
ATOM     19  O   UNL     1       9.004   8.823  18.990  0.00  0.00    +0.000 OA
ENDBRANCH  12  19
ENDBRANCH   1  15
BRANCH   1  20
ATOM     20  O   UNL     1       5.174   4.894  15.636  0.00  0.00    +0.000 OA
ATOM     21  C   UNL     1       6.091   3.941  15.123  0.00  0.00    +0.000 C 
ENDBRANCH   1  20
TORSDOF 3
ENDMDL
MODEL 7
REMARK VINA RESULT:      -6.8      1.730      6.590
REMARK  Name = 
REMARK  5 active torsions:
REMARK  status: ('A' for Active; 'I' for Inactive)
REMARK    1  A    between atoms: C_1  and  O_2
REMARK    2  A    between atoms: O_2  and  C_3
REMARK    3  A    between atoms: C_6  and  C_7
REMARK    4  A    between atoms: C_7  and  O_8
REMARK    5  A    between atoms: O_8  and  C_9
REMARK                            x       y       z     vdW  Elec       q    Type
REMARK                         _______ _______ _______ _____ _____    ______ ____
ROOT
ATOM      1  C   UNL     1       5.575   5.957  16.646  0.00  0.00    +0.000 C 
ATOM      2  C   UNL     1       6.523   4.779  16.795  0.00  0.00    +0.000 C 
ATOM      3  C   UNL     1       6.938   4.045  15.756  0.00  0.00    +0.000 C 
ATOM      4  C   UNL     1       6.519   4.408  14.351  0.00  0.00    +0.000 C 
ATOM      5  C   UNL     1       6.290   3.146  13.489  0.00  0.00    +0.000 C 
ATOM      6  C   UNL     1       6.143   3.473  11.997  0.00  0.00    +0.000 C 
ATOM      7  C   UNL     1       7.355   4.232  11.479  0.00  0.00    +0.000 C 
ATOM      8  C   UNL     1       7.539   5.531  12.249  0.00  0.00    +0.000 C 
ATOM      9  C   UNL     1       7.644   5.278  13.747  0.00  0.00    +0.000 C 
ATOM     10  O   UNL     1       5.227   5.054  14.439  0.00  0.00    +0.000 OA
ATOM     11  O   UNL     1       5.329   6.277  15.256  0.00  0.00    +0.000 OA
ENDROOT
BRANCH   1  15
ATOM     12  C   UNL     1       2.202   5.179  19.313  0.00  0.00    +0.000 A 
ATOM     13  C   UNL     1       2.760   6.452  19.230  0.00  0.00    +0.000 A 
ATOM     14  C   UNL     1       3.771   6.729  18.298  0.00  0.00    +0.000 A 
ATOM     15  C   UNL     1       4.275   5.726  17.449  0.00  0.00    +0.000 A 
ATOM     16  C   UNL     1       3.635   4.472  17.489  0.00  0.00    +0.000 A 
ATOM     17  C   UNL     1       2.625   4.193  18.425  0.00  0.00    +0.000 A 
BRANCH  12  19
ATOM     18  C   UNL     1       1.117   3.678  20.798  0.00  0.00    +0.000 C 
ATOM     19  O   UNL     1       1.297   5.006  20.326  0.00  0.00    +0.000 OA
ENDBRANCH  12  19
ENDBRANCH   1  15
BRANCH   1  20
ATOM     20  O   UNL     1       6.218   7.083  17.291  0.00  0.00    +0.000 OA
ATOM     21  C   UNL     1       7.454   6.793  17.925  0.00  0.00    +0.000 C 
ENDBRANCH   1  20
TORSDOF 3
ENDMDL
MODEL 8
REMARK VINA RESULT:      -6.6      2.704      4.880
REMARK  Name = 
REMARK  5 active torsions:
REMARK  status: ('A' for Active; 'I' for Inactive)
REMARK    1  A    between atoms: C_1  and  O_2
REMARK    2  A    between atoms: O_2  and  C_3
REMARK    3  A    between atoms: C_6  and  C_7
REMARK    4  A    between atoms: C_7  and  O_8
REMARK    5  A    between atoms: O_8  and  C_9
REMARK                            x       y       z     vdW  Elec       q    Type
REMARK                         _______ _______ _______ _____ _____    ______ ____
ROOT
ATOM      1  C   UNL     1       5.893   5.895  16.932  0.00  0.00    +0.000 C 
ATOM      2  C   UNL     1       6.157   4.514  17.510  0.00  0.00    +0.000 C 
ATOM      3  C   UNL     1       5.276   3.873  18.287  0.00  0.00    +0.000 C 
ATOM      4  C   UNL     1       3.926   4.484  18.575  0.00  0.00    +0.000 C 
ATOM      5  C   UNL     1       3.463   4.173  20.016  0.00  0.00    +0.000 C 
ATOM      6  C   UNL     1       1.989   4.531  20.249  0.00  0.00    +0.000 C 
ATOM      7  C   UNL     1       1.086   3.814  19.256  0.00  0.00    +0.000 C 
ATOM      8  C   UNL     1       1.461   4.187  17.830  0.00  0.00    +0.000 C 
ATOM      9  C   UNL     1       2.929   3.900  17.549  0.00  0.00    +0.000 C 
ATOM     10  O   UNL     1       4.084   5.922  18.523  0.00  0.00    +0.000 OA
ATOM     11  O   UNL     1       4.537   6.332  17.182  0.00  0.00    +0.000 OA
ENDROOT
BRANCH   1  15
ATOM     12  C   UNL     1       8.551   8.886  18.688  0.00  0.00    +0.000 A 
ATOM     13  C   UNL     1       8.608   7.558  19.103  0.00  0.00    +0.000 A 
ATOM     14  C   UNL     1       7.831   6.578  18.467  0.00  0.00    +0.000 A 
ATOM     15  C   UNL     1       6.951   6.911  17.421  0.00  0.00    +0.000 A 
ATOM     16  C   UNL     1       6.977   8.241  16.961  0.00  0.00    +0.000 A 
ATOM     17  C   UNL     1       7.751   9.224  17.600  0.00  0.00    +0.000 A 
BRANCH  12  19
ATOM     18  C   UNL     1       9.719  10.951  18.803  0.00  0.00    +0.000 C 
ATOM     19  O   UNL     1       9.277   9.764  19.449  0.00  0.00    +0.000 OA
ENDBRANCH  12  19
ENDBRANCH   1  15
BRANCH   1  20
ATOM     20  O   UNL     1       6.109   5.787  15.505  0.00  0.00    +0.000 OA
ATOM     21  C   UNL     1       6.930   4.705  15.096  0.00  0.00    +0.000 C 
ENDBRANCH   1  20
TORSDOF 3
ENDMDL
MODEL 9
REMARK VINA RESULT:      -6.5      2.319      4.358
REMARK  Name = 
REMARK  5 active torsions:
REMARK  status: ('A' for Active; 'I' for Inactive)
REMARK    1  A    between atoms: C_1  and  O_2
REMARK    2  A    between atoms: O_2  and  C_3
REMARK    3  A    between atoms: C_6  and  C_7
REMARK    4  A    between atoms: C_7  and  O_8
REMARK    5  A    between atoms: O_8  and  C_9
REMARK                            x       y       z     vdW  Elec       q    Type
REMARK                         _______ _______ _______ _____ _____    ______ ____
ROOT
ATOM      1  C   UNL     1       5.500   4.802  17.704  0.00  0.00    +0.000 C 
ATOM      2  C   UNL     1       5.718   3.801  18.827  0.00  0.00    +0.000 C 
ATOM      3  C   UNL     1       4.722   3.340  19.592  0.00  0.00    +0.000 C 
ATOM      4  C   UNL     1       3.296   3.759  19.321  0.00  0.00    +0.000 C 
ATOM      5  C   UNL     1       2.498   3.918  20.634  0.00  0.00    +0.000 C 
ATOM      6  C   UNL     1       0.990   4.062  20.390  0.00  0.00    +0.000 C 
ATOM      7  C   UNL     1       0.445   2.880  19.601  0.00  0.00    +0.000 C 
ATOM      8  C   UNL     1       1.150   2.767  18.258  0.00  0.00    +0.000 C 
ATOM      9  C   UNL     1       2.659   2.669  18.430  0.00  0.00    +0.000 C 
ATOM     10  O   UNL     1       3.339   5.081  18.733  0.00  0.00    +0.000 OA
ATOM     11  O   UNL     1       4.094   5.045  17.467  0.00  0.00    +0.000 OA
ENDROOT
BRANCH   1  15
ATOM     12  C   UNL     1       8.031   8.352  17.990  0.00  0.00    +0.000 A 
ATOM     13  C   UNL     1       6.832   8.393  17.283  0.00  0.00    +0.000 A 
ATOM     14  C   UNL     1       5.968   7.287  17.279  0.00  0.00    +0.000 A 
ATOM     15  C   UNL     1       6.301   6.099  17.956  0.00  0.00    +0.000 A 
ATOM     16  C   UNL     1       7.474   6.113  18.735  0.00  0.00    +0.000 A 
ATOM     17  C   UNL     1       8.341   7.218  18.736  0.00  0.00    +0.000 A 
BRANCH  12  19
ATOM     18  C   UNL     1       9.159  10.171  19.018  0.00  0.00    +0.000 C 
ATOM     19  O   UNL     1       8.833   9.451  17.837  0.00  0.00    +0.000 OA
ENDBRANCH  12  19
ENDBRANCH   1  15
BRANCH   1  20
ATOM     20  O   UNL     1       6.093   4.220  16.518  0.00  0.00    +0.000 OA
ATOM     21  C   UNL     1       5.295   4.284  15.347  0.00  0.00    +0.000 C 
ENDBRANCH   1  20
TORSDOF 3
ENDMDL
