MODEL 1
REMARK VINA RESULT:      -7.7      0.000      0.000
REMARK  Name = 
REMARK  3 active torsions:
REMARK  status: ('A' for Active; 'I' for Inactive)
REMARK    1  A    between atoms: C_1  and  O_2
REMARK    2  A    between atoms: O_2  and  C_3
REMARK    3  A    between atoms: C_9  and  C_10
REMARK                            x       y       z     vdW  Elec       q    Type
REMARK                         _______ _______ _______ _____ _____    ______ ____
ROOT
ATOM      1  C   UNL     1       4.667   4.839  18.250  0.00  0.00    +0.000 A 
ATOM      2  C   UNL     1       5.859   5.494  18.604  0.00  0.00    +0.000 A 
ATOM      3  C   UNL     1       6.858   5.807  17.667  0.00  0.00    +0.000 A 
ATOM      4  C   UNL     1       6.701   5.420  16.328  0.00  0.00    +0.000 A 
ATOM      5  N   UNL     1       7.610   5.629  15.305  0.00  0.00    +0.000 NA
ATOM      6  C   UNL     1       7.148   5.133  14.187  0.00  0.00    +0.000 A 
ATOM      7  N   UNL     1       7.828   5.185  13.031  0.00  0.00    +0.000 N 
ATOM      8  S   UNL     1       5.613   4.378  14.285  0.00  0.00    +0.000 S 
ATOM      9  C   UNL     1       5.534   4.755  15.964  0.00  0.00    +0.000 A 
ATOM     10  C   UNL     1       4.513   4.474  16.893  0.00  0.00    +0.000 A 
ATOM     11  H   UNL     1       8.815   5.403  13.113  0.00  0.00    +0.000 HD
ATOM     12  H   UNL     1       7.605   4.499  12.318  0.00  0.00    +0.000 HD
ENDROOT
BRANCH   1  19
ATOM     13  C   UNL     1       3.420   3.197  19.794  0.00  0.00    +0.000 A 
ATOM     14  C   UNL     1       2.404   2.950  20.737  0.00  0.00    +0.000 A 
ATOM     15  C   UNL     1       1.570   3.977  21.166  0.00  0.00    +0.000 A 
ATOM     16  C   UNL     1       1.752   5.250  20.657  0.00  0.00    +0.000 A 
ATOM     17  F   UNL     1       0.962   6.247  21.074  0.00  0.00    +0.000 F 
ATOM     18  C   UNL     1       2.746   5.512  19.718  0.00  0.00    +0.000 A 
ATOM     19  C   UNL     1       3.619   4.499  19.260  0.00  0.00    +0.000 A 
BRANCH  13  21
ATOM     20  C   UNL     1       3.797   1.229  18.518  0.00  0.00    +0.000 C 
ATOM     21  O   UNL     1       4.300   2.205  19.427  0.00  0.00    +0.000 OA
ENDBRANCH  13  21
ENDBRANCH   1  19
TORSDOF 2
ENDMDL
MODEL 2
REMARK VINA RESULT:      -7.4      1.862      2.524
REMARK  Name = 
REMARK  3 active torsions:
REMARK  status: ('A' for Active; 'I' for Inactive)
REMARK    1  A    between atoms: C_1  and  O_2
REMARK    2  A    between atoms: O_2  and  C_3
REMARK    3  A    between atoms: C_9  and  C_10
REMARK                            x       y       z     vdW  Elec       q    Type
REMARK                         _______ _______ _______ _____ _____    ______ ____
ROOT
ATOM      1  C   UNL     1       4.081   4.734  17.888  0.00  0.00    +0.000 A 
ATOM      2  C   UNL     1       5.116   5.495  18.459  0.00  0.00    +0.000 A 
ATOM      3  C   UNL     1       6.250   5.893  17.732  0.00  0.00    +0.000 A 
ATOM      4  C   UNL     1       6.398   5.489  16.397  0.00  0.00    +0.000 A 
ATOM      5  N   UNL     1       7.472   5.777  15.570  0.00  0.00    +0.000 NA
ATOM      6  C   UNL     1       7.287   5.238  14.394  0.00  0.00    +0.000 A 
ATOM      7  N   UNL     1       8.177   5.347  13.395  0.00  0.00    +0.000 N 
ATOM      8  S   UNL     1       5.835   4.348  14.200  0.00  0.00    +0.000 S 
ATOM      9  C   UNL     1       5.391   4.721  15.822  0.00  0.00    +0.000 A 
ATOM     10  C   UNL     1       4.233   4.353  16.536  0.00  0.00    +0.000 A 
ATOM     11  H   UNL     1       9.105   5.653  13.666  0.00  0.00    +0.000 HD
ATOM     12  H   UNL     1       8.162   4.642  12.666  0.00  0.00    +0.000 HD
ENDROOT
BRANCH   1  19
ATOM     13  C   UNL     1       2.362   5.024  19.784  0.00  0.00    +0.000 A 
ATOM     14  C   UNL     1       1.237   4.551  20.487  0.00  0.00    +0.000 A 
ATOM     15  C   UNL     1       0.614   3.364  20.112  0.00  0.00    +0.000 A 
ATOM     16  C   UNL     1       1.112   2.653  19.036  0.00  0.00    +0.000 A 
ATOM     17  F   UNL     1       0.510   1.518  18.660  0.00  0.00    +0.000 F 
ATOM     18  C   UNL     1       2.227   3.101  18.334  0.00  0.00    +0.000 A 
ATOM     19  C   UNL     1       2.886   4.304  18.677  0.00  0.00    +0.000 A 
BRANCH  13  21
ATOM     20  C   UNL     1       2.161   7.390  19.777  0.00  0.00    +0.000 C 
ATOM     21  O   UNL     1       2.932   6.235  20.098  0.00  0.00    +0.000 OA
ENDBRANCH  13  21
ENDBRANCH   1  19
TORSDOF 2
ENDMDL
MODEL 3
REMARK VINA RESULT:      -7.3      1.694      2.415
REMARK  Name = 
REMARK  3 active torsions:
REMARK  status: ('A' for Active; 'I' for Inactive)
REMARK    1  A    between atoms: C_1  and  O_2
REMARK    2  A    between atoms: O_2  and  C_3
REMARK    3  A    between atoms: C_9  and  C_10
REMARK                            x       y       z     vdW  Elec       q    Type
REMARK                         _______ _______ _______ _____ _____    ______ ____
ROOT
ATOM      1  C   UNL     1       4.619   4.751  18.350  0.00  0.00    +0.000 A 
ATOM      2  C   UNL     1       5.792   5.428  18.724  0.00  0.00    +0.000 A 
ATOM      3  C   UNL     1       6.797   5.766  17.801  0.00  0.00    +0.000 A 
ATOM      4  C   UNL     1       6.664   5.385  16.458  0.00  0.00    +0.000 A 
ATOM      5  N   UNL     1       7.582   5.619  15.447  0.00  0.00    +0.000 NA
ATOM      6  C   UNL     1       7.143   5.121  14.321  0.00  0.00    +0.000 A 
ATOM      7  N   UNL     1       7.836   5.194  13.174  0.00  0.00    +0.000 N 
ATOM      8  S   UNL     1       5.623   4.335  14.395  0.00  0.00    +0.000 S 
ATOM      9  C   UNL     1       5.516   4.699  16.075  0.00  0.00    +0.000 A 
ATOM     10  C   UNL     1       4.489   4.392  16.989  0.00  0.00    +0.000 A 
ATOM     11  H   UNL     1       8.818   5.431  13.269  0.00  0.00    +0.000 HD
ATOM     12  H   UNL     1       7.637   4.509  12.454  0.00  0.00    +0.000 HD
ENDROOT
BRANCH   1  19
ATOM     13  C   UNL     1       2.368   5.121  19.546  0.00  0.00    +0.000 A 
ATOM     14  C   UNL     1       1.424   4.718  20.510  0.00  0.00    +0.000 A 
ATOM     15  C   UNL     1       1.646   3.589  21.292  0.00  0.00    +0.000 A 
ATOM     16  C   UNL     1       2.807   2.860  21.108  0.00  0.00    +0.000 A 
ATOM     17  F   UNL     1       3.022   1.764  21.846  0.00  0.00    +0.000 F 
ATOM     18  C   UNL     1       3.755   3.247  20.164  0.00  0.00    +0.000 A 
ATOM     19  C   UNL     1       3.565   4.383  19.345  0.00  0.00    +0.000 A 
BRANCH  13  21
ATOM     20  C   UNL     1       2.278   7.481  19.293  0.00  0.00    +0.000 C 
ATOM     21  O   UNL     1       2.118   6.188  18.715  0.00  0.00    +0.000 OA
ENDBRANCH  13  21
ENDBRANCH   1  19
TORSDOF 2
ENDMDL
MODEL 4
REMARK VINA RESULT:      -7.2      4.256      6.665
REMARK  Name = 
REMARK  3 active torsions:
REMARK  status: ('A' for Active; 'I' for Inactive)
REMARK    1  A    between atoms: C_1  and  O_2
REMARK    2  A    between atoms: O_2  and  C_3
REMARK    3  A    between atoms: C_9  and  C_10
REMARK                            x       y       z     vdW  Elec       q    Type
REMARK                         _______ _______ _______ _____ _____    ______ ____
ROOT
ATOM      1  C   UNL     1       4.612   4.586  16.531  0.00  0.00    +0.000 A 
ATOM      2  C   UNL     1       4.219   5.803  17.112  0.00  0.00    +0.000 A 
ATOM      3  C   UNL     1       3.360   5.869  18.222  0.00  0.00    +0.000 A 
ATOM      4  C   UNL     1       2.828   4.688  18.760  0.00  0.00    +0.000 A 
ATOM      5  N   UNL     1       1.948   4.599  19.826  0.00  0.00    +0.000 NA
ATOM      6  C   UNL     1       1.650   3.348  20.057  0.00  0.00    +0.000 A 
ATOM      7  N   UNL     1       0.807   2.967  21.030  0.00  0.00    +0.000 N 
ATOM      8  S   UNL     1       2.384   2.201  19.016  0.00  0.00    +0.000 S 
ATOM      9  C   UNL     1       3.194   3.475  18.185  0.00  0.00    +0.000 A 
ATOM     10  C   UNL     1       4.086   3.403  17.097  0.00  0.00    +0.000 A 
ATOM     11  H   UNL     1       0.224   3.701  21.416  0.00  0.00    +0.000 HD
ATOM     12  H   UNL     1       0.347   2.069  20.935  0.00  0.00    +0.000 HD
ENDROOT
BRANCH   1  19
ATOM     13  C   UNL     1       6.841   5.040  15.322  0.00  0.00    +0.000 A 
ATOM     14  C   UNL     1       7.629   4.962  14.158  0.00  0.00    +0.000 A 
ATOM     15  C   UNL     1       7.125   4.385  12.997  0.00  0.00    +0.000 A 
ATOM     16  C   UNL     1       5.836   3.884  12.999  0.00  0.00    +0.000 A 
ATOM     17  F   UNL     1       5.347   3.315  11.890  0.00  0.00    +0.000 F 
ATOM     18  C   UNL     1       5.039   3.959  14.138  0.00  0.00    +0.000 A 
ATOM     19  C   UNL     1       5.515   4.531  15.339  0.00  0.00    +0.000 A 
BRANCH  13  21
ATOM     20  C   UNL     1       7.736   4.565  17.470  0.00  0.00    +0.000 C 
ATOM     21  O   UNL     1       7.361   5.535  16.495  0.00  0.00    +0.000 OA
ENDBRANCH  13  21
ENDBRANCH   1  19
TORSDOF 2
ENDMDL
MODEL 5
REMARK VINA RESULT:      -7.2      4.257      6.666
REMARK  Name = 
REMARK  3 active torsions:
REMARK  status: ('A' for Active; 'I' for Inactive)
REMARK    1  A    between atoms: C_1  and  O_2
REMARK    2  A    between atoms: O_2  and  C_3
REMARK    3  A    between atoms: C_9  and  C_10
REMARK                            x       y       z     vdW  Elec       q    Type
REMARK                         _______ _______ _______ _____ _____    ______ ____
ROOT
ATOM      1  C   UNL     1       4.647   4.738  17.404  0.00  0.00    +0.000 A 
ATOM      2  C   UNL     1       3.840   5.836  17.748  0.00  0.00    +0.000 A 
ATOM      3  C   UNL     1       2.994   5.830  18.870  0.00  0.00    +0.000 A 
ATOM      4  C   UNL     1       2.903   4.679  19.666  0.00  0.00    +0.000 A 
ATOM      5  N   UNL     1       2.093   4.516  20.777  0.00  0.00    +0.000 NA
ATOM      6  C   UNL     1       2.251   3.317  21.274  0.00  0.00    +0.000 A 
ATOM      7  N   UNL     1       1.580   2.881  22.351  0.00  0.00    +0.000 N 
ATOM      8  S   UNL     1       3.360   2.307  20.446  0.00  0.00    +0.000 S 
ATOM      9  C   UNL     1       3.683   3.577  19.328  0.00  0.00    +0.000 A 
ATOM     10  C   UNL     1       4.561   3.593  18.227  0.00  0.00    +0.000 A 
ATOM     11  H   UNL     1       0.769   3.430  22.614  0.00  0.00    +0.000 HD
ATOM     12  H   UNL     1       1.467   1.880  22.468  0.00  0.00    +0.000 HD
ENDROOT
BRANCH   1  19
ATOM     13  C   UNL     1       6.832   5.324  16.171  0.00  0.00    +0.000 A 
ATOM     14  C   UNL     1       7.604   5.308  14.993  0.00  0.00    +0.000 A 
ATOM     15  C   UNL     1       7.107   4.734  13.827  0.00  0.00    +0.000 A 
ATOM     16  C   UNL     1       5.844   4.173  13.838  0.00  0.00    +0.000 A 
ATOM     17  F   UNL     1       5.364   3.606  12.724  0.00  0.00    +0.000 F 
ATOM     18  C   UNL     1       5.063   4.185  14.991  0.00  0.00    +0.000 A 
ATOM     19  C   UNL     1       5.531   4.753  16.198  0.00  0.00    +0.000 A 
BRANCH  13  21
ATOM     20  C   UNL     1       7.401   7.237  17.458  0.00  0.00    +0.000 C 
ATOM     21  O   UNL     1       7.347   5.817  17.347  0.00  0.00    +0.000 OA
ENDBRANCH  13  21
ENDBRANCH   1  19
TORSDOF 2
ENDMDL
MODEL 6
REMARK VINA RESULT:      -7.1      5.217      6.912
REMARK  Name = 
REMARK  3 active torsions:
REMARK  status: ('A' for Active; 'I' for Inactive)
REMARK    1  A    between atoms: C_1  and  O_2
REMARK    2  A    between atoms: O_2  and  C_3
REMARK    3  A    between atoms: C_9  and  C_10
REMARK                            x       y       z     vdW  Elec       q    Type
REMARK                         _______ _______ _______ _____ _____    ______ ____
ROOT
ATOM      1  C   UNL     1       2.425   7.295  18.448  0.00  0.00    +0.000 A 
ATOM      2  C   UNL     1       2.067   8.366  17.612  0.00  0.00    +0.000 A 
ATOM      3  C   UNL     1       1.450   9.531  18.096  0.00  0.00    +0.000 A 
ATOM      4  C   UNL     1       1.128   9.632  19.458  0.00  0.00    +0.000 A 
ATOM      5  N   UNL     1       0.493  10.700  20.070  0.00  0.00    +0.000 NA
ATOM      6  C   UNL     1       0.343  10.459  21.346  0.00  0.00    +0.000 A 
ATOM      7  N   UNL     1      -0.253  11.321  22.185  0.00  0.00    +0.000 N 
ATOM      8  S   UNL     1       0.935   8.947  21.894  0.00  0.00    +0.000 S 
ATOM      9  C   UNL     1       1.460   8.573  20.297  0.00  0.00    +0.000 A 
ATOM     10  C   UNL     1       2.115   7.420  19.821  0.00  0.00    +0.000 A 
ATOM     11  H   UNL     1      -0.799  12.053  21.746  0.00  0.00    +0.000 HD
ATOM     12  H   UNL     1      -0.654  10.951  23.040  0.00  0.00    +0.000 HD
ENDROOT
BRANCH   1  19
ATOM     13  C   UNL     1       4.388   6.002  17.394  0.00  0.00    +0.000 A 
ATOM     14  C   UNL     1       4.923   4.797  16.901  0.00  0.00    +0.000 A 
ATOM     15  C   UNL     1       4.168   3.629  16.912  0.00  0.00    +0.000 A 
ATOM     16  C   UNL     1       2.882   3.663  17.418  0.00  0.00    +0.000 A 
ATOM     17  F   UNL     1       2.154   2.540  17.445  0.00  0.00    +0.000 F 
ATOM     18  C   UNL     1       2.333   4.846  17.903  0.00  0.00    +0.000 A 
ATOM     19  C   UNL     1       3.068   6.054  17.916  0.00  0.00    +0.000 A 
BRANCH  13  21
ATOM     20  C   UNL     1       6.563   6.954  17.338  0.00  0.00    +0.000 C 
ATOM     21  O   UNL     1       5.156   7.142  17.461  0.00  0.00    +0.000 OA
ENDBRANCH  13  21
ENDBRANCH   1  19
TORSDOF 2
ENDMDL
MODEL 7
REMARK VINA RESULT:      -7.0      5.309      6.916
REMARK  Name = 
REMARK  3 active torsions:
REMARK  status: ('A' for Active; 'I' for Inactive)
REMARK    1  A    between atoms: C_1  and  O_2
REMARK    2  A    between atoms: O_2  and  C_3
REMARK    3  A    between atoms: C_9  and  C_10
REMARK                            x       y       z     vdW  Elec       q    Type
REMARK                         _______ _______ _______ _____ _____    ______ ____
ROOT
ATOM      1  C   UNL     1       2.583   7.424  18.428  0.00  0.00    +0.000 A 
ATOM      2  C   UNL     1       2.104   8.468  17.619  0.00  0.00    +0.000 A 
ATOM      3  C   UNL     1       1.338   9.529  18.129  0.00  0.00    +0.000 A 
ATOM      4  C   UNL     1       0.989   9.545  19.488  0.00  0.00    +0.000 A 
ATOM      5  N   UNL     1       0.217  10.504  20.123  0.00  0.00    +0.000 NA
ATOM      6  C   UNL     1       0.083  10.204  21.388  0.00  0.00    +0.000 A 
ATOM      7  N   UNL     1      -0.627  10.957  22.243  0.00  0.00    +0.000 N 
ATOM      8  S   UNL     1       0.854   8.762  21.899  0.00  0.00    +0.000 S 
ATOM      9  C   UNL     1       1.442   8.509  20.300  0.00  0.00    +0.000 A 
ATOM     10  C   UNL     1       2.242   7.464  19.799  0.00  0.00    +0.000 A 
ATOM     11  H   UNL     1      -1.256  11.629  21.817  0.00  0.00    +0.000 HD
ATOM     12  H   UNL     1      -0.989  10.512  23.079  0.00  0.00    +0.000 HD
ENDROOT
BRANCH   1  19
ATOM     13  C   UNL     1       2.898   4.963  17.735  0.00  0.00    +0.000 A 
ATOM     14  C   UNL     1       3.715   3.944  17.208  0.00  0.00    +0.000 A 
ATOM     15  C   UNL     1       5.020   4.218  16.807  0.00  0.00    +0.000 A 
ATOM     16  C   UNL     1       5.506   5.506  16.930  0.00  0.00    +0.000 A 
ATOM     17  F   UNL     1       6.755   5.781  16.535  0.00  0.00    +0.000 F 
ATOM     18  C   UNL     1       4.715   6.524  17.456  0.00  0.00    +0.000 A 
ATOM     19  C   UNL     1       3.384   6.291  17.869  0.00  0.00    +0.000 A 
BRANCH  13  21
ATOM     20  C   UNL     1       1.353   3.646  18.968  0.00  0.00    +0.000 C 
ATOM     21  O   UNL     1       1.584   4.718  18.057  0.00  0.00    +0.000 OA
ENDBRANCH  13  21
ENDBRANCH   1  19
TORSDOF 2
ENDMDL
MODEL 8
REMARK VINA RESULT:      -7.0      4.848      6.304
REMARK  Name = 
REMARK  3 active torsions:
REMARK  status: ('A' for Active; 'I' for Inactive)
REMARK    1  A    between atoms: C_1  and  O_2
REMARK    2  A    between atoms: O_2  and  C_3
REMARK    3  A    between atoms: C_9  and  C_10
REMARK                            x       y       z     vdW  Elec       q    Type
REMARK                         _______ _______ _______ _____ _____    ______ ____
ROOT
ATOM      1  C   UNL     1       2.270   6.487  19.162  0.00  0.00    +0.000 A 
ATOM      2  C   UNL     1       2.298   7.342  18.047  0.00  0.00    +0.000 A 
ATOM      3  C   UNL     1       1.931   8.696  18.124  0.00  0.00    +0.000 A 
ATOM      4  C   UNL     1       1.475   9.225  19.340  0.00  0.00    +0.000 A 
ATOM      5  N   UNL     1       1.051  10.526  19.558  0.00  0.00    +0.000 NA
ATOM      6  C   UNL     1       0.686  10.674  20.804  0.00  0.00    +0.000 A 
ATOM      7  N   UNL     1       0.220  11.834  21.293  0.00  0.00    +0.000 N 
ATOM      8  S   UNL     1       0.811   9.278  21.790  0.00  0.00    +0.000 S 
ATOM      9  C   UNL     1       1.426   8.387  20.450  0.00  0.00    +0.000 A 
ATOM     10  C   UNL     1       1.829   7.039  20.386  0.00  0.00    +0.000 A 
ATOM     11  H   UNL     1      -0.067  12.518  20.602  0.00  0.00    +0.000 HD
ATOM     12  H   UNL     1      -0.365  11.800  22.121  0.00  0.00    +0.000 HD
ENDROOT
BRANCH   1  19
ATOM     13  C   UNL     1       3.978   4.559  19.182  0.00  0.00    +0.000 A 
ATOM     14  C   UNL     1       4.260   3.184  19.067  0.00  0.00    +0.000 A 
ATOM     15  C   UNL     1       3.239   2.268  18.832  0.00  0.00    +0.000 A 
ATOM     16  C   UNL     1       1.939   2.724  18.716  0.00  0.00    +0.000 A 
ATOM     17  F   UNL     1       0.949   1.849  18.503  0.00  0.00    +0.000 F 
ATOM     18  C   UNL     1       1.642   4.081  18.819  0.00  0.00    +0.000 A 
ATOM     19  C   UNL     1       2.648   5.043  19.063  0.00  0.00    +0.000 A 
BRANCH  13  21
ATOM     20  C   UNL     1       6.253   5.196  18.930  0.00  0.00    +0.000 C 
ATOM     21  O   UNL     1       4.970   5.459  19.494  0.00  0.00    +0.000 OA
ENDBRANCH  13  21
ENDBRANCH   1  19
TORSDOF 2
ENDMDL
MODEL 9
REMARK VINA RESULT:      -7.0      4.720      6.072
REMARK  Name = 
REMARK  3 active torsions:
REMARK  status: ('A' for Active; 'I' for Inactive)
REMARK    1  A    between atoms: C_1  and  O_2
REMARK    2  A    between atoms: O_2  and  C_3
REMARK    3  A    between atoms: C_9  and  C_10
REMARK                            x       y       z     vdW  Elec       q    Type
REMARK                         _______ _______ _______ _____ _____    ______ ____
ROOT
ATOM      1  C   UNL     1       2.248   6.707  19.544  0.00  0.00    +0.000 A 
ATOM      2  C   UNL     1       2.411   7.187  18.234  0.00  0.00    +0.000 A 
ATOM      3  C   UNL     1       2.085   8.503  17.865  0.00  0.00    +0.000 A 
ATOM      4  C   UNL     1       1.533   9.375  18.815  0.00  0.00    +0.000 A 
ATOM      5  N   UNL     1       1.135  10.683  18.590  0.00  0.00    +0.000 NA
ATOM      6  C   UNL     1       0.658  11.200  19.691  0.00  0.00    +0.000 A 
ATOM      7  N   UNL     1       0.188  12.456  19.761  0.00  0.00    +0.000 N 
ATOM      8  S   UNL     1       0.641  10.165  21.056  0.00  0.00    +0.000 S 
ATOM      9  C   UNL     1       1.350   8.910  20.113  0.00  0.00    +0.000 A 
ATOM     10  C   UNL     1       1.712   7.603  20.496  0.00  0.00    +0.000 A 
ATOM     11  H   UNL     1      -0.009  12.900  18.872  0.00  0.00    +0.000 HD
ATOM     12  H   UNL     1      -0.475  12.674  20.497  0.00  0.00    +0.000 HD
ENDROOT
BRANCH   1  19
ATOM     13  C   UNL     1       3.745   4.612  19.475  0.00  0.00    +0.000 A 
ATOM     14  C   UNL     1       3.991   3.281  19.863  0.00  0.00    +0.000 A 
ATOM     15  C   UNL     1       3.098   2.608  20.691  0.00  0.00    +0.000 A 
ATOM     16  C   UNL     1       1.965   3.263  21.134  0.00  0.00    +0.000 A 
ATOM     17  F   UNL     1       1.108   2.627  21.942  0.00  0.00    +0.000 F 
ATOM     18  C   UNL     1       1.702   4.577  20.755  0.00  0.00    +0.000 A 
ATOM     19  C   UNL     1       2.584   5.299  19.920  0.00  0.00    +0.000 A 
BRANCH  13  21
ATOM     20  C   UNL     1       6.004   5.295  19.204  0.00  0.00    +0.000 C 
ATOM     21  O   UNL     1       4.662   5.309  18.723  0.00  0.00    +0.000 OA
ENDBRANCH  13  21
ENDBRANCH   1  19
TORSDOF 2
ENDMDL
