MODEL 1
REMARK VINA RESULT:      -7.5      0.000      0.000
REMARK  Name = 
REMARK  4 active torsions:
REMARK  status: ('A' for Active; 'I' for Inactive)
REMARK    1  A    between atoms: C_1  and  C_2
REMARK    2  A    between atoms: C_6  and  N_7
REMARK    3  A    between atoms: C_8  and  C_10
REMARK    4  A    between atoms: N_14  and  C_15
REMARK                            x       y       z     vdW  Elec       q    Type
REMARK                         _______ _______ _______ _____ _____    ______ ____
ROOT
ATOM      1  C   UNL     1       6.563   4.113  14.301  0.00  0.00    +0.000 C 
ATOM      2  C   UNL     1       5.829   4.552  15.513  0.00  0.00    +0.000 A 
ATOM      3  C   UNL     1       5.142   5.720  15.768  0.00  0.00    +0.000 A 
ATOM      4  C   UNL     1       4.604   5.632  17.078  0.00  0.00    +0.000 A 
ATOM      5  C   UNL     1       3.814   6.493  17.861  0.00  0.00    +0.000 A 
ATOM      6  C   UNL     1       3.414   6.110  19.149  0.00  0.00    +0.000 A 
ATOM      7  C   UNL     1       3.855   4.887  19.666  0.00  0.00    +0.000 A 
ATOM      8  C   UNL     1       4.642   4.008  18.904  0.00  0.00    +0.000 A 
ATOM      9  C   UNL     1       4.995   4.406  17.610  0.00  0.00    +0.000 A 
ATOM     10  N   UNL     1       5.734   3.767  16.638  0.00  0.00    +0.000 N 
ATOM     11  H   UNL     1       6.143   2.849  16.740  0.00  0.00    +0.000 HD
ENDROOT
BRANCH   6  12
ATOM     12  N   UNL     1       2.573   6.921  19.955  0.00  0.00    +0.000 N 
ATOM     13  C   UNL     1       1.914   8.049  19.505  0.00  0.00    +0.000 C 
ATOM     14  O   UNL     1       1.892   8.488  18.359  0.00  0.00    +0.000 OA
ATOM     15  H   UNL     1       2.353   6.545  20.869  0.00  0.00    +0.000 HD
BRANCH  13  16
ATOM     16  C   UNL     1       1.078   8.799  20.465  0.00  0.00    +0.000 A 
ATOM     17  C   UNL     1       1.010   8.537  21.828  0.00  0.00    +0.000 A 
ATOM     18  C   UNL     1       0.259   9.390  22.638  0.00  0.00    +0.000 A 
ATOM     19  C   UNL     1      -0.413  10.476  22.074  0.00  0.00    +0.000 A 
ATOM     20  N   UNL     1      -0.344  10.703  20.744  0.00  0.00    +0.000 N 
ATOM     21  C   UNL     1      -1.066  11.832  20.131  0.00  0.00    +0.000 C 
ATOM     22  C   UNL     1       0.391   9.898  19.944  0.00  0.00    +0.000 A 
ENDBRANCH  13  16
ENDBRANCH   6  12
TORSDOF 2
ENDMDL
MODEL 2
REMARK VINA RESULT:      -7.5      1.154      1.846
REMARK  Name = 
REMARK  4 active torsions:
REMARK  status: ('A' for Active; 'I' for Inactive)
REMARK    1  A    between atoms: C_1  and  C_2
REMARK    2  A    between atoms: C_6  and  N_7
REMARK    3  A    between atoms: C_8  and  C_10
REMARK    4  A    between atoms: N_14  and  C_15
REMARK                            x       y       z     vdW  Elec       q    Type
REMARK                         _______ _______ _______ _____ _____    ______ ____
ROOT
ATOM      1  C   UNL     1       6.883   4.511  14.677  0.00  0.00    +0.000 C 
ATOM      2  C   UNL     1       5.862   5.028  15.619  0.00  0.00    +0.000 A 
ATOM      3  C   UNL     1       5.631   6.310  16.072  0.00  0.00    +0.000 A 
ATOM      4  C   UNL     1       4.517   6.267  16.950  0.00  0.00    +0.000 A 
ATOM      5  C   UNL     1       3.824   7.247  17.685  0.00  0.00    +0.000 A 
ATOM      6  C   UNL     1       2.719   6.892  18.471  0.00  0.00    +0.000 A 
ATOM      7  C   UNL     1       2.348   5.545  18.559  0.00  0.00    +0.000 A 
ATOM      8  C   UNL     1       3.022   4.549  17.834  0.00  0.00    +0.000 A 
ATOM      9  C   UNL     1       4.098   4.943  17.032  0.00  0.00    +0.000 A 
ATOM     10  N   UNL     1       4.928   4.210  16.211  0.00  0.00    +0.000 N 
ATOM     11  H   UNL     1       4.856   3.214  16.064  0.00  0.00    +0.000 HD
ENDROOT
BRANCH   6  12
ATOM     12  N   UNL     1       1.957   7.851  19.188  0.00  0.00    +0.000 N 
ATOM     13  C   UNL     1       1.535   9.059  18.665  0.00  0.00    +0.000 C 
ATOM     14  O   UNL     1       1.686   9.463  17.515  0.00  0.00    +0.000 OA
ATOM     15  H   UNL     1       1.599   7.541  20.082  0.00  0.00    +0.000 HD
BRANCH  13  16
ATOM     16  C   UNL     1       0.754   9.961  19.535  0.00  0.00    +0.000 A 
ATOM     17  C   UNL     1       0.116  11.118  19.105  0.00  0.00    +0.000 A 
ATOM     18  C   UNL     1      -0.677  11.823  20.012  0.00  0.00    +0.000 A 
ATOM     19  C   UNL     1      -0.810  11.367  21.325  0.00  0.00    +0.000 A 
ATOM     20  N   UNL     1      -0.168  10.246  21.724  0.00  0.00    +0.000 N 
ATOM     21  C   UNL     1      -0.279   9.765  23.113  0.00  0.00    +0.000 C 
ATOM     22  C   UNL     1       0.591   9.540  20.857  0.00  0.00    +0.000 A 
ENDBRANCH  13  16
ENDBRANCH   6  12
TORSDOF 2
ENDMDL
MODEL 3
REMARK VINA RESULT:      -7.4      3.951      8.491
REMARK  Name = 
REMARK  4 active torsions:
REMARK  status: ('A' for Active; 'I' for Inactive)
REMARK    1  A    between atoms: C_1  and  C_2
REMARK    2  A    between atoms: C_6  and  N_7
REMARK    3  A    between atoms: C_8  and  C_10
REMARK    4  A    between atoms: N_14  and  C_15
REMARK                            x       y       z     vdW  Elec       q    Type
REMARK                         _______ _______ _______ _____ _____    ______ ____
ROOT
ATOM      1  C   UNL     1       1.209   2.509  22.383  0.00  0.00    +0.000 C 
ATOM      2  C   UNL     1       1.916   3.050  21.198  0.00  0.00    +0.000 A 
ATOM      3  C   UNL     1       2.389   2.412  20.071  0.00  0.00    +0.000 A 
ATOM      4  C   UNL     1       2.974   3.392  19.228  0.00  0.00    +0.000 A 
ATOM      5  C   UNL     1       3.590   3.341  17.964  0.00  0.00    +0.000 A 
ATOM      6  C   UNL     1       4.067   4.513  17.361  0.00  0.00    +0.000 A 
ATOM      7  C   UNL     1       3.971   5.725  18.055  0.00  0.00    +0.000 A 
ATOM      8  C   UNL     1       3.358   5.804  19.316  0.00  0.00    +0.000 A 
ATOM      9  C   UNL     1       2.863   4.620  19.873  0.00  0.00    +0.000 A 
ATOM     10  N   UNL     1       2.212   4.386  21.066  0.00  0.00    +0.000 N 
ATOM     11  H   UNL     1       1.984   5.100  21.744  0.00  0.00    +0.000 HD
ENDROOT
BRANCH   6  12
ATOM     12  N   UNL     1       4.647   4.520  16.066  0.00  0.00    +0.000 N 
ATOM     13  C   UNL     1       6.007   4.484  15.822  0.00  0.00    +0.000 C 
ATOM     14  O   UNL     1       6.907   4.376  16.649  0.00  0.00    +0.000 OA
ATOM     15  H   UNL     1       3.997   4.404  15.299  0.00  0.00    +0.000 HD
BRANCH  13  16
ATOM     16  C   UNL     1       6.464   4.505  14.417  0.00  0.00    +0.000 A 
ATOM     17  C   UNL     1       7.475   5.323  13.926  0.00  0.00    +0.000 A 
ATOM     18  C   UNL     1       7.879   5.166  12.599  0.00  0.00    +0.000 A 
ATOM     19  C   UNL     1       7.263   4.209  11.791  0.00  0.00    +0.000 A 
ATOM     20  N   UNL     1       6.272   3.435  12.286  0.00  0.00    +0.000 N 
ATOM     21  C   UNL     1       5.597   2.436  11.438  0.00  0.00    +0.000 C 
ATOM     22  C   UNL     1       5.877   3.559  13.573  0.00  0.00    +0.000 A 
ENDBRANCH  13  16
ENDBRANCH   6  12
TORSDOF 2
ENDMDL
MODEL 4
REMARK VINA RESULT:      -7.3      6.052      7.247
REMARK  Name = 
REMARK  4 active torsions:
REMARK  status: ('A' for Active; 'I' for Inactive)
REMARK    1  A    between atoms: C_1  and  C_2
REMARK    2  A    between atoms: C_6  and  N_7
REMARK    3  A    between atoms: C_8  and  C_10
REMARK    4  A    between atoms: N_14  and  C_15
REMARK                            x       y       z     vdW  Elec       q    Type
REMARK                         _______ _______ _______ _____ _____    ______ ____
ROOT
ATOM      1  C   UNL     1       3.419   3.518  17.682  0.00  0.00    +0.000 C 
ATOM      2  C   UNL     1       4.476   4.556  17.737  0.00  0.00    +0.000 A 
ATOM      3  C   UNL     1       4.564   5.778  17.104  0.00  0.00    +0.000 A 
ATOM      4  C   UNL     1       5.774   6.395  17.513  0.00  0.00    +0.000 A 
ATOM      5  C   UNL     1       6.381   7.629  17.219  0.00  0.00    +0.000 A 
ATOM      6  C   UNL     1       7.605   7.975  17.807  0.00  0.00    +0.000 A 
ATOM      7  C   UNL     1       8.243   7.055  18.646  0.00  0.00    +0.000 A 
ATOM      8  C   UNL     1       7.658   5.816  18.958  0.00  0.00    +0.000 A 
ATOM      9  C   UNL     1       6.419   5.518  18.381  0.00  0.00    +0.000 A 
ATOM     10  N   UNL     1       5.608   4.411  18.504  0.00  0.00    +0.000 N 
ATOM     11  H   UNL     1       5.817   3.608  19.081  0.00  0.00    +0.000 HD
ENDROOT
BRANCH   6  12
ATOM     12  N   UNL     1       8.229   9.230  17.583  0.00  0.00    +0.000 N 
ATOM     13  C   UNL     1       8.911   9.944  18.550  0.00  0.00    +0.000 C 
ATOM     14  O   UNL     1       9.141   9.597  19.704  0.00  0.00    +0.000 OA
ATOM     15  H   UNL     1       8.279   9.524  16.616  0.00  0.00    +0.000 HD
BRANCH  13  16
ATOM     16  C   UNL     1       9.502  11.244  18.170  0.00  0.00    +0.000 A 
ATOM     17  C   UNL     1      10.800  11.416  17.704  0.00  0.00    +0.000 A 
ATOM     18  C   UNL     1      11.197  12.686  17.281  0.00  0.00    +0.000 A 
ATOM     19  C   UNL     1      10.299  13.754  17.340  0.00  0.00    +0.000 A 
ATOM     20  N   UNL     1       9.046  13.565  17.811  0.00  0.00    +0.000 N 
ATOM     21  C   UNL     1       8.095  14.687  17.901  0.00  0.00    +0.000 C 
ATOM     22  C   UNL     1       8.637  12.340  18.210  0.00  0.00    +0.000 A 
ENDBRANCH  13  16
ENDBRANCH   6  12
TORSDOF 2
ENDMDL
MODEL 5
REMARK VINA RESULT:      -7.1      2.285      3.182
REMARK  Name = 
REMARK  4 active torsions:
REMARK  status: ('A' for Active; 'I' for Inactive)
REMARK    1  A    between atoms: C_1  and  C_2
REMARK    2  A    between atoms: C_6  and  N_7
REMARK    3  A    between atoms: C_8  and  C_10
REMARK    4  A    between atoms: N_14  and  C_15
REMARK                            x       y       z     vdW  Elec       q    Type
REMARK                         _______ _______ _______ _____ _____    ______ ____
ROOT
ATOM      1  C   UNL     1       3.706   1.313  18.486  0.00  0.00    +0.000 C 
ATOM      2  C   UNL     1       3.535   2.772  18.282  0.00  0.00    +0.000 A 
ATOM      3  C   UNL     1       2.420   3.570  18.426  0.00  0.00    +0.000 A 
ATOM      4  C   UNL     1       2.796   4.904  18.126  0.00  0.00    +0.000 A 
ATOM      5  C   UNL     1       2.104   6.129  18.118  0.00  0.00    +0.000 A 
ATOM      6  C   UNL     1       2.770   7.316  17.787  0.00  0.00    +0.000 A 
ATOM      7  C   UNL     1       4.117   7.262  17.411  0.00  0.00    +0.000 A 
ATOM      8  C   UNL     1       4.832   6.052  17.413  0.00  0.00    +0.000 A 
ATOM      9  C   UNL     1       4.145   4.891  17.782  0.00  0.00    +0.000 A 
ATOM     10  N   UNL     1       4.572   3.585  17.889  0.00  0.00    +0.000 N 
ATOM     11  H   UNL     1       5.515   3.273  17.708  0.00  0.00    +0.000 HD
ENDROOT
BRANCH   6  12
ATOM     12  N   UNL     1       2.129   8.582  17.817  0.00  0.00    +0.000 N 
ATOM     13  C   UNL     1       1.500   9.110  18.929  0.00  0.00    +0.000 C 
ATOM     14  O   UNL     1       1.450   8.623  20.055  0.00  0.00    +0.000 OA
ATOM     15  H   UNL     1       2.279   9.165  17.004  0.00  0.00    +0.000 HD
BRANCH  13  16
ATOM     16  C   UNL     1       0.866  10.439  18.807  0.00  0.00    +0.000 A 
ATOM     17  C   UNL     1       1.555  11.646  18.799  0.00  0.00    +0.000 A 
ATOM     18  C   UNL     1       0.840  12.824  18.571  0.00  0.00    +0.000 A 
ATOM     19  C   UNL     1      -0.540  12.774  18.367  0.00  0.00    +0.000 A 
ATOM     20  N   UNL     1      -1.190  11.590  18.393  0.00  0.00    +0.000 N 
ATOM     21  C   UNL     1      -2.650  11.525  18.201  0.00  0.00    +0.000 C 
ATOM     22  C   UNL     1      -0.515  10.436  18.595  0.00  0.00    +0.000 A 
ENDBRANCH  13  16
ENDBRANCH   6  12
TORSDOF 2
ENDMDL
MODEL 6
REMARK VINA RESULT:      -7.1      1.486      7.955
REMARK  Name = 
REMARK  4 active torsions:
REMARK  status: ('A' for Active; 'I' for Inactive)
REMARK    1  A    between atoms: C_1  and  C_2
REMARK    2  A    between atoms: C_6  and  N_7
REMARK    3  A    between atoms: C_8  and  C_10
REMARK    4  A    between atoms: N_14  and  C_15
REMARK                            x       y       z     vdW  Elec       q    Type
REMARK                         _______ _______ _______ _____ _____    ______ ____
ROOT
ATOM      1  C   UNL     1      -1.652  11.461  23.135  0.00  0.00    +0.000 C 
ATOM      2  C   UNL     1      -0.843  10.814  22.074  0.00  0.00    +0.000 A 
ATOM      3  C   UNL     1       0.134   9.846  22.161  0.00  0.00    +0.000 A 
ATOM      4  C   UNL     1       0.582   9.559  20.845  0.00  0.00    +0.000 A 
ATOM      5  C   UNL     1       1.532   8.665  20.317  0.00  0.00    +0.000 A 
ATOM      6  C   UNL     1       1.746   8.595  18.934  0.00  0.00    +0.000 A 
ATOM      7  C   UNL     1       1.043   9.462  18.090  0.00  0.00    +0.000 A 
ATOM      8  C   UNL     1       0.088  10.362  18.591  0.00  0.00    +0.000 A 
ATOM      9  C   UNL     1      -0.126  10.381  19.973  0.00  0.00    +0.000 A 
ATOM     10  N   UNL     1      -0.989  11.131  20.744  0.00  0.00    +0.000 N 
ATOM     11  H   UNL     1      -1.638  11.813  20.379  0.00  0.00    +0.000 HD
ENDROOT
BRANCH   6  12
ATOM     12  N   UNL     1       2.653   7.673  18.351  0.00  0.00    +0.000 N 
ATOM     13  C   UNL     1       2.727   6.335  18.687  0.00  0.00    +0.000 C 
ATOM     14  O   UNL     1       2.002   5.725  19.468  0.00  0.00    +0.000 OA
ATOM     15  H   UNL     1       3.166   8.017  17.549  0.00  0.00    +0.000 HD
BRANCH  13  16
ATOM     16  C   UNL     1       3.731   5.497  17.999  0.00  0.00    +0.000 A 
ATOM     17  C   UNL     1       3.490   4.223  17.499  0.00  0.00    +0.000 A 
ATOM     18  C   UNL     1       4.499   3.583  16.778  0.00  0.00    +0.000 A 
ATOM     19  C   UNL     1       5.725   4.221  16.579  0.00  0.00    +0.000 A 
ATOM     20  N   UNL     1       5.942   5.455  17.086  0.00  0.00    +0.000 N 
ATOM     21  C   UNL     1       7.239   6.130  16.904  0.00  0.00    +0.000 C 
ATOM     22  C   UNL     1       4.972   6.098  17.774  0.00  0.00    +0.000 A 
ENDBRANCH  13  16
ENDBRANCH   6  12
TORSDOF 2
ENDMDL
MODEL 7
REMARK VINA RESULT:      -7.1      1.265      1.345
REMARK  Name = 
REMARK  4 active torsions:
REMARK  status: ('A' for Active; 'I' for Inactive)
REMARK    1  A    between atoms: C_1  and  C_2
REMARK    2  A    between atoms: C_6  and  N_7
REMARK    3  A    between atoms: C_8  and  C_10
REMARK    4  A    between atoms: N_14  and  C_15
REMARK                            x       y       z     vdW  Elec       q    Type
REMARK                         _______ _______ _______ _____ _____    ______ ____
ROOT
ATOM      1  C   UNL     1       6.409   4.526  14.637  0.00  0.00    +0.000 C 
ATOM      2  C   UNL     1       5.488   5.101  15.648  0.00  0.00    +0.000 A 
ATOM      3  C   UNL     1       5.189   6.414  15.939  0.00  0.00    +0.000 A 
ATOM      4  C   UNL     1       4.229   6.421  16.984  0.00  0.00    +0.000 A 
ATOM      5  C   UNL     1       3.550   7.445  17.671  0.00  0.00    +0.000 A 
ATOM      6  C   UNL     1       2.619   7.130  18.670  0.00  0.00    +0.000 A 
ATOM      7  C   UNL     1       2.414   5.790  19.014  0.00  0.00    +0.000 A 
ATOM      8  C   UNL     1       3.077   4.749  18.342  0.00  0.00    +0.000 A 
ATOM      9  C   UNL     1       3.973   5.097  17.327  0.00  0.00    +0.000 A 
ATOM     10  N   UNL     1       4.747   4.314  16.497  0.00  0.00    +0.000 N 
ATOM     11  H   UNL     1       4.762   3.304  16.512  0.00  0.00    +0.000 HD
ENDROOT
BRANCH   6  12
ATOM     12  N   UNL     1       1.872   8.125  19.353  0.00  0.00    +0.000 N 
ATOM     13  C   UNL     1       1.336   7.966  20.617  0.00  0.00    +0.000 C 
ATOM     14  O   UNL     1       1.468   6.999  21.362  0.00  0.00    +0.000 OA
ATOM     15  H   UNL     1       1.868   9.039  18.920  0.00  0.00    +0.000 HD
BRANCH  13  16
ATOM     16  C   UNL     1       0.572   9.089  21.197  0.00  0.00    +0.000 A 
ATOM     17  C   UNL     1       0.125   9.146  22.512  0.00  0.00    +0.000 A 
ATOM     18  C   UNL     1      -0.496  10.314  22.959  0.00  0.00    +0.000 A 
ATOM     19  C   UNL     1      -0.664  11.392  22.087  0.00  0.00    +0.000 A 
ATOM     20  N   UNL     1      -0.234  11.308  20.809  0.00  0.00    +0.000 N 
ATOM     21  C   UNL     1      -0.426  12.429  19.872  0.00  0.00    +0.000 C 
ATOM     22  C   UNL     1       0.384  10.192  20.361  0.00  0.00    +0.000 A 
ENDBRANCH  13  16
ENDBRANCH   6  12
TORSDOF 2
ENDMDL
MODEL 8
REMARK VINA RESULT:      -6.9      1.537      7.784
REMARK  Name = 
REMARK  4 active torsions:
REMARK  status: ('A' for Active; 'I' for Inactive)
REMARK    1  A    between atoms: C_1  and  C_2
REMARK    2  A    between atoms: C_6  and  N_7
REMARK    3  A    between atoms: C_8  and  C_10
REMARK    4  A    between atoms: N_14  and  C_15
REMARK                            x       y       z     vdW  Elec       q    Type
REMARK                         _______ _______ _______ _____ _____    ______ ____
ROOT
ATOM      1  C   UNL     1      -2.212  12.558  19.762  0.00  0.00    +0.000 C 
ATOM      2  C   UNL     1      -1.210  11.469  19.666  0.00  0.00    +0.000 A 
ATOM      3  C   UNL     1      -0.442  11.053  18.599  0.00  0.00    +0.000 A 
ATOM      4  C   UNL     1       0.373   9.980  19.042  0.00  0.00    +0.000 A 
ATOM      5  C   UNL     1       1.350   9.182  18.418  0.00  0.00    +0.000 A 
ATOM      6  C   UNL     1       2.016   8.183  19.140  0.00  0.00    +0.000 A 
ATOM      7  C   UNL     1       1.660   7.953  20.474  0.00  0.00    +0.000 A 
ATOM      8  C   UNL     1       0.691   8.736  21.122  0.00  0.00    +0.000 A 
ATOM      9  C   UNL     1       0.070   9.747  20.380  0.00  0.00    +0.000 A 
ATOM     10  N   UNL     1      -0.891  10.668  20.737  0.00  0.00    +0.000 N 
ATOM     11  H   UNL     1      -1.299  10.744  21.658  0.00  0.00    +0.000 HD
ENDROOT
BRANCH   6  12
ATOM     12  N   UNL     1       3.045   7.390  18.569  0.00  0.00    +0.000 N 
ATOM     13  C   UNL     1       3.013   6.011  18.491  0.00  0.00    +0.000 C 
ATOM     14  O   UNL     1       2.094   5.270  18.829  0.00  0.00    +0.000 OA
ATOM     15  H   UNL     1       3.765   7.902  18.075  0.00  0.00    +0.000 HD
BRANCH  13  16
ATOM     16  C   UNL     1       4.164   5.320  17.875  0.00  0.00    +0.000 A 
ATOM     17  C   UNL     1       4.091   4.509  16.749  0.00  0.00    +0.000 A 
ATOM     18  C   UNL     1       5.274   4.001  16.210  0.00  0.00    +0.000 A 
ATOM     19  C   UNL     1       6.499   4.303  16.807  0.00  0.00    +0.000 A 
ATOM     20  N   UNL     1       6.545   5.082  17.911  0.00  0.00    +0.000 N 
ATOM     21  C   UNL     1       7.828   5.390  18.566  0.00  0.00    +0.000 C 
ATOM     22  C   UNL     1       5.412   5.597  18.439  0.00  0.00    +0.000 A 
ENDBRANCH  13  16
ENDBRANCH   6  12
TORSDOF 2
ENDMDL
MODEL 9
REMARK VINA RESULT:      -6.9      1.523      1.888
REMARK  Name = 
REMARK  4 active torsions:
REMARK  status: ('A' for Active; 'I' for Inactive)
REMARK    1  A    between atoms: C_1  and  C_2
REMARK    2  A    between atoms: C_6  and  N_7
REMARK    3  A    between atoms: C_8  and  C_10
REMARK    4  A    between atoms: N_14  and  C_15
REMARK                            x       y       z     vdW  Elec       q    Type
REMARK                         _______ _______ _______ _____ _____    ______ ____
ROOT
ATOM      1  C   UNL     1       6.927   4.476  15.372  0.00  0.00    +0.000 C 
ATOM      2  C   UNL     1       5.922   5.106  16.261  0.00  0.00    +0.000 A 
ATOM      3  C   UNL     1       5.234   6.294  16.133  0.00  0.00    +0.000 A 
ATOM      4  C   UNL     1       4.373   6.423  17.253  0.00  0.00    +0.000 A 
ATOM      5  C   UNL     1       3.438   7.397  17.650  0.00  0.00    +0.000 A 
ATOM      6  C   UNL     1       2.706   7.233  18.834  0.00  0.00    +0.000 A 
ATOM      7  C   UNL     1       2.954   6.118  19.642  0.00  0.00    +0.000 A 
ATOM      8  C   UNL     1       3.880   5.130  19.267  0.00  0.00    +0.000 A 
ATOM      9  C   UNL     1       4.569   5.308  18.063  0.00  0.00    +0.000 A 
ATOM     10  N   UNL     1       5.511   4.521  17.436  0.00  0.00    +0.000 N 
ATOM     11  H   UNL     1       5.848   3.637  17.791  0.00  0.00    +0.000 HD
ENDROOT
BRANCH   6  12
ATOM     12  N   UNL     1       1.714   8.160  19.248  0.00  0.00    +0.000 N 
ATOM     13  C   UNL     1       1.414   9.330  18.578  0.00  0.00    +0.000 C 
ATOM     14  O   UNL     1       1.888   9.719  17.514  0.00  0.00    +0.000 OA
ATOM     15  H   UNL     1       1.116   7.848  20.003  0.00  0.00    +0.000 HD
BRANCH  13  16
ATOM     16  C   UNL     1       0.360  10.203  19.135  0.00  0.00    +0.000 A 
ATOM     17  C   UNL     1       0.441  10.860  20.357  0.00  0.00    +0.000 A 
ATOM     18  C   UNL     1      -0.583  11.738  20.716  0.00  0.00    +0.000 A 
ATOM     19  C   UNL     1      -1.667  11.934  19.857  0.00  0.00    +0.000 A 
ATOM     20  N   UNL     1      -1.731  11.273  18.680  0.00  0.00    +0.000 N 
ATOM     21  C   UNL     1      -2.880  11.452  17.775  0.00  0.00    +0.000 C 
ATOM     22  C   UNL     1      -0.742  10.431  18.307  0.00  0.00    +0.000 A 
ENDBRANCH  13  16
ENDBRANCH   6  12
TORSDOF 2
ENDMDL
