MODEL 1
REMARK VINA RESULT:      -7.5      0.000      0.000
REMARK  Name = 
REMARK  8 active torsions:
REMARK  status: ('A' for Active; 'I' for Inactive)
REMARK    1  A    between atoms: C_1  and  C_2
REMARK    2  A    between atoms: C_6  and  N_7
REMARK    3  A    between atoms: N_8  and  C_9
REMARK    4  A    between atoms: N_11  and  N_12
REMARK    5  A    between atoms: N_12  and  C_13
REMARK    6  A    between atoms: C_17  and  C_18
REMARK    7  A    between atoms: C_19  and  C_20
REMARK    8  A    between atoms: C_21  and  C_22
REMARK                            x       y       z     vdW  Elec       q    Type
REMARK                         _______ _______ _______ _____ _____    ______ ____
ROOT
ATOM      1  C   UNL     1       2.279   5.089  19.994  0.00  0.00    +0.000 C 
ATOM      2  O   UNL     1       1.757   4.172  19.358  0.00  0.00    +0.000 OA
ATOM      3  N   UNL     1       3.644   5.074  20.268  0.00  0.00    +0.000 N 
ATOM      4  H   UNL     1       4.077   5.970  20.457  0.00  0.00    +0.000 HD
ENDROOT
BRANCH   1   6
ATOM      5  N   UNL     1       2.105   7.263  19.979  0.00  0.00    +0.000 NA
ATOM      6  N   UNL     1       1.644   6.216  20.489  0.00  0.00    +0.000 NA
BRANCH   5  12
ATOM      7  C   UNL     1      -0.144  11.581  18.830  0.00  0.00    +0.000 C 
ATOM      8  C   UNL     1       0.309  10.546  19.826  0.00  0.00    +0.000 A 
ATOM      9  C   UNL     1      -0.039  10.708  21.175  0.00  0.00    +0.000 A 
ATOM     10  C   UNL     1       0.336   9.763  22.124  0.00  0.00    +0.000 A 
ATOM     11  C   UNL     1       1.063   8.640  21.733  0.00  0.00    +0.000 A 
ATOM     12  C   UNL     1       1.443   8.444  20.392  0.00  0.00    +0.000 A 
ATOM     13  C   UNL     1       1.056   9.409  19.431  0.00  0.00    +0.000 A 
ATOM     14  C   UNL     1       1.421   9.232  17.976  0.00  0.00    +0.000 C 
ENDBRANCH   5  12
ENDBRANCH   1   6
BRANCH   3  15
ATOM     15  N   UNL     1       4.431   4.159  19.533  0.00  0.00    +0.000 N 
ATOM     16  H   UNL     1       4.816   3.424  20.139  0.00  0.00    +0.000 HD
BRANCH  15  17
ATOM     17  C   UNL     1       5.425   4.700  18.669  0.00  0.00    +0.000 A 
ATOM     18  C   UNL     1       6.511   5.446  19.153  0.00  0.00    +0.000 A 
ATOM     19  C   UNL     1       7.405   6.068  18.281  0.00  0.00    +0.000 A 
ATOM     20  C   UNL     1       7.210   5.991  16.906  0.00  0.00    +0.000 A 
ATOM     21  C   UNL     1       6.127   5.274  16.378  0.00  0.00    +0.000 A 
ATOM     22  C   UNL     1       5.938   5.265  14.884  0.00  0.00    +0.000 C 
ATOM     23  C   UNL     1       5.238   4.608  17.259  0.00  0.00    +0.000 A 
ATOM     24  C   UNL     1       4.087   3.790  16.721  0.00  0.00    +0.000 C 
ENDBRANCH  15  17
ENDBRANCH   3  15
TORSDOF 4
ENDMDL
MODEL 2
REMARK VINA RESULT:      -7.5      5.243      7.384
REMARK  Name = 
REMARK  8 active torsions:
REMARK  status: ('A' for Active; 'I' for Inactive)
REMARK    1  A    between atoms: C_1  and  C_2
REMARK    2  A    between atoms: C_6  and  N_7
REMARK    3  A    between atoms: N_8  and  C_9
REMARK    4  A    between atoms: N_11  and  N_12
REMARK    5  A    between atoms: N_12  and  C_13
REMARK    6  A    between atoms: C_17  and  C_18
REMARK    7  A    between atoms: C_19  and  C_20
REMARK    8  A    between atoms: C_21  and  C_22
REMARK                            x       y       z     vdW  Elec       q    Type
REMARK                         _______ _______ _______ _____ _____    ______ ____
ROOT
ATOM      1  C   UNL     1       7.940   7.875  17.998  0.00  0.00    +0.000 C 
ATOM      2  O   UNL     1       8.303   7.029  18.817  0.00  0.00    +0.000 OA
ATOM      3  N   UNL     1       7.007   7.554  17.015  0.00  0.00    +0.000 N 
ATOM      4  H   UNL     1       6.486   8.327  16.618  0.00  0.00    +0.000 HD
ENDROOT
BRANCH   1   6
ATOM      5  N   UNL     1       9.010   9.518  18.953  0.00  0.00    +0.000 NA
ATOM      6  N   UNL     1       8.352   9.195  17.937  0.00  0.00    +0.000 NA
BRANCH   5  12
ATOM      7  C   UNL     1      10.204  13.763  21.316  0.00  0.00    +0.000 C 
ATOM      8  C   UNL     1      10.139  12.907  20.078  0.00  0.00    +0.000 A 
ATOM      9  C   UNL     1      10.708  13.393  18.891  0.00  0.00    +0.000 A 
ATOM     10  C   UNL     1      10.694  12.625  17.731  0.00  0.00    +0.000 A 
ATOM     11  C   UNL     1      10.113  11.358  17.746  0.00  0.00    +0.000 A 
ATOM     12  C   UNL     1       9.522  10.837  18.911  0.00  0.00    +0.000 A 
ATOM     13  C   UNL     1       9.541  11.623  20.090  0.00  0.00    +0.000 A 
ATOM     14  C   UNL     1       8.939  11.099  21.372  0.00  0.00    +0.000 C 
ENDBRANCH   5  12
ENDBRANCH   1   6
BRANCH   3  15
ATOM     15  N   UNL     1       6.282   6.355  17.192  0.00  0.00    +0.000 N 
ATOM     16  H   UNL     1       6.344   5.753  16.362  0.00  0.00    +0.000 HD
BRANCH  15  17
ATOM     17  C   UNL     1       4.942   6.466  17.660  0.00  0.00    +0.000 A 
ATOM     18  C   UNL     1       4.096   7.515  17.267  0.00  0.00    +0.000 A 
ATOM     19  C   UNL     1       2.830   7.672  17.831  0.00  0.00    +0.000 A 
ATOM     20  C   UNL     1       2.397   6.806  18.829  0.00  0.00    +0.000 A 
ATOM     21  C   UNL     1       3.215   5.756  19.267  0.00  0.00    +0.000 A 
ATOM     22  C   UNL     1       2.713   4.878  20.384  0.00  0.00    +0.000 C 
ATOM     23  C   UNL     1       4.488   5.569  18.670  0.00  0.00    +0.000 A 
ATOM     24  C   UNL     1       5.375   4.420  19.088  0.00  0.00    +0.000 C 
ENDBRANCH  15  17
ENDBRANCH   3  15
TORSDOF 4
ENDMDL
MODEL 3
REMARK VINA RESULT:      -7.4      1.308      7.966
REMARK  Name = 
REMARK  8 active torsions:
REMARK  status: ('A' for Active; 'I' for Inactive)
REMARK    1  A    between atoms: C_1  and  C_2
REMARK    2  A    between atoms: C_6  and  N_7
REMARK    3  A    between atoms: N_8  and  C_9
REMARK    4  A    between atoms: N_11  and  N_12
REMARK    5  A    between atoms: N_12  and  C_13
REMARK    6  A    between atoms: C_17  and  C_18
REMARK    7  A    between atoms: C_19  and  C_20
REMARK    8  A    between atoms: C_21  and  C_22
REMARK                            x       y       z     vdW  Elec       q    Type
REMARK                         _______ _______ _______ _____ _____    ______ ____
ROOT
ATOM      1  C   UNL     1       2.298   6.534  20.047  0.00  0.00    +0.000 C 
ATOM      2  O   UNL     1       1.661   5.645  20.616  0.00  0.00    +0.000 OA
ATOM      3  N   UNL     1       1.878   7.860  20.113  0.00  0.00    +0.000 N 
ATOM      4  H   UNL     1       2.587   8.567  19.957  0.00  0.00    +0.000 HD
ENDROOT
BRANCH   1   6
ATOM      5  N   UNL     1       3.986   5.256  19.524  0.00  0.00    +0.000 NA
ATOM      6  N   UNL     1       3.464   6.376  19.317  0.00  0.00    +0.000 NA
BRANCH   5  12
ATOM      7  C   UNL     1       6.068   3.680  15.257  0.00  0.00    +0.000 C 
ATOM      8  C   UNL     1       6.163   4.268  16.641  0.00  0.00    +0.000 A 
ATOM      9  C   UNL     1       7.416   4.685  17.114  0.00  0.00    +0.000 A 
ATOM     10  C   UNL     1       7.544   5.257  18.375  0.00  0.00    +0.000 A 
ATOM     11  C   UNL     1       6.417   5.424  19.178  0.00  0.00    +0.000 A 
ATOM     12  C   UNL     1       5.144   5.009  18.748  0.00  0.00    +0.000 A 
ATOM     13  C   UNL     1       5.019   4.429  17.462  0.00  0.00    +0.000 A 
ATOM     14  C   UNL     1       3.669   3.989  16.946  0.00  0.00    +0.000 C 
ENDBRANCH   5  12
ENDBRANCH   1   6
BRANCH   3  15
ATOM     15  N   UNL     1       0.909   8.173  21.093  0.00  0.00    +0.000 N 
ATOM     16  H   UNL     1       0.316   7.362  21.307  0.00  0.00    +0.000 HD
BRANCH  15  17
ATOM     17  C   UNL     1       0.135   9.351  20.893  0.00  0.00    +0.000 A 
ATOM     18  C   UNL     1      -0.094   9.888  19.617  0.00  0.00    +0.000 A 
ATOM     19  C   UNL     1      -0.752  11.108  19.454  0.00  0.00    +0.000 A 
ATOM     20  C   UNL     1      -1.159  11.836  20.566  0.00  0.00    +0.000 A 
ATOM     21  C   UNL     1      -0.934  11.349  21.860  0.00  0.00    +0.000 A 
ATOM     22  C   UNL     1      -1.354  12.204  23.028  0.00  0.00    +0.000 C 
ATOM     23  C   UNL     1      -0.300  10.092  22.030  0.00  0.00    +0.000 A 
ATOM     24  C   UNL     1      -0.083   9.518  23.411  0.00  0.00    +0.000 C 
ENDBRANCH  15  17
ENDBRANCH   3  15
TORSDOF 4
ENDMDL
MODEL 4
REMARK VINA RESULT:      -7.4      2.449      8.121
REMARK  Name = 
REMARK  8 active torsions:
REMARK  status: ('A' for Active; 'I' for Inactive)
REMARK    1  A    between atoms: C_1  and  C_2
REMARK    2  A    between atoms: C_6  and  N_7
REMARK    3  A    between atoms: N_8  and  C_9
REMARK    4  A    between atoms: N_11  and  N_12
REMARK    5  A    between atoms: N_12  and  C_13
REMARK    6  A    between atoms: C_17  and  C_18
REMARK    7  A    between atoms: C_19  and  C_20
REMARK    8  A    between atoms: C_21  and  C_22
REMARK                            x       y       z     vdW  Elec       q    Type
REMARK                         _______ _______ _______ _____ _____    ______ ____
ROOT
ATOM      1  C   UNL     1       2.106   9.428  17.888  0.00  0.00    +0.000 C 
ATOM      2  O   UNL     1       2.246  10.618  17.599  0.00  0.00    +0.000 OA
ATOM      3  N   UNL     1       1.161   9.036  18.834  0.00  0.00    +0.000 N 
ATOM      4  H   UNL     1       0.835   8.078  18.776  0.00  0.00    +0.000 HD
ENDROOT
BRANCH   1   6
ATOM      5  N   UNL     1       2.976   7.451  18.190  0.00  0.00    +0.000 NA
ATOM      6  N   UNL     1       2.798   8.359  17.346  0.00  0.00    +0.000 NA
BRANCH   5  12
ATOM      7  C   UNL     1       3.170   2.478  17.686  0.00  0.00    +0.000 C 
ATOM      8  C   UNL     1       3.690   3.862  17.396  0.00  0.00    +0.000 A 
ATOM      9  C   UNL     1       4.758   4.007  16.498  0.00  0.00    +0.000 A 
ATOM     10  C   UNL     1       5.252   5.269  16.181  0.00  0.00    +0.000 A 
ATOM     11  C   UNL     1       4.680   6.402  16.758  0.00  0.00    +0.000 A 
ATOM     12  C   UNL     1       3.615   6.300  17.672  0.00  0.00    +0.000 A 
ATOM     13  C   UNL     1       3.115   5.013  17.988  0.00  0.00    +0.000 A 
ATOM     14  C   UNL     1       1.958   4.853  18.947  0.00  0.00    +0.000 C 
ENDBRANCH   5  12
ENDBRANCH   1   6
BRANCH   3  15
ATOM     15  N   UNL     1       0.186   9.992  19.194  0.00  0.00    +0.000 N 
ATOM     16  H   UNL     1       0.361  10.896  18.739  0.00  0.00    +0.000 HD
BRANCH  15  17
ATOM     17  C   UNL     1      -0.095  10.149  20.580  0.00  0.00    +0.000 A 
ATOM     18  C   UNL     1       0.159   9.133  21.515  0.00  0.00    +0.000 A 
ATOM     19  C   UNL     1      -0.235   9.262  22.847  0.00  0.00    +0.000 A 
ATOM     20  C   UNL     1      -0.927  10.393  23.265  0.00  0.00    +0.000 A 
ATOM     21  C   UNL     1      -1.220  11.425  22.363  0.00  0.00    +0.000 A 
ATOM     22  C   UNL     1      -2.014  12.604  22.861  0.00  0.00    +0.000 C 
ATOM     23  C   UNL     1      -0.788  11.315  21.017  0.00  0.00    +0.000 A 
ATOM     24  C   UNL     1      -1.049  12.430  20.030  0.00  0.00    +0.000 C 
ENDBRANCH  15  17
ENDBRANCH   3  15
TORSDOF 4
ENDMDL
MODEL 5
REMARK VINA RESULT:      -7.3      3.147      8.730
REMARK  Name = 
REMARK  8 active torsions:
REMARK  status: ('A' for Active; 'I' for Inactive)
REMARK    1  A    between atoms: C_1  and  C_2
REMARK    2  A    between atoms: C_6  and  N_7
REMARK    3  A    between atoms: N_8  and  C_9
REMARK    4  A    between atoms: N_11  and  N_12
REMARK    5  A    between atoms: N_12  and  C_13
REMARK    6  A    between atoms: C_17  and  C_18
REMARK    7  A    between atoms: C_19  and  C_20
REMARK    8  A    between atoms: C_21  and  C_22
REMARK                            x       y       z     vdW  Elec       q    Type
REMARK                         _______ _______ _______ _____ _____    ______ ____
ROOT
ATOM      1  C   UNL     1       1.237   9.356  18.407  0.00  0.00    +0.000 C 
ATOM      2  O   UNL     1       1.298   9.750  19.573  0.00  0.00    +0.000 OA
ATOM      3  N   UNL     1       0.238   9.818  17.554  0.00  0.00    +0.000 N 
ATOM      4  H   UNL     1       0.431   9.763  16.561  0.00  0.00    +0.000 HD
ENDROOT
BRANCH   1   6
ATOM      5  N   UNL     1       2.485   7.576  18.580  0.00  0.00    +0.000 NA
ATOM      6  N   UNL     1       2.102   8.468  17.789  0.00  0.00    +0.000 NA
BRANCH   5  12
ATOM      7  C   UNL     1       3.502   2.768  17.644  0.00  0.00    +0.000 C 
ATOM      8  C   UNL     1       3.793   4.238  17.495  0.00  0.00    +0.000 A 
ATOM      9  C   UNL     1       4.839   4.637  16.650  0.00  0.00    +0.000 A 
ATOM     10  C   UNL     1       5.126   5.986  16.463  0.00  0.00    +0.000 A 
ATOM     11  C   UNL     1       4.365   6.953  17.118  0.00  0.00    +0.000 A 
ATOM     12  C   UNL     1       3.314   6.596  17.983  0.00  0.00    +0.000 A 
ATOM     13  C   UNL     1       3.026   5.222  18.167  0.00  0.00    +0.000 A 
ATOM     14  C   UNL     1       1.894   4.789  19.068  0.00  0.00    +0.000 C 
ENDBRANCH   5  12
ENDBRANCH   1   6
BRANCH   3  15
ATOM     15  N   UNL     1      -0.478  10.961  17.973  0.00  0.00    +0.000 N 
ATOM     16  H   UNL     1      -0.264  11.201  18.949  0.00  0.00    +0.000 HD
BRANCH  15  17
ATOM     17  C   UNL     1      -1.880  10.981  17.725  0.00  0.00    +0.000 A 
ATOM     18  C   UNL     1      -2.431  10.542  16.511  0.00  0.00    +0.000 A 
ATOM     19  C   UNL     1      -3.793  10.683  16.243  0.00  0.00    +0.000 A 
ATOM     20  C   UNL     1      -4.627  11.302  17.167  0.00  0.00    +0.000 A 
ATOM     21  C   UNL     1      -4.118  11.774  18.385  0.00  0.00    +0.000 A 
ATOM     22  C   UNL     1      -5.058  12.479  19.327  0.00  0.00    +0.000 C 
ATOM     23  C   UNL     1      -2.741  11.599  18.678  0.00  0.00    +0.000 A 
ATOM     24  C   UNL     1      -2.170  12.055  20.000  0.00  0.00    +0.000 C 
ENDBRANCH  15  17
ENDBRANCH   3  15
TORSDOF 4
ENDMDL
MODEL 6
REMARK VINA RESULT:      -7.2      2.494      8.051
REMARK  Name = 
REMARK  8 active torsions:
REMARK  status: ('A' for Active; 'I' for Inactive)
REMARK    1  A    between atoms: C_1  and  C_2
REMARK    2  A    between atoms: C_6  and  N_7
REMARK    3  A    between atoms: N_8  and  C_9
REMARK    4  A    between atoms: N_11  and  N_12
REMARK    5  A    between atoms: N_12  and  C_13
REMARK    6  A    between atoms: C_17  and  C_18
REMARK    7  A    between atoms: C_19  and  C_20
REMARK    8  A    between atoms: C_21  and  C_22
REMARK                            x       y       z     vdW  Elec       q    Type
REMARK                         _______ _______ _______ _____ _____    ______ ____
ROOT
ATOM      1  C   UNL     1       2.124   8.883  18.026  0.00  0.00    +0.000 C 
ATOM      2  O   UNL     1       2.312   9.906  17.366  0.00  0.00    +0.000 OA
ATOM      3  N   UNL     1       1.434   8.937  19.235  0.00  0.00    +0.000 N 
ATOM      4  H   UNL     1       1.000   8.076  19.546  0.00  0.00    +0.000 HD
ENDROOT
BRANCH   1   6
ATOM      5  N   UNL     1       2.596   6.864  18.701  0.00  0.00    +0.000 NA
ATOM      6  N   UNL     1       2.518   7.599  17.690  0.00  0.00    +0.000 NA
BRANCH   5  12
ATOM      7  C   UNL     1       1.831   1.975  19.437  0.00  0.00    +0.000 C 
ATOM      8  C   UNL     1       2.525   3.120  18.745  0.00  0.00    +0.000 A 
ATOM      9  C   UNL     1       3.428   2.836  17.711  0.00  0.00    +0.000 A 
ATOM     10  C   UNL     1       4.071   3.863  17.028  0.00  0.00    +0.000 A 
ATOM     11  C   UNL     1       3.814   5.190  17.371  0.00  0.00    +0.000 A 
ATOM     12  C   UNL     1       2.925   5.518  18.409  0.00  0.00    +0.000 A 
ATOM     13  C   UNL     1       2.271   4.468  19.099  0.00  0.00    +0.000 A 
ATOM     14  C   UNL     1       1.291   4.771  20.207  0.00  0.00    +0.000 C 
ENDBRANCH   5  12
ENDBRANCH   1   6
BRANCH   3  15
ATOM     15  N   UNL     1       0.707  10.119  19.500  0.00  0.00    +0.000 N 
ATOM     16  H   UNL     1       1.216  10.952  19.184  0.00  0.00    +0.000 HD
BRANCH  15  17
ATOM     17  C   UNL     1       0.194  10.288  20.817  0.00  0.00    +0.000 A 
ATOM     18  C   UNL     1       0.325   9.298  21.804  0.00  0.00    +0.000 A 
ATOM     19  C   UNL     1      -0.290   9.433  23.050  0.00  0.00    +0.000 A 
ATOM     20  C   UNL     1      -1.083  10.543  23.321  0.00  0.00    +0.000 A 
ATOM     21  C   UNL     1      -1.260  11.546  22.359  0.00  0.00    +0.000 A 
ATOM     22  C   UNL     1      -2.169  12.701  22.690  0.00  0.00    +0.000 C 
ATOM     23  C   UNL     1      -0.606  11.432  21.105  0.00  0.00    +0.000 A 
ATOM     24  C   UNL     1      -0.739  12.518  20.063  0.00  0.00    +0.000 C 
ENDBRANCH  15  17
ENDBRANCH   3  15
TORSDOF 4
ENDMDL
MODEL 7
REMARK VINA RESULT:      -7.1      2.745      4.065
REMARK  Name = 
REMARK  8 active torsions:
REMARK  status: ('A' for Active; 'I' for Inactive)
REMARK    1  A    between atoms: C_1  and  C_2
REMARK    2  A    between atoms: C_6  and  N_7
REMARK    3  A    between atoms: N_8  and  C_9
REMARK    4  A    between atoms: N_11  and  N_12
REMARK    5  A    between atoms: N_12  and  C_13
REMARK    6  A    between atoms: C_17  and  C_18
REMARK    7  A    between atoms: C_19  and  C_20
REMARK    8  A    between atoms: C_21  and  C_22
REMARK                            x       y       z     vdW  Elec       q    Type
REMARK                         _______ _______ _______ _____ _____    ______ ____
ROOT
ATOM      1  C   UNL     1       1.617   8.938  18.325  0.00  0.00    +0.000 C 
ATOM      2  O   UNL     1       2.254   9.093  17.282  0.00  0.00    +0.000 OA
ATOM      3  N   UNL     1       1.914   7.885  19.187  0.00  0.00    +0.000 N 
ATOM      4  H   UNL     1       1.637   8.001  20.154  0.00  0.00    +0.000 HD
ENDROOT
BRANCH   1   6
ATOM      5  N   UNL     1      -0.202  10.052  17.873  0.00  0.00    +0.000 NA
ATOM      6  N   UNL     1       0.589   9.740  18.792  0.00  0.00    +0.000 NA
BRANCH   5  12
ATOM      7  C   UNL     1      -5.023  11.301  17.400  0.00  0.00    +0.000 C 
ATOM      8  C   UNL     1      -3.690  11.398  18.095  0.00  0.00    +0.000 A 
ATOM      9  C   UNL     1      -3.592  12.168  19.264  0.00  0.00    +0.000 A 
ATOM     10  C   UNL     1      -2.387  12.263  19.952  0.00  0.00    +0.000 A 
ATOM     11  C   UNL     1      -1.264  11.585  19.479  0.00  0.00    +0.000 A 
ATOM     12  C   UNL     1      -1.316  10.812  18.305  0.00  0.00    +0.000 A 
ATOM     13  C   UNL     1      -2.546  10.716  17.611  0.00  0.00    +0.000 A 
ATOM     14  C   UNL     1      -2.658   9.881  16.358  0.00  0.00    +0.000 C 
ENDBRANCH   5  12
ENDBRANCH   1   6
BRANCH   3  15
ATOM     15  N   UNL     1       3.144   7.221  18.979  0.00  0.00    +0.000 N 
ATOM     16  H   UNL     1       3.856   7.858  18.602  0.00  0.00    +0.000 HD
BRANCH  15  17
ATOM     17  C   UNL     1       3.109   5.992  18.262  0.00  0.00    +0.000 A 
ATOM     18  C   UNL     1       2.094   5.041  18.455  0.00  0.00    +0.000 A 
ATOM     19  C   UNL     1       2.144   3.793  17.833  0.00  0.00    +0.000 A 
ATOM     20  C   UNL     1       3.232   3.454  17.035  0.00  0.00    +0.000 A 
ATOM     21  C   UNL     1       4.278   4.363  16.830  0.00  0.00    +0.000 A 
ATOM     22  C   UNL     1       5.453   3.922  15.996  0.00  0.00    +0.000 C 
ATOM     23  C   UNL     1       4.213   5.646  17.429  0.00  0.00    +0.000 A 
ATOM     24  C   UNL     1       5.302   6.666  17.191  0.00  0.00    +0.000 C 
ENDBRANCH  15  17
ENDBRANCH   3  15
TORSDOF 4
ENDMDL
MODEL 8
REMARK VINA RESULT:      -7.1      2.376      4.111
REMARK  Name = 
REMARK  8 active torsions:
REMARK  status: ('A' for Active; 'I' for Inactive)
REMARK    1  A    between atoms: C_1  and  C_2
REMARK    2  A    between atoms: C_6  and  N_7
REMARK    3  A    between atoms: N_8  and  C_9
REMARK    4  A    between atoms: N_11  and  N_12
REMARK    5  A    between atoms: N_12  and  C_13
REMARK    6  A    between atoms: C_17  and  C_18
REMARK    7  A    between atoms: C_19  and  C_20
REMARK    8  A    between atoms: C_21  and  C_22
REMARK                            x       y       z     vdW  Elec       q    Type
REMARK                         _______ _______ _______ _____ _____    ______ ____
ROOT
ATOM      1  C   UNL     1       1.561   8.338  20.081  0.00  0.00    +0.000 C 
ATOM      2  O   UNL     1       1.836   8.425  18.883  0.00  0.00    +0.000 OA
ATOM      3  N   UNL     1       1.868   7.183  20.797  0.00  0.00    +0.000 N 
ATOM      4  H   UNL     1       1.961   7.285  21.800  0.00  0.00    +0.000 HD
ENDROOT
BRANCH   1   6
ATOM      5  N   UNL     1       0.022   9.873  20.256  0.00  0.00    +0.000 NA
ATOM      6  N   UNL     1       0.962   9.311  20.863  0.00  0.00    +0.000 NA
BRANCH   5  12
ATOM      7  C   UNL     1      -3.254  13.643  20.550  0.00  0.00    +0.000 C 
ATOM      8  C   UNL     1      -2.309  12.654  21.183  0.00  0.00    +0.000 A 
ATOM      9  C   UNL     1      -2.216  12.609  22.582  0.00  0.00    +0.000 A 
ATOM     10  C   UNL     1      -1.376  11.693  23.208  0.00  0.00    +0.000 A 
ATOM     11  C   UNL     1      -0.621  10.808  22.440  0.00  0.00    +0.000 A 
ATOM     12  C   UNL     1      -0.676  10.828  21.035  0.00  0.00    +0.000 A 
ATOM     13  C   UNL     1      -1.535  11.760  20.403  0.00  0.00    +0.000 A 
ATOM     14  C   UNL     1      -1.645  11.805  18.897  0.00  0.00    +0.000 C 
ENDBRANCH   5  12
ENDBRANCH   1   6
BRANCH   3  15
ATOM     15  N   UNL     1       2.768   6.279  20.190  0.00  0.00    +0.000 N 
ATOM     16  H   UNL     1       3.195   6.683  19.347  0.00  0.00    +0.000 HD
BRANCH  15  17
ATOM     17  C   UNL     1       2.304   4.953  19.958  0.00  0.00    +0.000 A 
ATOM     18  C   UNL     1       1.556   4.244  20.911  0.00  0.00    +0.000 A 
ATOM     19  C   UNL     1       1.216   2.906  20.713  0.00  0.00    +0.000 A 
ATOM     20  C   UNL     1       1.651   2.235  19.575  0.00  0.00    +0.000 A 
ATOM     21  C   UNL     1       2.417   2.896  18.606  0.00  0.00    +0.000 A 
ATOM     22  C   UNL     1       2.901   2.106  17.417  0.00  0.00    +0.000 C 
ATOM     23  C   UNL     1       2.733   4.267  18.784  0.00  0.00    +0.000 A 
ATOM     24  C   UNL     1       3.518   5.021  17.736  0.00  0.00    +0.000 C 
ENDBRANCH  15  17
ENDBRANCH   3  15
TORSDOF 4
ENDMDL
MODEL 9
REMARK VINA RESULT:      -7.1      2.116      4.190
REMARK  Name = 
REMARK  8 active torsions:
REMARK  status: ('A' for Active; 'I' for Inactive)
REMARK    1  A    between atoms: C_1  and  C_2
REMARK    2  A    between atoms: C_6  and  N_7
REMARK    3  A    between atoms: N_8  and  C_9
REMARK    4  A    between atoms: N_11  and  N_12
REMARK    5  A    between atoms: N_12  and  C_13
REMARK    6  A    between atoms: C_17  and  C_18
REMARK    7  A    between atoms: C_19  and  C_20
REMARK    8  A    between atoms: C_21  and  C_22
REMARK                            x       y       z     vdW  Elec       q    Type
REMARK                         _______ _______ _______ _____ _____    ______ ____
ROOT
ATOM      1  C   UNL     1       2.012   8.234  18.954  0.00  0.00    +0.000 C 
ATOM      2  O   UNL     1       2.537   7.852  17.907  0.00  0.00    +0.000 OA
ATOM      3  N   UNL     1       2.052   7.441  20.098  0.00  0.00    +0.000 N 
ATOM      4  H   UNL     1       1.943   7.920  20.984  0.00  0.00    +0.000 HD
ENDROOT
BRANCH   1   6
ATOM      5  N   UNL     1       0.258   9.272  19.732  0.00  0.00    +0.000 NA
ATOM      6  N   UNL     1       1.359   9.438  19.158  0.00  0.00    +0.000 NA
BRANCH   5  12
ATOM      7  C   UNL     1      -1.357  12.589  23.110  0.00  0.00    +0.000 C 
ATOM      8  C   UNL     1      -1.183  12.122  21.689  0.00  0.00    +0.000 A 
ATOM      9  C   UNL     1      -1.602  12.960  20.646  0.00  0.00    +0.000 A 
ATOM     10  C   UNL     1      -1.437  12.579  19.318  0.00  0.00    +0.000 A 
ATOM     11  C   UNL     1      -0.845  11.352  19.018  0.00  0.00    +0.000 A 
ATOM     12  C   UNL     1      -0.421  10.477  20.034  0.00  0.00    +0.000 A 
ATOM     13  C   UNL     1      -0.590  10.872  21.383  0.00  0.00    +0.000 A 
ATOM     14  C   UNL     1      -0.131   9.975  22.509  0.00  0.00    +0.000 C 
ENDBRANCH   5  12
ENDBRANCH   1   6
BRANCH   3  15
ATOM     15  N   UNL     1       2.968   6.366  20.095  0.00  0.00    +0.000 N 
ATOM     16  H   UNL     1       3.762   6.551  19.471  0.00  0.00    +0.000 HD
BRANCH  15  17
ATOM     17  C   UNL     1       2.440   5.059  19.895  0.00  0.00    +0.000 A 
ATOM     18  C   UNL     1       1.370   4.560  20.655  0.00  0.00    +0.000 A 
ATOM     19  C   UNL     1       0.948   3.236  20.527  0.00  0.00    +0.000 A 
ATOM     20  C   UNL     1       1.613   2.371  19.666  0.00  0.00    +0.000 A 
ATOM     21  C   UNL     1       2.700   2.819  18.902  0.00  0.00    +0.000 A 
ATOM     22  C   UNL     1       3.412   1.825  18.022  0.00  0.00    +0.000 C 
ATOM     23  C   UNL     1       3.108   4.173  19.000  0.00  0.00    +0.000 A 
ATOM     24  C   UNL     1       4.247   4.699  18.157  0.00  0.00    +0.000 C 
ENDBRANCH  15  17
ENDBRANCH   3  15
TORSDOF 4
ENDMDL
