MODEL 1
REMARK VINA RESULT:      -8.5      0.000      0.000
REMARK  Name = 
REMARK  10 active torsions:
REMARK  status: ('A' for Active; 'I' for Inactive)
REMARK    1  A    between atoms: C_1  and  C_2
REMARK    2  A    between atoms: C_2  and  N_3
REMARK    3  A    between atoms: N_3  and  C_4
REMARK    4  A    between atoms: N_3  and  C_6
REMARK    5  A    between atoms: C_4  and  C_5
REMARK    6  A    between atoms: C_9  and  N_10
REMARK    7  A    between atoms: C_11  and  C_13
REMARK    8  A    between atoms: C_13  and  O_14
REMARK    9  A    between atoms: O_14  and  C_15
REMARK   10  A    between atoms: C_15  and  C_17
REMARK                            x       y       z     vdW  Elec       q    Type
REMARK                         _______ _______ _______ _____ _____    ______ ____
ROOT
ATOM      1  N   UNL     1       2.463   5.748  20.637  0.00  0.00    +0.000 N 
ATOM      2  C   UNL     1       1.717   4.575  20.668  0.00  0.00    +0.000 C 
ATOM      3  O   UNL     1       0.534   4.468  20.350  0.00  0.00    +0.000 OA
ATOM      4  H   UNL     1       3.443   5.667  20.906  0.00  0.00    +0.000 HD
ENDROOT
BRANCH   1   8
ATOM      5  C   UNL     1       1.055   9.623  19.366  0.00  0.00    +0.000 A 
ATOM      6  C   UNL     1       0.856   9.148  20.671  0.00  0.00    +0.000 A 
ATOM      7  C   UNL     1       1.300   7.882  21.108  0.00  0.00    +0.000 A 
ATOM      8  C   UNL     1       2.010   7.038  20.263  0.00  0.00    +0.000 A 
ATOM      9  C   UNL     1       2.286   7.508  18.979  0.00  0.00    +0.000 A 
ATOM     10  C   UNL     1       1.816   8.766  18.547  0.00  0.00    +0.000 A 
BRANCH   5  11
ATOM     11  N   UNL     1       0.528  10.834  18.930  0.00  0.00    +0.000 N 
BRANCH  11  13
ATOM     12  C   UNL     1       0.663  13.316  18.655  0.00  0.00    +0.000 C 
ATOM     13  C   UNL     1       1.388  11.977  18.576  0.00  0.00    +0.000 C 
ENDBRANCH  11  13
BRANCH  11  14
ATOM     14  C   UNL     1      -0.922  11.033  18.755  0.00  0.00    +0.000 C 
ATOM     15  C   UNL     1      -1.483  10.166  17.636  0.00  0.00    +0.000 C 
ENDBRANCH  11  14
ENDBRANCH   5  11
ENDBRANCH   1   8
BRANCH   2  16
ATOM     16  C   UNL     1       2.507   3.313  21.080  0.00  0.00    +0.000 C 
BRANCH  16  17
ATOM     17  O   UNL     1       2.951   2.423  20.051  0.00  0.00    +0.000 OA
BRANCH  17  18
ATOM     18  C   UNL     1       4.293   2.422  19.873  0.00  0.00    +0.000 C 
ATOM     19  O   UNL     1       5.037   1.569  20.360  0.00  0.00    +0.000 OA
BRANCH  18  20
ATOM     20  C   UNL     1       4.833   3.560  19.062  0.00  0.00    +0.000 A 
ATOM     21  C   UNL     1       4.033   3.976  18.006  0.00  0.00    +0.000 A 
ATOM     22  C   UNL     1       4.452   5.037  17.222  0.00  0.00    +0.000 A 
ATOM     23  C   UNL     1       5.630   5.701  17.545  0.00  0.00    +0.000 A 
ATOM     24  C   UNL     1       6.002   6.845  16.817  0.00  0.00    +0.000 A 
ATOM     25  C   UNL     1       7.120   7.579  17.193  0.00  0.00    +0.000 A 
ATOM     26  C   UNL     1       7.891   7.137  18.262  0.00  0.00    +0.000 A 
ATOM     27  C   UNL     1       7.543   5.965  18.951  0.00  0.00    +0.000 A 
ATOM     28  C   UNL     1       6.397   5.231  18.637  0.00  0.00    +0.000 A 
ATOM     29  N   UNL     1       6.020   4.150  19.374  0.00  0.00    +0.000 NA
ENDBRANCH  18  20
ENDBRANCH  17  18
ENDBRANCH  16  17
ENDBRANCH   2  16
TORSDOF 8
ENDMDL
MODEL 2
REMARK VINA RESULT:      -8.3      0.668      1.397
REMARK  Name = 
REMARK  10 active torsions:
REMARK  status: ('A' for Active; 'I' for Inactive)
REMARK    1  A    between atoms: C_1  and  C_2
REMARK    2  A    between atoms: C_2  and  N_3
REMARK    3  A    between atoms: N_3  and  C_4
REMARK    4  A    between atoms: N_3  and  C_6
REMARK    5  A    between atoms: C_4  and  C_5
REMARK    6  A    between atoms: C_9  and  N_10
REMARK    7  A    between atoms: C_11  and  C_13
REMARK    8  A    between atoms: C_13  and  O_14
REMARK    9  A    between atoms: O_14  and  C_15
REMARK   10  A    between atoms: C_15  and  C_17
REMARK                            x       y       z     vdW  Elec       q    Type
REMARK                         _______ _______ _______ _____ _____    ______ ____
ROOT
ATOM      1  N   UNL     1       2.344   5.603  20.953  0.00  0.00    +0.000 N 
ATOM      2  C   UNL     1       1.711   4.386  20.729  0.00  0.00    +0.000 C 
ATOM      3  O   UNL     1       0.698   4.218  20.052  0.00  0.00    +0.000 OA
ATOM      4  H   UNL     1       3.193   5.574  21.517  0.00  0.00    +0.000 HD
ENDROOT
BRANCH   1   8
ATOM      5  C   UNL     1       1.094   9.416  19.369  0.00  0.00    +0.000 A 
ATOM      6  C   UNL     1       0.819   9.031  20.690  0.00  0.00    +0.000 A 
ATOM      7  C   UNL     1       1.210   7.787  21.228  0.00  0.00    +0.000 A 
ATOM      8  C   UNL     1       1.941   6.876  20.475  0.00  0.00    +0.000 A 
ATOM      9  C   UNL     1       2.291   7.256  19.180  0.00  0.00    +0.000 A 
ATOM     10  C   UNL     1       1.874   8.493  18.646  0.00  0.00    +0.000 A 
BRANCH   5  11
ATOM     11  N   UNL     1       0.618  10.608  18.830  0.00  0.00    +0.000 N 
BRANCH  11  13
ATOM     12  C   UNL     1      -1.702  11.422  19.284  0.00  0.00    +0.000 C 
ATOM     13  C   UNL     1      -0.755  10.734  18.308  0.00  0.00    +0.000 C 
ENDBRANCH  11  13
BRANCH  11  14
ATOM     14  C   UNL     1       1.444  11.827  18.789  0.00  0.00    +0.000 C 
ATOM     15  C   UNL     1       1.626  12.436  20.173  0.00  0.00    +0.000 C 
ENDBRANCH  11  14
ENDBRANCH   5  11
ENDBRANCH   1   8
BRANCH   2  16
ATOM     16  C   UNL     1       2.419   3.162  21.350  0.00  0.00    +0.000 C 
BRANCH  16  17
ATOM     17  O   UNL     1       3.640   2.709  20.756  0.00  0.00    +0.000 OA
BRANCH  17  18
ATOM     18  C   UNL     1       3.620   2.711  19.402  0.00  0.00    +0.000 C 
ATOM     19  O   UNL     1       3.001   1.879  18.735  0.00  0.00    +0.000 OA
BRANCH  18  20
ATOM     20  C   UNL     1       4.436   3.785  18.751  0.00  0.00    +0.000 A 
ATOM     21  C   UNL     1       3.869   4.373  17.628  0.00  0.00    +0.000 A 
ATOM     22  C   UNL     1       4.552   5.389  16.982  0.00  0.00    +0.000 A 
ATOM     23  C   UNL     1       5.758   5.841  17.506  0.00  0.00    +0.000 A 
ATOM     24  C   UNL     1       6.401   6.943  16.916  0.00  0.00    +0.000 A 
ATOM     25  C   UNL     1       7.550   7.471  17.488  0.00  0.00    +0.000 A 
ATOM     26  C   UNL     1       8.084   6.862  18.618  0.00  0.00    +0.000 A 
ATOM     27  C   UNL     1       7.467   5.729  19.172  0.00  0.00    +0.000 A 
ATOM     28  C   UNL     1       6.281   5.203  18.657  0.00  0.00    +0.000 A 
ATOM     29  N   UNL     1       5.642   4.163  19.260  0.00  0.00    +0.000 NA
ENDBRANCH  18  20
ENDBRANCH  17  18
ENDBRANCH  16  17
ENDBRANCH   2  16
TORSDOF 8
ENDMDL
MODEL 3
REMARK VINA RESULT:      -8.2      0.584      1.172
REMARK  Name = 
REMARK  10 active torsions:
REMARK  status: ('A' for Active; 'I' for Inactive)
REMARK    1  A    between atoms: C_1  and  C_2
REMARK    2  A    between atoms: C_2  and  N_3
REMARK    3  A    between atoms: N_3  and  C_4
REMARK    4  A    between atoms: N_3  and  C_6
REMARK    5  A    between atoms: C_4  and  C_5
REMARK    6  A    between atoms: C_9  and  N_10
REMARK    7  A    between atoms: C_11  and  C_13
REMARK    8  A    between atoms: C_13  and  O_14
REMARK    9  A    between atoms: O_14  and  C_15
REMARK   10  A    between atoms: C_15  and  C_17
REMARK                            x       y       z     vdW  Elec       q    Type
REMARK                         _______ _______ _______ _____ _____    ______ ____
ROOT
ATOM      1  N   UNL     1       2.494   6.210  20.456  0.00  0.00    +0.000 N 
ATOM      2  C   UNL     1       1.797   5.019  20.620  0.00  0.00    +0.000 C 
ATOM      3  O   UNL     1       0.593   4.859  20.424  0.00  0.00    +0.000 OA
ATOM      4  H   UNL     1       3.497   6.175  20.633  0.00  0.00    +0.000 HD
ENDROOT
BRANCH   1   8
ATOM      5  C   UNL     1       0.916  10.080  19.384  0.00  0.00    +0.000 A 
ATOM      6  C   UNL     1       1.532   9.239  18.444  0.00  0.00    +0.000 A 
ATOM      7  C   UNL     1       2.061   7.974  18.772  0.00  0.00    +0.000 A 
ATOM      8  C   UNL     1       1.962   7.464  20.061  0.00  0.00    +0.000 A 
ATOM      9  C   UNL     1       1.295   8.245  21.004  0.00  0.00    +0.000 A 
ATOM     10  C   UNL     1       0.790   9.519  20.670  0.00  0.00    +0.000 A 
BRANCH   5  11
ATOM     11  N   UNL     1       0.485  11.362  19.059  0.00  0.00    +0.000 N 
BRANCH  11  13
ATOM     12  C   UNL     1       2.486  12.596  18.207  0.00  0.00    +0.000 C 
ATOM     13  C   UNL     1       1.352  12.543  19.225  0.00  0.00    +0.000 C 
ENDBRANCH  11  13
BRANCH  11  14
ATOM     14  C   UNL     1      -0.851  11.612  18.489  0.00  0.00    +0.000 C 
ATOM     15  C   UNL     1      -1.864  11.990  19.561  0.00  0.00    +0.000 C 
ENDBRANCH  11  14
ENDBRANCH   5  11
ENDBRANCH   1   8
BRANCH   2  16
ATOM     16  C   UNL     1       2.667   3.807  21.019  0.00  0.00    +0.000 C 
BRANCH  16  17
ATOM     17  O   UNL     1       2.937   2.810  20.029  0.00  0.00    +0.000 OA
BRANCH  17  18
ATOM     18  C   UNL     1       4.255   2.654  19.759  0.00  0.00    +0.000 C 
ATOM     19  O   UNL     1       4.907   1.675  20.125  0.00  0.00    +0.000 OA
BRANCH  18  20
ATOM     20  C   UNL     1       4.890   3.781  19.002  0.00  0.00    +0.000 A 
ATOM     21  C   UNL     1       4.162   4.263  17.922  0.00  0.00    +0.000 A 
ATOM     22  C   UNL     1       4.672   5.318  17.185  0.00  0.00    +0.000 A 
ATOM     23  C   UNL     1       5.867   5.911  17.577  0.00  0.00    +0.000 A 
ATOM     24  C   UNL     1       6.332   7.049  16.896  0.00  0.00    +0.000 A 
ATOM     25  C   UNL     1       7.467   7.714  17.340  0.00  0.00    +0.000 A 
ATOM     26  C   UNL     1       8.165   7.206  18.430  0.00  0.00    +0.000 A 
ATOM     27  C   UNL     1       7.724   6.039  19.073  0.00  0.00    +0.000 A 
ATOM     28  C   UNL     1       6.558   5.374  18.690  0.00  0.00    +0.000 A 
ATOM     29  N   UNL     1       6.091   4.298  19.381  0.00  0.00    +0.000 NA
ENDBRANCH  18  20
ENDBRANCH  17  18
ENDBRANCH  16  17
ENDBRANCH   2  16
TORSDOF 8
ENDMDL
MODEL 4
REMARK VINA RESULT:      -8.0      0.767      1.732
REMARK  Name = 
REMARK  10 active torsions:
REMARK  status: ('A' for Active; 'I' for Inactive)
REMARK    1  A    between atoms: C_1  and  C_2
REMARK    2  A    between atoms: C_2  and  N_3
REMARK    3  A    between atoms: N_3  and  C_4
REMARK    4  A    between atoms: N_3  and  C_6
REMARK    5  A    between atoms: C_4  and  C_5
REMARK    6  A    between atoms: C_9  and  N_10
REMARK    7  A    between atoms: C_11  and  C_13
REMARK    8  A    between atoms: C_13  and  O_14
REMARK    9  A    between atoms: O_14  and  C_15
REMARK   10  A    between atoms: C_15  and  C_17
REMARK                            x       y       z     vdW  Elec       q    Type
REMARK                         _______ _______ _______ _____ _____    ______ ____
ROOT
ATOM      1  N   UNL     1       2.664   5.497  20.656  0.00  0.00    +0.000 N 
ATOM      2  C   UNL     1       1.958   4.302  20.715  0.00  0.00    +0.000 C 
ATOM      3  O   UNL     1       0.800   4.133  20.337  0.00  0.00    +0.000 OA
ATOM      4  H   UNL     1       3.629   5.469  20.985  0.00  0.00    +0.000 HD
ENDROOT
BRANCH   1   8
ATOM      5  C   UNL     1       1.253   9.357  19.343  0.00  0.00    +0.000 A 
ATOM      6  C   UNL     1       1.946   8.485  18.488  0.00  0.00    +0.000 A 
ATOM      7  C   UNL     1       2.423   7.223  18.897  0.00  0.00    +0.000 A 
ATOM      8  C   UNL     1       2.191   6.747  20.181  0.00  0.00    +0.000 A 
ATOM      9  C   UNL     1       1.446   7.559  21.036  0.00  0.00    +0.000 A 
ATOM     10  C   UNL     1       0.994   8.830  20.623  0.00  0.00    +0.000 A 
BRANCH   5  11
ATOM     11  N   UNL     1       0.873  10.635  18.947  0.00  0.00    +0.000 N 
BRANCH  11  13
ATOM     12  C   UNL     1      -1.615  10.878  19.023  0.00  0.00    +0.000 C 
ATOM     13  C   UNL     1      -0.353  10.878  18.166  0.00  0.00    +0.000 C 
ENDBRANCH  11  13
BRANCH  11  14
ATOM     14  C   UNL     1       1.651  11.829  19.321  0.00  0.00    +0.000 C 
ATOM     15  C   UNL     1       2.388  12.423  18.129  0.00  0.00    +0.000 C 
ENDBRANCH  11  14
ENDBRANCH   5  11
ENDBRANCH   1   8
BRANCH   2  16
ATOM     16  C   UNL     1       2.765   3.096  21.245  0.00  0.00    +0.000 C 
BRANCH  16  17
ATOM     17  O   UNL     1       3.600   2.381  20.329  0.00  0.00    +0.000 OA
BRANCH  17  18
ATOM     18  C   UNL     1       3.387   2.705  19.031  0.00  0.00    +0.000 C 
ATOM     19  O   UNL     1       2.525   2.165  18.335  0.00  0.00    +0.000 OA
BRANCH  18  20
ATOM     20  C   UNL     1       4.300   3.754  18.475  0.00  0.00    +0.000 A 
ATOM     21  C   UNL     1       3.882   4.347  17.291  0.00  0.00    +0.000 A 
ATOM     22  C   UNL     1       4.660   5.341  16.724  0.00  0.00    +0.000 A 
ATOM     23  C   UNL     1       5.808   5.768  17.382  0.00  0.00    +0.000 A 
ATOM     24  C   UNL     1       6.542   6.849  16.865  0.00  0.00    +0.000 A 
ATOM     25  C   UNL     1       7.630   7.354  17.565  0.00  0.00    +0.000 A 
ATOM     26  C   UNL     1       8.014   6.740  18.752  0.00  0.00    +0.000 A 
ATOM     27  C   UNL     1       7.309   5.627  19.235  0.00  0.00    +0.000 A 
ATOM     28  C   UNL     1       6.177   5.126  18.588  0.00  0.00    +0.000 A 
ATOM     29  N   UNL     1       5.448   4.106  19.118  0.00  0.00    +0.000 NA
ENDBRANCH  18  20
ENDBRANCH  17  18
ENDBRANCH  16  17
ENDBRANCH   2  16
TORSDOF 8
ENDMDL
MODEL 5
REMARK VINA RESULT:      -7.7      0.794      1.038
REMARK  Name = 
REMARK  10 active torsions:
REMARK  status: ('A' for Active; 'I' for Inactive)
REMARK    1  A    between atoms: C_1  and  C_2
REMARK    2  A    between atoms: C_2  and  N_3
REMARK    3  A    between atoms: N_3  and  C_4
REMARK    4  A    between atoms: N_3  and  C_6
REMARK    5  A    between atoms: C_4  and  C_5
REMARK    6  A    between atoms: C_9  and  N_10
REMARK    7  A    between atoms: C_11  and  C_13
REMARK    8  A    between atoms: C_13  and  O_14
REMARK    9  A    between atoms: O_14  and  C_15
REMARK   10  A    between atoms: C_15  and  C_17
REMARK                            x       y       z     vdW  Elec       q    Type
REMARK                         _______ _______ _______ _____ _____    ______ ____
ROOT
ATOM      1  N   UNL     1       2.837   5.691  20.407  0.00  0.00    +0.000 N 
ATOM      2  C   UNL     1       2.234   4.440  20.364  0.00  0.00    +0.000 C 
ATOM      3  O   UNL     1       1.072   4.214  20.029  0.00  0.00    +0.000 OA
ATOM      4  H   UNL     1       3.820   5.709  20.680  0.00  0.00    +0.000 HD
ENDROOT
BRANCH   1   8
ATOM      5  C   UNL     1       0.983   9.440  19.351  0.00  0.00    +0.000 A 
ATOM      6  C   UNL     1       0.891   8.900  20.643  0.00  0.00    +0.000 A 
ATOM      7  C   UNL     1       1.482   7.673  21.010  0.00  0.00    +0.000 A 
ATOM      8  C   UNL     1       2.238   6.940  20.104  0.00  0.00    +0.000 A 
ATOM      9  C   UNL     1       2.407   7.481  18.831  0.00  0.00    +0.000 A 
ATOM     10  C   UNL     1       1.792   8.698  18.469  0.00  0.00    +0.000 A 
BRANCH   5  11
ATOM     11  N   UNL     1       0.315  10.605  18.986  0.00  0.00    +0.000 N 
BRANCH  11  13
ATOM     12  C   UNL     1       1.546  12.579  19.902  0.00  0.00    +0.000 C 
ATOM     13  C   UNL     1       1.035  11.849  18.665  0.00  0.00    +0.000 C 
ENDBRANCH  11  13
BRANCH  11  14
ATOM     14  C   UNL     1      -1.152  10.651  18.857  0.00  0.00    +0.000 C 
ATOM     15  C   UNL     1      -1.617  10.177  17.487  0.00  0.00    +0.000 C 
ENDBRANCH  11  14
ENDBRANCH   5  11
ENDBRANCH   1   8
BRANCH   2  16
ATOM     16  C   UNL     1       3.165   3.256  20.709  0.00  0.00    +0.000 C 
BRANCH  16  17
ATOM     17  O   UNL     1       3.347   2.227  19.732  0.00  0.00    +0.000 OA
BRANCH  17  18
ATOM     18  C   UNL     1       3.278   2.672  18.454  0.00  0.00    +0.000 C 
ATOM     19  O   UNL     1       2.505   2.201  17.618  0.00  0.00    +0.000 OA
BRANCH  18  20
ATOM     20  C   UNL     1       4.240   3.766  18.104  0.00  0.00    +0.000 A 
ATOM     21  C   UNL     1       3.862   4.579  17.044  0.00  0.00    +0.000 A 
ATOM     22  C   UNL     1       4.687   5.627  16.673  0.00  0.00    +0.000 A 
ATOM     23  C   UNL     1       5.841   5.880  17.406  0.00  0.00    +0.000 A 
ATOM     24  C   UNL     1       6.624   7.006  17.100  0.00  0.00    +0.000 A 
ATOM     25  C   UNL     1       7.721   7.330  17.887  0.00  0.00    +0.000 A 
ATOM     26  C   UNL     1       8.063   6.497  18.946  0.00  0.00    +0.000 A 
ATOM     27  C   UNL     1       7.308   5.345  19.214  0.00  0.00    +0.000 A 
ATOM     28  C   UNL     1       6.168   5.015  18.479  0.00  0.00    +0.000 A 
ATOM     29  N   UNL     1       5.391   3.948  18.809  0.00  0.00    +0.000 NA
ENDBRANCH  18  20
ENDBRANCH  17  18
ENDBRANCH  16  17
ENDBRANCH   2  16
TORSDOF 8
ENDMDL
MODEL 6
REMARK VINA RESULT:      -7.5      5.208      7.633
REMARK  Name = 
REMARK  10 active torsions:
REMARK  status: ('A' for Active; 'I' for Inactive)
REMARK    1  A    between atoms: C_1  and  C_2
REMARK    2  A    between atoms: C_2  and  N_3
REMARK    3  A    between atoms: N_3  and  C_4
REMARK    4  A    between atoms: N_3  and  C_6
REMARK    5  A    between atoms: C_4  and  C_5
REMARK    6  A    between atoms: C_9  and  N_10
REMARK    7  A    between atoms: C_11  and  C_13
REMARK    8  A    between atoms: C_13  and  O_14
REMARK    9  A    between atoms: O_14  and  C_15
REMARK   10  A    between atoms: C_15  and  C_17
REMARK                            x       y       z     vdW  Elec       q    Type
REMARK                         _______ _______ _______ _____ _____    ______ ____
ROOT
ATOM      1  N   UNL     1       9.090   9.109  19.121  0.00  0.00    +0.000 N 
ATOM      2  C   UNL     1       8.258   8.416  18.251  0.00  0.00    +0.000 C 
ATOM      3  O   UNL     1       7.678   8.895  17.278  0.00  0.00    +0.000 OA
ATOM      4  H   UNL     1       9.520   8.563  19.867  0.00  0.00    +0.000 HD
ENDROOT
BRANCH   1   8
ATOM      5  C   UNL     1      10.024  13.312  18.850  0.00  0.00    +0.000 A 
ATOM      6  C   UNL     1       9.546  12.729  20.034  0.00  0.00    +0.000 A 
ATOM      7  C   UNL     1       9.228  11.360  20.144  0.00  0.00    +0.000 A 
ATOM      8  C   UNL     1       9.413  10.489  19.078  0.00  0.00    +0.000 A 
ATOM      9  C   UNL     1       9.951  11.023  17.907  0.00  0.00    +0.000 A 
ATOM     10  C   UNL     1      10.245  12.398  17.801  0.00  0.00    +0.000 A 
BRANCH   5  11
ATOM     11  N   UNL     1      10.244  14.681  18.735  0.00  0.00    +0.000 N 
BRANCH  11  13
ATOM     12  C   UNL     1      11.450  16.048  17.024  0.00  0.00    +0.000 C 
ATOM     13  C   UNL     1      11.543  15.229  18.306  0.00  0.00    +0.000 C 
ENDBRANCH  11  13
BRANCH  11  14
ATOM     14  C   UNL     1       9.177  15.664  18.994  0.00  0.00    +0.000 C 
ATOM     15  C   UNL     1       7.992  15.476  18.058  0.00  0.00    +0.000 C 
ENDBRANCH  11  14
ENDBRANCH   5  11
ENDBRANCH   1   8
BRANCH   2  16
ATOM     16  C   UNL     1       8.137   6.902  18.535  0.00  0.00    +0.000 C 
BRANCH  16  17
ATOM     17  O   UNL     1       6.844   6.369  18.839  0.00  0.00    +0.000 OA
BRANCH  17  18
ATOM     18  C   UNL     1       6.666   5.096  18.414  0.00  0.00    +0.000 C 
ATOM     19  O   UNL     1       7.588   4.385  18.011  0.00  0.00    +0.000 OA
BRANCH  18  20
ATOM     20  C   UNL     1       5.250   4.607  18.432  0.00  0.00    +0.000 A 
ATOM     21  C   UNL     1       4.825   3.958  17.280  0.00  0.00    +0.000 A 
ATOM     22  C   UNL     1       3.536   3.458  17.227  0.00  0.00    +0.000 A 
ATOM     23  C   UNL     1       2.717   3.559  18.347  0.00  0.00    +0.000 A 
ATOM     24  C   UNL     1       1.447   2.958  18.333  0.00  0.00    +0.000 A 
ATOM     25  C   UNL     1       0.659   2.961  19.477  0.00  0.00    +0.000 A 
ATOM     26  C   UNL     1       1.123   3.613  20.614  0.00  0.00    +0.000 A 
ATOM     27  C   UNL     1       2.369   4.257  20.604  0.00  0.00    +0.000 A 
ATOM     28  C   UNL     1       3.212   4.228  19.491  0.00  0.00    +0.000 A 
ATOM     29  N   UNL     1       4.458   4.776  19.527  0.00  0.00    +0.000 NA
ENDBRANCH  18  20
ENDBRANCH  17  18
ENDBRANCH  16  17
ENDBRANCH   2  16
TORSDOF 8
ENDMDL
MODEL 7
REMARK VINA RESULT:      -7.4      5.136      7.626
REMARK  Name = 
REMARK  10 active torsions:
REMARK  status: ('A' for Active; 'I' for Inactive)
REMARK    1  A    between atoms: C_1  and  C_2
REMARK    2  A    between atoms: C_2  and  N_3
REMARK    3  A    between atoms: N_3  and  C_4
REMARK    4  A    between atoms: N_3  and  C_6
REMARK    5  A    between atoms: C_4  and  C_5
REMARK    6  A    between atoms: C_9  and  N_10
REMARK    7  A    between atoms: C_11  and  C_13
REMARK    8  A    between atoms: C_13  and  O_14
REMARK    9  A    between atoms: O_14  and  C_15
REMARK   10  A    between atoms: C_15  and  C_17
REMARK                            x       y       z     vdW  Elec       q    Type
REMARK                         _______ _______ _______ _____ _____    ______ ____
ROOT
ATOM      1  N   UNL     1       8.733   8.469  19.059  0.00  0.00    +0.000 N 
ATOM      2  C   UNL     1       7.898   7.889  18.111  0.00  0.00    +0.000 C 
ATOM      3  O   UNL     1       7.415   8.460  17.135  0.00  0.00    +0.000 OA
ATOM      4  H   UNL     1       9.074   7.855  19.797  0.00  0.00    +0.000 HD
ENDROOT
BRANCH   1   8
ATOM      5  C   UNL     1       9.972  12.602  19.078  0.00  0.00    +0.000 A 
ATOM      6  C   UNL     1       9.802  11.868  20.262  0.00  0.00    +0.000 A 
ATOM      7  C   UNL     1       9.391  10.520  20.281  0.00  0.00    +0.000 A 
ATOM      8  C   UNL     1       9.168   9.818  19.103  0.00  0.00    +0.000 A 
ATOM      9  C   UNL     1       9.395  10.497  17.906  0.00  0.00    +0.000 A 
ATOM     10  C   UNL     1       9.784  11.853  17.900  0.00  0.00    +0.000 A 
BRANCH   5  11
ATOM     11  N   UNL     1      10.288  13.957  19.084  0.00  0.00    +0.000 N 
BRANCH  11  13
ATOM     12  C   UNL     1      10.662  15.403  21.089  0.00  0.00    +0.000 C 
ATOM     13  C   UNL     1      11.284  14.521  20.013  0.00  0.00    +0.000 C 
ENDBRANCH  11  13
BRANCH  11  14
ATOM     14  C   UNL     1       9.676  14.902  18.134  0.00  0.00    +0.000 C 
ATOM     15  C   UNL     1      10.722  15.603  17.278  0.00  0.00    +0.000 C 
ENDBRANCH  11  14
ENDBRANCH   5  11
ENDBRANCH   1   8
BRANCH   2  16
ATOM     16  C   UNL     1       7.638   6.380  18.310  0.00  0.00    +0.000 C 
BRANCH  16  17
ATOM     17  O   UNL     1       7.784   5.511  17.182  0.00  0.00    +0.000 OA
BRANCH  17  18
ATOM     18  C   UNL     1       6.728   5.536  16.336  0.00  0.00    +0.000 C 
ATOM     19  O   UNL     1       6.820   5.865  15.152  0.00  0.00    +0.000 OA
BRANCH  18  20
ATOM     20  C   UNL     1       5.410   5.165  16.945  0.00  0.00    +0.000 A 
ATOM     21  C   UNL     1       4.537   6.221  17.174  0.00  0.00    +0.000 A 
ATOM     22  C   UNL     1       3.291   5.958  17.715  0.00  0.00    +0.000 A 
ATOM     23  C   UNL     1       2.917   4.641  17.959  0.00  0.00    +0.000 A 
ATOM     24  C   UNL     1       1.614   4.362  18.407  0.00  0.00    +0.000 A 
ATOM     25  C   UNL     1       1.192   3.048  18.556  0.00  0.00    +0.000 A 
ATOM     26  C   UNL     1       2.091   2.017  18.308  0.00  0.00    +0.000 A 
ATOM     27  C   UNL     1       3.407   2.304  17.913  0.00  0.00    +0.000 A 
ATOM     28  C   UNL     1       3.851   3.610  17.700  0.00  0.00    +0.000 A 
ATOM     29  N   UNL     1       5.100   3.869  17.225  0.00  0.00    +0.000 NA
ENDBRANCH  18  20
ENDBRANCH  17  18
ENDBRANCH  16  17
ENDBRANCH   2  16
TORSDOF 8
ENDMDL
MODEL 8
REMARK VINA RESULT:      -7.4      5.442      7.711
REMARK  Name = 
REMARK  10 active torsions:
REMARK  status: ('A' for Active; 'I' for Inactive)
REMARK    1  A    between atoms: C_1  and  C_2
REMARK    2  A    between atoms: C_2  and  N_3
REMARK    3  A    between atoms: N_3  and  C_4
REMARK    4  A    between atoms: N_3  and  C_6
REMARK    5  A    between atoms: C_4  and  C_5
REMARK    6  A    between atoms: C_9  and  N_10
REMARK    7  A    between atoms: C_11  and  C_13
REMARK    8  A    between atoms: C_13  and  O_14
REMARK    9  A    between atoms: O_14  and  C_15
REMARK   10  A    between atoms: C_15  and  C_17
REMARK                            x       y       z     vdW  Elec       q    Type
REMARK                         _______ _______ _______ _____ _____    ______ ____
ROOT
ATOM      1  N   UNL     1       9.284   9.417  19.157  0.00  0.00    +0.000 N 
ATOM      2  C   UNL     1       8.346   8.738  18.388  0.00  0.00    +0.000 C 
ATOM      3  O   UNL     1       7.594   9.247  17.558  0.00  0.00    +0.000 OA
ATOM      4  H   UNL     1       9.852   8.847  19.782  0.00  0.00    +0.000 HD
ENDROOT
BRANCH   1   8
ATOM      5  C   UNL     1      10.011  13.667  19.022  0.00  0.00    +0.000 A 
ATOM      6  C   UNL     1       9.605  13.016  20.197  0.00  0.00    +0.000 A 
ATOM      7  C   UNL     1       9.354  11.630  20.264  0.00  0.00    +0.000 A 
ATOM      8  C   UNL     1       9.540  10.811  19.157  0.00  0.00    +0.000 A 
ATOM      9  C   UNL     1      10.010  11.414  17.991  0.00  0.00    +0.000 A 
ATOM     10  C   UNL     1      10.235  12.806  17.930  0.00  0.00    +0.000 A 
BRANCH   5  11
ATOM     11  N   UNL     1      10.163  15.048  18.954  0.00  0.00    +0.000 N 
BRANCH  11  13
ATOM     12  C   UNL     1      11.419  16.975  17.973  0.00  0.00    +0.000 C 
ATOM     13  C   UNL     1      11.483  15.680  18.775  0.00  0.00    +0.000 C 
ENDBRANCH  11  13
BRANCH  11  14
ATOM     14  C   UNL     1       9.008  15.961  19.015  0.00  0.00    +0.000 C 
ATOM     15  C   UNL     1       7.961  15.624  17.962  0.00  0.00    +0.000 C 
ENDBRANCH  11  14
ENDBRANCH   5  11
ENDBRANCH   1   8
BRANCH   2  16
ATOM     16  C   UNL     1       8.333   7.206  18.581  0.00  0.00    +0.000 C 
BRANCH  16  17
ATOM     17  O   UNL     1       7.163   6.481  18.187  0.00  0.00    +0.000 OA
BRANCH  17  18
ATOM     18  C   UNL     1       6.687   5.653  19.147  0.00  0.00    +0.000 C 
ATOM     19  O   UNL     1       7.362   5.273  20.105  0.00  0.00    +0.000 OA
BRANCH  18  20
ATOM     20  C   UNL     1       5.275   5.192  18.951  0.00  0.00    +0.000 A 
ATOM     21  C   UNL     1       4.489   5.996  18.136  0.00  0.00    +0.000 A 
ATOM     22  C   UNL     1       3.178   5.626  17.888  0.00  0.00    +0.000 A 
ATOM     23  C   UNL     1       2.697   4.430  18.409  0.00  0.00    +0.000 A 
ATOM     24  C   UNL     1       1.402   3.999  18.071  0.00  0.00    +0.000 A 
ATOM     25  C   UNL     1       0.944   2.759  18.498  0.00  0.00    +0.000 A 
ATOM     26  C   UNL     1       1.763   1.978  19.305  0.00  0.00    +0.000 A 
ATOM     27  C   UNL     1       3.034   2.438  19.682  0.00  0.00    +0.000 A 
ATOM     28  C   UNL     1       3.550   3.654  19.229  0.00  0.00    +0.000 A 
ATOM     29  N   UNL     1       4.820   4.044  19.525  0.00  0.00    +0.000 NA
ENDBRANCH  18  20
ENDBRANCH  17  18
ENDBRANCH  16  17
ENDBRANCH   2  16
TORSDOF 8
ENDMDL
MODEL 9
REMARK VINA RESULT:      -7.3      1.395      2.254
REMARK  Name = 
REMARK  10 active torsions:
REMARK  status: ('A' for Active; 'I' for Inactive)
REMARK    1  A    between atoms: C_1  and  C_2
REMARK    2  A    between atoms: C_2  and  N_3
REMARK    3  A    between atoms: N_3  and  C_4
REMARK    4  A    between atoms: N_3  and  C_6
REMARK    5  A    between atoms: C_4  and  C_5
REMARK    6  A    between atoms: C_9  and  N_10
REMARK    7  A    between atoms: C_11  and  C_13
REMARK    8  A    between atoms: C_13  and  O_14
REMARK    9  A    between atoms: O_14  and  C_15
REMARK   10  A    between atoms: C_15  and  C_17
REMARK                            x       y       z     vdW  Elec       q    Type
REMARK                         _______ _______ _______ _____ _____    ______ ____
ROOT
ATOM      1  N   UNL     1       2.345   5.642  20.897  0.00  0.00    +0.000 N 
ATOM      2  C   UNL     1       1.622   4.458  20.807  0.00  0.00    +0.000 C 
ATOM      3  O   UNL     1       0.496   4.339  20.327  0.00  0.00    +0.000 OA
ATOM      4  H   UNL     1       3.280   5.571  21.298  0.00  0.00    +0.000 HD
ENDROOT
BRANCH   1   8
ATOM      5  C   UNL     1       1.049   9.513  19.501  0.00  0.00    +0.000 A 
ATOM      6  C   UNL     1       0.776   9.058  20.800  0.00  0.00    +0.000 A 
ATOM      7  C   UNL     1       1.182   7.795  21.276  0.00  0.00    +0.000 A 
ATOM      8  C   UNL     1       1.927   6.932  20.482  0.00  0.00    +0.000 A 
ATOM      9  C   UNL     1       2.275   7.380  19.208  0.00  0.00    +0.000 A 
ATOM     10  C   UNL     1       1.843   8.637  18.735  0.00  0.00    +0.000 A 
BRANCH   5  11
ATOM     11  N   UNL     1       0.558  10.723  19.021  0.00  0.00    +0.000 N 
BRANCH  11  13
ATOM     12  C   UNL     1      -1.203  12.105  17.907  0.00  0.00    +0.000 C 
ATOM     13  C   UNL     1      -0.887  10.982  18.887  0.00  0.00    +0.000 C 
ENDBRANCH  11  13
BRANCH  11  14
ATOM     14  C   UNL     1       1.454  11.836  18.658  0.00  0.00    +0.000 C 
ATOM     15  C   UNL     1       1.785  12.713  19.858  0.00  0.00    +0.000 C 
ENDBRANCH  11  14
ENDBRANCH   5  11
ENDBRANCH   1   8
BRANCH   2  16
ATOM     16  C   UNL     1       2.368   3.202  21.307  0.00  0.00    +0.000 C 
BRANCH  16  17
ATOM     17  O   UNL     1       3.578   2.821  20.644  0.00  0.00    +0.000 OA
BRANCH  17  18
ATOM     18  C   UNL     1       3.425   2.602  19.316  0.00  0.00    +0.000 C 
ATOM     19  O   UNL     1       2.624   1.786  18.856  0.00  0.00    +0.000 OA
BRANCH  18  20
ATOM     20  C   UNL     1       4.328   3.400  18.427  0.00  0.00    +0.000 A 
ATOM     21  C   UNL     1       5.190   4.274  19.076  0.00  0.00    +0.000 A 
ATOM     22  C   UNL     1       6.072   5.032  18.326  0.00  0.00    +0.000 A 
ATOM     23  C   UNL     1       6.119   4.858  16.947  0.00  0.00    +0.000 A 
ATOM     24  C   UNL     1       7.086   5.547  16.195  0.00  0.00    +0.000 A 
ATOM     25  C   UNL     1       7.215   5.305  14.833  0.00  0.00    +0.000 A 
ATOM     26  C   UNL     1       6.340   4.416  14.219  0.00  0.00    +0.000 A 
ATOM     27  C   UNL     1       5.343   3.772  14.967  0.00  0.00    +0.000 A 
ATOM     28  C   UNL     1       5.217   3.948  16.346  0.00  0.00    +0.000 A 
ATOM     29  N   UNL     1       4.307   3.244  17.074  0.00  0.00    +0.000 NA
ENDBRANCH  18  20
ENDBRANCH  17  18
ENDBRANCH  16  17
ENDBRANCH   2  16
TORSDOF 8
ENDMDL
