MODEL 1
REMARK VINA RESULT:      -8.4      0.000      0.000
REMARK  Name = 
REMARK  6 active torsions:
REMARK  status: ('A' for Active; 'I' for Inactive)
REMARK    1  A    between atoms: C_2  and  C_3
REMARK    2  A    between atoms: C_3  and  C_4
REMARK    3  A    between atoms: C_4  and  C_5
REMARK    4  A    between atoms: N_11  and  C_12
REMARK    5  A    between atoms: C_16  and  C_17
REMARK    6  A    between atoms: C_26  and  N_27
REMARK                            x       y       z     vdW  Elec       q    Type
REMARK                         _______ _______ _______ _____ _____    ______ ____
ROOT
ATOM      1  C   UNL     1       0.133  10.691  18.169  0.00  0.00    +0.000 A 
ATOM      2  C   UNL     1      -1.152  10.244  17.849  0.00  0.00    +0.000 A 
ATOM      3  C   UNL     1      -2.248  10.931  18.350  0.00  0.00    +0.000 A 
ATOM      4  N   UNL     1      -3.571  10.744  18.091  0.00  0.00    +0.000 NA
ATOM      5  C   UNL     1      -4.200  11.739  18.676  0.00  0.00    +0.000 A 
ATOM      6  N   UNL     1      -3.328  12.451  19.467  0.00  0.00    +0.000 N 
ATOM      7  C   UNL     1      -2.049  11.997  19.214  0.00  0.00    +0.000 A 
ATOM      8  C   UNL     1      -0.773  12.424  19.621  0.00  0.00    +0.000 A 
ATOM      9  C   UNL     1       0.357  11.769  19.071  0.00  0.00    +0.000 A 
ATOM     10  H   UNL     1      -3.563  13.243  20.050  0.00  0.00    +0.000 HD
ENDROOT
BRANCH   5  11
ATOM     11  C   UNL     1      -5.646  12.069  18.390  0.00  0.00    +0.000 C 
ATOM     12  C   UNL     1      -6.579  10.874  18.172  0.00  0.00    +0.000 C 
ATOM     13  C   UNL     1      -6.901  10.096  19.451  0.00  0.00    +0.000 C 
ATOM     14  C   UNL     1      -7.355  10.999  20.594  0.00  0.00    +0.000 C 
ATOM     15  C   UNL     1      -6.420  12.181  20.815  0.00  0.00    +0.000 C 
ATOM     16  C   UNL     1      -6.198  12.963  19.518  0.00  0.00    +0.000 C 
ENDBRANCH   5  11
BRANCH   9  17
ATOM     17  N   UNL     1       1.679  12.206  19.313  0.00  0.00    +0.000 N 
ATOM     18  C   UNL     1       2.051  12.867  20.571  0.00  0.00    +0.000 C 
ATOM     19  C   UNL     1       2.338  14.310  20.184  0.00  0.00    +0.000 C 
ATOM     20  C   UNL     1       2.959  14.179  18.806  0.00  0.00    +0.000 C 
ATOM     21  C   UNL     1       2.247  12.980  18.182  0.00  0.00    +0.000 C 
ENDBRANCH   9  17
BRANCH   1  24
ATOM     22  O   UNL     1       2.932   8.516  17.638  0.00  0.00    +0.000 OA
ATOM     23  C   UNL     1       1.931   8.965  18.197  0.00  0.00    +0.000 C 
ATOM     24  N   UNL     1       1.229  10.000  17.617  0.00  0.00    +0.000 N 
ATOM     25  H   UNL     1       1.356  10.089  16.615  0.00  0.00    +0.000 HD
BRANCH  23  26
ATOM     26  C   UNL     1       1.341   8.328  19.451  0.00  0.00    +0.000 C 
BRANCH  26  27
ATOM     27  C   UNL     1       2.240   7.245  20.050  0.00  0.00    +0.000 C 
BRANCH  27  28
ATOM     28  C   UNL     1       1.916   5.818  19.647  0.00  0.00    +0.000 A 
ATOM     29  C   UNL     1       2.100   5.311  18.352  0.00  0.00    +0.000 A 
ATOM     30  C   UNL     1       1.731   4.000  18.037  0.00  0.00    +0.000 A 
ATOM     31  C   UNL     1       1.184   3.172  19.012  0.00  0.00    +0.000 A 
ATOM     32  C   UNL     1       1.025   3.647  20.310  0.00  0.00    +0.000 A 
ATOM     33  C   UNL     1       1.391   4.957  20.626  0.00  0.00    +0.000 A 
ENDBRANCH  27  28
ENDBRANCH  26  27
ENDBRANCH  23  26
ENDBRANCH   1  24
TORSDOF 6
ENDMDL
MODEL 2
REMARK VINA RESULT:      -8.3      2.127      7.889
REMARK  Name = 
REMARK  6 active torsions:
REMARK  status: ('A' for Active; 'I' for Inactive)
REMARK    1  A    between atoms: C_2  and  C_3
REMARK    2  A    between atoms: C_3  and  C_4
REMARK    3  A    between atoms: C_4  and  C_5
REMARK    4  A    between atoms: N_11  and  C_12
REMARK    5  A    between atoms: C_16  and  C_17
REMARK    6  A    between atoms: C_26  and  N_27
REMARK                            x       y       z     vdW  Elec       q    Type
REMARK                         _______ _______ _______ _____ _____    ______ ____
ROOT
ATOM      1  C   UNL     1       0.177  10.307  18.729  0.00  0.00    +0.000 A 
ATOM      2  C   UNL     1       0.991   9.345  18.124  0.00  0.00    +0.000 A 
ATOM      3  C   UNL     1       1.613   8.395  18.919  0.00  0.00    +0.000 A 
ATOM      4  N   UNL     1       2.356   7.315  18.547  0.00  0.00    +0.000 NA
ATOM      5  C   UNL     1       2.588   6.637  19.650  0.00  0.00    +0.000 A 
ATOM      6  N   UNL     1       2.177   7.359  20.746  0.00  0.00    +0.000 N 
ATOM      7  C   UNL     1       1.476   8.461  20.298  0.00  0.00    +0.000 A 
ATOM      8  C   UNL     1       0.730   9.462  20.945  0.00  0.00    +0.000 A 
ATOM      9  C   UNL     1       0.042  10.405  20.143  0.00  0.00    +0.000 A 
ATOM     10  H   UNL     1       2.271   7.080  21.713  0.00  0.00    +0.000 HD
ENDROOT
BRANCH   5  11
ATOM     11  C   UNL     1       3.125   5.225  19.639  0.00  0.00    +0.000 C 
ATOM     12  C   UNL     1       2.499   4.259  20.650  0.00  0.00    +0.000 C 
ATOM     13  C   UNL     1       1.073   3.829  20.297  0.00  0.00    +0.000 C 
ATOM     14  C   UNL     1       0.939   3.345  18.856  0.00  0.00    +0.000 C 
ATOM     15  C   UNL     1       1.554   4.313  17.852  0.00  0.00    +0.000 C 
ATOM     16  C   UNL     1       3.003   4.644  18.216  0.00  0.00    +0.000 C 
ENDBRANCH   5  11
BRANCH   9  17
ATOM     17  N   UNL     1      -0.837  11.367  20.689  0.00  0.00    +0.000 N 
ATOM     18  C   UNL     1      -0.570  12.807  20.567  0.00  0.00    +0.000 C 
ATOM     19  C   UNL     1      -0.235  13.262  21.980  0.00  0.00    +0.000 C 
ATOM     20  C   UNL     1      -1.136  12.399  22.842  0.00  0.00    +0.000 C 
ATOM     21  C   UNL     1      -1.219  11.071  22.092  0.00  0.00    +0.000 C 
ENDBRANCH   9  17
BRANCH   1  24
ATOM     22  O   UNL     1      -2.152  11.987  16.583  0.00  0.00    +0.000 OA
ATOM     23  C   UNL     1      -1.746  11.138  17.378  0.00  0.00    +0.000 C 
ATOM     24  N   UNL     1      -0.473  11.239  17.896  0.00  0.00    +0.000 N 
ATOM     25  H   UNL     1      -0.083  12.175  17.883  0.00  0.00    +0.000 HD
BRANCH  23  26
ATOM     26  C   UNL     1      -2.648  10.039  17.929  0.00  0.00    +0.000 C 
BRANCH  26  27
ATOM     27  C   UNL     1      -4.113  10.208  17.524  0.00  0.00    +0.000 C 
BRANCH  27  28
ATOM     28  C   UNL     1      -4.976  11.007  18.485  0.00  0.00    +0.000 A 
ATOM     29  C   UNL     1      -4.492  12.053  19.284  0.00  0.00    +0.000 A 
ATOM     30  C   UNL     1      -5.332  12.713  20.186  0.00  0.00    +0.000 A 
ATOM     31  C   UNL     1      -6.670  12.347  20.294  0.00  0.00    +0.000 A 
ATOM     32  C   UNL     1      -7.176  11.333  19.486  0.00  0.00    +0.000 A 
ATOM     33  C   UNL     1      -6.337  10.672  18.585  0.00  0.00    +0.000 A 
ENDBRANCH  27  28
ENDBRANCH  26  27
ENDBRANCH  23  26
ENDBRANCH   1  24
TORSDOF 6
ENDMDL
MODEL 3
REMARK VINA RESULT:      -8.2      2.643      7.256
REMARK  Name = 
REMARK  6 active torsions:
REMARK  status: ('A' for Active; 'I' for Inactive)
REMARK    1  A    between atoms: C_2  and  C_3
REMARK    2  A    between atoms: C_3  and  C_4
REMARK    3  A    between atoms: C_4  and  C_5
REMARK    4  A    between atoms: N_11  and  C_12
REMARK    5  A    between atoms: C_16  and  C_17
REMARK    6  A    between atoms: C_26  and  N_27
REMARK                            x       y       z     vdW  Elec       q    Type
REMARK                         _______ _______ _______ _____ _____    ______ ____
ROOT
ATOM      1  C   UNL     1       0.482  10.803  21.242  0.00  0.00    +0.000 A 
ATOM      2  C   UNL     1       0.480   9.452  21.595  0.00  0.00    +0.000 A 
ATOM      3  C   UNL     1       1.114   8.539  20.767  0.00  0.00    +0.000 A 
ATOM      4  N   UNL     1       1.327   7.207  20.958  0.00  0.00    +0.000 NA
ATOM      5  C   UNL     1       2.105   6.819  19.972  0.00  0.00    +0.000 A 
ATOM      6  N   UNL     1       2.237   7.827  19.046  0.00  0.00    +0.000 N 
ATOM      7  C   UNL     1       1.672   8.971  19.573  0.00  0.00    +0.000 A 
ATOM      8  C   UNL     1       1.622  10.310  19.147  0.00  0.00    +0.000 A 
ATOM      9  C   UNL     1       1.029  11.264  20.011  0.00  0.00    +0.000 A 
ATOM     10  H   UNL     1       2.754   7.777  18.179  0.00  0.00    +0.000 HD
ENDROOT
BRANCH   5  11
ATOM     11  C   UNL     1       2.814   5.485  19.972  0.00  0.00    +0.000 C 
ATOM     12  C   UNL     1       2.155   4.372  20.794  0.00  0.00    +0.000 C 
ATOM     13  C   UNL     1       0.878   3.810  20.166  0.00  0.00    +0.000 C 
ATOM     14  C   UNL     1       1.056   3.434  18.697  0.00  0.00    +0.000 C 
ATOM     15  C   UNL     1       1.702   4.546  17.881  0.00  0.00    +0.000 C 
ATOM     16  C   UNL     1       3.013   5.013  18.518  0.00  0.00    +0.000 C 
ENDBRANCH   5  11
BRANCH   9  17
ATOM     17  N   UNL     1       1.046  12.650  19.736  0.00  0.00    +0.000 N 
ATOM     18  C   UNL     1       0.884  13.164  18.370  0.00  0.00    +0.000 C 
ATOM     19  C   UNL     1       2.246  13.735  18.004  0.00  0.00    +0.000 C 
ATOM     20  C   UNL     1       2.746  14.301  19.319  0.00  0.00    +0.000 C 
ATOM     21  C   UNL     1       2.185  13.352  20.377  0.00  0.00    +0.000 C 
ENDBRANCH   9  17
BRANCH   1  24
ATOM     22  O   UNL     1      -1.794  13.088  22.809  0.00  0.00    +0.000 OA
ATOM     23  C   UNL     1      -1.416  12.219  22.022  0.00  0.00    +0.000 C 
ATOM     24  N   UNL     1      -0.137  11.717  22.119  0.00  0.00    +0.000 N 
ATOM     25  H   UNL     1       0.291  11.818  23.032  0.00  0.00    +0.000 HD
BRANCH  23  26
ATOM     26  C   UNL     1      -2.357  11.564  21.016  0.00  0.00    +0.000 C 
BRANCH  26  27
ATOM     27  C   UNL     1      -2.536  12.389  19.741  0.00  0.00    +0.000 C 
BRANCH  27  28
ATOM     28  C   UNL     1      -2.796  11.598  18.472  0.00  0.00    +0.000 A 
ATOM     29  C   UNL     1      -3.935  11.760  17.669  0.00  0.00    +0.000 A 
ATOM     30  C   UNL     1      -4.136  10.960  16.540  0.00  0.00    +0.000 A 
ATOM     31  C   UNL     1      -3.198   9.994  16.190  0.00  0.00    +0.000 A 
ATOM     32  C   UNL     1      -2.046   9.840  16.956  0.00  0.00    +0.000 A 
ATOM     33  C   UNL     1      -1.845  10.638  18.084  0.00  0.00    +0.000 A 
ENDBRANCH  27  28
ENDBRANCH  26  27
ENDBRANCH  23  26
ENDBRANCH   1  24
TORSDOF 6
ENDMDL
MODEL 4
REMARK VINA RESULT:      -8.1      3.005      5.579
REMARK  Name = 
REMARK  6 active torsions:
REMARK  status: ('A' for Active; 'I' for Inactive)
REMARK    1  A    between atoms: C_2  and  C_3
REMARK    2  A    between atoms: C_3  and  C_4
REMARK    3  A    between atoms: C_4  and  C_5
REMARK    4  A    between atoms: N_11  and  C_12
REMARK    5  A    between atoms: C_16  and  C_17
REMARK    6  A    between atoms: C_26  and  N_27
REMARK                            x       y       z     vdW  Elec       q    Type
REMARK                         _______ _______ _______ _____ _____    ______ ____
ROOT
ATOM      1  C   UNL     1       2.443   6.916  19.905  0.00  0.00    +0.000 A 
ATOM      2  C   UNL     1       1.549   7.832  20.464  0.00  0.00    +0.000 A 
ATOM      3  C   UNL     1       1.122   8.908  19.700  0.00  0.00    +0.000 A 
ATOM      4  N   UNL     1       0.188   9.854  19.995  0.00  0.00    +0.000 NA
ATOM      5  C   UNL     1       0.027  10.559  18.896  0.00  0.00    +0.000 A 
ATOM      6  N   UNL     1       0.977  10.210  17.965  0.00  0.00    +0.000 N 
ATOM      7  C   UNL     1       1.646   9.095  18.430  0.00  0.00    +0.000 A 
ATOM      8  C   UNL     1       2.608   8.239  17.866  0.00  0.00    +0.000 A 
ATOM      9  C   UNL     1       3.010   7.103  18.611  0.00  0.00    +0.000 A 
ATOM     10  H   UNL     1       1.095  10.623  17.051  0.00  0.00    +0.000 HD
ENDROOT
BRANCH   5  11
ATOM     11  C   UNL     1      -1.126  11.516  18.705  0.00  0.00    +0.000 C 
ATOM     12  C   UNL     1      -1.859  11.950  19.979  0.00  0.00    +0.000 C 
ATOM     13  C   UNL     1      -1.062  12.921  20.854  0.00  0.00    +0.000 C 
ATOM     14  C   UNL     1      -0.497  14.100  20.067  0.00  0.00    +0.000 C 
ATOM     15  C   UNL     1       0.240  13.665  18.806  0.00  0.00    +0.000 C 
ATOM     16  C   UNL     1      -0.635  12.759  17.937  0.00  0.00    +0.000 C 
ENDBRANCH   5  11
BRANCH   9  17
ATOM     17  N   UNL     1       3.869   6.114  18.083  0.00  0.00    +0.000 N 
ATOM     18  C   UNL     1       4.920   5.493  18.900  0.00  0.00    +0.000 C 
ATOM     19  C   UNL     1       6.226   6.014  18.318  0.00  0.00    +0.000 C 
ATOM     20  C   UNL     1       5.927   6.111  16.835  0.00  0.00    +0.000 C 
ATOM     21  C   UNL     1       4.449   6.494  16.771  0.00  0.00    +0.000 C 
ENDBRANCH   9  17
BRANCH   1  24
ATOM     22  O   UNL     1       2.493   3.892  21.829  0.00  0.00    +0.000 OA
ATOM     23  C   UNL     1       2.045   4.743  21.061  0.00  0.00    +0.000 C 
ATOM     24  N   UNL     1       2.833   5.811  20.687  0.00  0.00    +0.000 N 
ATOM     25  H   UNL     1       3.831   5.651  20.768  0.00  0.00    +0.000 HD
BRANCH  23  26
ATOM     26  C   UNL     1       0.686   4.598  20.384  0.00  0.00    +0.000 C 
BRANCH  26  27
ATOM     27  C   UNL     1       0.515   3.256  19.671  0.00  0.00    +0.000 C 
BRANCH  27  28
ATOM     28  C   UNL     1       1.684   2.810  18.811  0.00  0.00    +0.000 A 
ATOM     29  C   UNL     1       2.558   1.770  19.160  0.00  0.00    +0.000 A 
ATOM     30  C   UNL     1       3.646   1.445  18.344  0.00  0.00    +0.000 A 
ATOM     31  C   UNL     1       3.872   2.146  17.164  0.00  0.00    +0.000 A 
ATOM     32  C   UNL     1       2.996   3.159  16.785  0.00  0.00    +0.000 A 
ATOM     33  C   UNL     1       1.909   3.486  17.599  0.00  0.00    +0.000 A 
ENDBRANCH  27  28
ENDBRANCH  26  27
ENDBRANCH  23  26
ENDBRANCH   1  24
TORSDOF 6
ENDMDL
MODEL 5
REMARK VINA RESULT:      -7.9      2.912      8.883
REMARK  Name = 
REMARK  6 active torsions:
REMARK  status: ('A' for Active; 'I' for Inactive)
REMARK    1  A    between atoms: C_2  and  C_3
REMARK    2  A    between atoms: C_3  and  C_4
REMARK    3  A    between atoms: C_4  and  C_5
REMARK    4  A    between atoms: N_11  and  C_12
REMARK    5  A    between atoms: C_16  and  C_17
REMARK    6  A    between atoms: C_26  and  N_27
REMARK                            x       y       z     vdW  Elec       q    Type
REMARK                         _______ _______ _______ _____ _____    ______ ____
ROOT
ATOM      1  C   UNL     1       1.165   9.779  18.755  0.00  0.00    +0.000 A 
ATOM      2  C   UNL     1       2.028   9.307  17.763  0.00  0.00    +0.000 A 
ATOM      3  C   UNL     1       2.675   8.095  17.954  0.00  0.00    +0.000 A 
ATOM      4  N   UNL     1       3.467   7.399  17.093  0.00  0.00    +0.000 NA
ATOM      5  C   UNL     1       3.709   6.244  17.675  0.00  0.00    +0.000 A 
ATOM      6  N   UNL     1       3.250   6.263  18.972  0.00  0.00    +0.000 N 
ATOM      7  C   UNL     1       2.512   7.415  19.151  0.00  0.00    +0.000 A 
ATOM      8  C   UNL     1       1.715   7.899  20.203  0.00  0.00    +0.000 A 
ATOM      9  C   UNL     1       1.002   9.106  20.000  0.00  0.00    +0.000 A 
ATOM     10  H   UNL     1       3.339   5.515  19.646  0.00  0.00    +0.000 HD
ENDROOT
BRANCH   5  11
ATOM     11  C   UNL     1       4.303   5.069  16.936  0.00  0.00    +0.000 C 
ATOM     12  C   UNL     1       5.346   5.405  15.865  0.00  0.00    +0.000 C 
ATOM     13  C   UNL     1       6.692   5.863  16.430  0.00  0.00    +0.000 C 
ATOM     14  C   UNL     1       7.232   4.926  17.507  0.00  0.00    +0.000 C 
ATOM     15  C   UNL     1       6.196   4.602  18.576  0.00  0.00    +0.000 C 
ATOM     16  C   UNL     1       4.901   4.076  17.953  0.00  0.00    +0.000 C 
ENDBRANCH   5  11
BRANCH   9  17
ATOM     17  N   UNL     1       0.075   9.608  20.941  0.00  0.00    +0.000 N 
ATOM     18  C   UNL     1       0.480  10.561  21.983  0.00  0.00    +0.000 C 
ATOM     19  C   UNL     1       0.389   9.777  23.285  0.00  0.00    +0.000 C 
ATOM     20  C   UNL     1      -0.802   8.867  23.056  0.00  0.00    +0.000 C 
ATOM     21  C   UNL     1      -0.749   8.543  21.564  0.00  0.00    +0.000 C 
ENDBRANCH   9  17
BRANCH   1  24
ATOM     22  O   UNL     1      -1.219  12.276  17.791  0.00  0.00    +0.000 OA
ATOM     23  C   UNL     1      -0.791  11.149  18.038  0.00  0.00    +0.000 C 
ATOM     24  N   UNL     1       0.490  10.993  18.521  0.00  0.00    +0.000 N 
ATOM     25  H   UNL     1       0.872  11.812  18.982  0.00  0.00    +0.000 HD
BRANCH  23  26
ATOM     26  C   UNL     1      -1.672   9.906  17.962  0.00  0.00    +0.000 C 
BRANCH  26  27
ATOM     27  C   UNL     1      -2.758  10.008  16.890  0.00  0.00    +0.000 C 
BRANCH  27  28
ATOM     28  C   UNL     1      -4.087  10.580  17.349  0.00  0.00    +0.000 A 
ATOM     29  C   UNL     1      -4.879  10.007  18.355  0.00  0.00    +0.000 A 
ATOM     30  C   UNL     1      -6.119  10.558  18.692  0.00  0.00    +0.000 A 
ATOM     31  C   UNL     1      -6.581  11.696  18.038  0.00  0.00    +0.000 A 
ATOM     32  C   UNL     1      -5.795  12.298  17.060  0.00  0.00    +0.000 A 
ATOM     33  C   UNL     1      -4.557  11.747  16.722  0.00  0.00    +0.000 A 
ENDBRANCH  27  28
ENDBRANCH  26  27
ENDBRANCH  23  26
ENDBRANCH   1  24
TORSDOF 6
ENDMDL
MODEL 6
REMARK VINA RESULT:      -7.9      2.535      6.104
REMARK  Name = 
REMARK  6 active torsions:
REMARK  status: ('A' for Active; 'I' for Inactive)
REMARK    1  A    between atoms: C_2  and  C_3
REMARK    2  A    between atoms: C_3  and  C_4
REMARK    3  A    between atoms: C_4  and  C_5
REMARK    4  A    between atoms: N_11  and  C_12
REMARK    5  A    between atoms: C_16  and  C_17
REMARK    6  A    between atoms: C_26  and  N_27
REMARK                            x       y       z     vdW  Elec       q    Type
REMARK                         _______ _______ _______ _____ _____    ______ ____
ROOT
ATOM      1  C   UNL     1      -0.677  12.060  19.573  0.00  0.00    +0.000 A 
ATOM      2  C   UNL     1      -1.964  12.596  19.487  0.00  0.00    +0.000 A 
ATOM      3  C   UNL     1      -2.951  11.876  18.831  0.00  0.00    +0.000 A 
ATOM      4  N   UNL     1      -4.280  12.148  18.715  0.00  0.00    +0.000 NA
ATOM      5  C   UNL     1      -4.818  11.093  18.142  0.00  0.00    +0.000 A 
ATOM      6  N   UNL     1      -3.833  10.234  17.711  0.00  0.00    +0.000 N 
ATOM      7  C   UNL     1      -2.625  10.679  18.212  0.00  0.00    +0.000 A 
ATOM      8  C   UNL     1      -1.324  10.148  18.209  0.00  0.00    +0.000 A 
ATOM      9  C   UNL     1      -0.318  10.844  18.925  0.00  0.00    +0.000 A 
ATOM     10  H   UNL     1      -3.975   9.367  17.212  0.00  0.00    +0.000 HD
ENDROOT
BRANCH   5  11
ATOM     11  C   UNL     1      -6.309  10.863  18.097  0.00  0.00    +0.000 C 
ATOM     12  C   UNL     1      -6.931  10.227  19.344  0.00  0.00    +0.000 C 
ATOM     13  C   UNL     1      -7.008  11.167  20.549  0.00  0.00    +0.000 C 
ATOM     14  C   UNL     1      -7.627  12.520  20.206  0.00  0.00    +0.000 C 
ATOM     15  C   UNL     1      -7.000  13.155  18.971  0.00  0.00    +0.000 C 
ATOM     16  C   UNL     1      -7.022  12.194  17.780  0.00  0.00    +0.000 C 
ENDBRANCH   5  11
BRANCH   9  17
ATOM     17  N   UNL     1       0.987  10.329  19.093  0.00  0.00    +0.000 N 
ATOM     18  C   UNL     1       1.864  10.069  17.944  0.00  0.00    +0.000 C 
ATOM     19  C   UNL     1       1.976   8.553  17.873  0.00  0.00    +0.000 C 
ATOM     20  C   UNL     1       1.956   8.139  19.332  0.00  0.00    +0.000 C 
ATOM     21  C   UNL     1       1.033   9.156  20.001  0.00  0.00    +0.000 C 
ENDBRANCH   9  17
BRANCH   1  24
ATOM     22  O   UNL     1       1.157  13.855  22.076  0.00  0.00    +0.000 OA
ATOM     23  C   UNL     1       0.280  13.125  21.614  0.00  0.00    +0.000 C 
ATOM     24  N   UNL     1       0.299  12.793  20.277  0.00  0.00    +0.000 N 
ATOM     25  H   UNL     1       1.209  12.864  19.835  0.00  0.00    +0.000 HD
BRANCH  23  26
ATOM     26  C   UNL     1      -0.766  12.448  22.494  0.00  0.00    +0.000 C 
BRANCH  26  27
ATOM     27  C   UNL     1      -1.505  13.429  23.405  0.00  0.00    +0.000 C 
BRANCH  27  28
ATOM     28  C   UNL     1      -3.021  13.372  23.346  0.00  0.00    +0.000 A 
ATOM     29  C   UNL     1      -3.793  14.078  22.412  0.00  0.00    +0.000 A 
ATOM     30  C   UNL     1      -5.190  14.021  22.447  0.00  0.00    +0.000 A 
ATOM     31  C   UNL     1      -5.836  13.249  23.408  0.00  0.00    +0.000 A 
ATOM     32  C   UNL     1      -5.085  12.515  24.322  0.00  0.00    +0.000 A 
ATOM     33  C   UNL     1      -3.690  12.573  24.289  0.00  0.00    +0.000 A 
ENDBRANCH  27  28
ENDBRANCH  26  27
ENDBRANCH  23  26
ENDBRANCH   1  24
TORSDOF 6
ENDMDL
MODEL 7
REMARK VINA RESULT:      -7.8      4.520      7.991
REMARK  Name = 
REMARK  6 active torsions:
REMARK  status: ('A' for Active; 'I' for Inactive)
REMARK    1  A    between atoms: C_2  and  C_3
REMARK    2  A    between atoms: C_3  and  C_4
REMARK    3  A    between atoms: C_4  and  C_5
REMARK    4  A    between atoms: N_11  and  C_12
REMARK    5  A    between atoms: C_16  and  C_17
REMARK    6  A    between atoms: C_26  and  N_27
REMARK                            x       y       z     vdW  Elec       q    Type
REMARK                         _______ _______ _______ _____ _____    ______ ____
ROOT
ATOM      1  C   UNL     1       4.807   6.080  17.808  0.00  0.00    +0.000 A 
ATOM      2  C   UNL     1       4.582   7.414  17.461  0.00  0.00    +0.000 A 
ATOM      3  C   UNL     1       3.307   7.941  17.607  0.00  0.00    +0.000 A 
ATOM      4  N   UNL     1       2.882   9.223  17.433  0.00  0.00    +0.000 NA
ATOM      5  C   UNL     1       1.633   9.250  17.844  0.00  0.00    +0.000 A 
ATOM      6  N   UNL     1       1.189   7.972  18.093  0.00  0.00    +0.000 N 
ATOM      7  C   UNL     1       2.271   7.118  18.023  0.00  0.00    +0.000 A 
ATOM      8  C   UNL     1       2.445   5.752  18.304  0.00  0.00    +0.000 A 
ATOM      9  C   UNL     1       3.753   5.214  18.215  0.00  0.00    +0.000 A 
ATOM     10  H   UNL     1       0.257   7.712  18.388  0.00  0.00    +0.000 HD
ENDROOT
BRANCH   5  11
ATOM     11  C   UNL     1       0.886  10.538  18.094  0.00  0.00    +0.000 C 
ATOM     12  C   UNL     1      -0.635  10.419  18.232  0.00  0.00    +0.000 C 
ATOM     13  C   UNL     1      -1.092   9.779  19.545  0.00  0.00    +0.000 C 
ATOM     14  C   UNL     1      -0.435  10.409  20.770  0.00  0.00    +0.000 C 
ATOM     15  C   UNL     1       1.079  10.517  20.634  0.00  0.00    +0.000 C 
ATOM     16  C   UNL     1       1.470  11.233  19.340  0.00  0.00    +0.000 C 
ENDBRANCH   5  11
BRANCH   9  17
ATOM     17  N   UNL     1       4.056   3.889  18.602  0.00  0.00    +0.000 N 
ATOM     18  C   UNL     1       3.767   2.747  17.724  0.00  0.00    +0.000 C 
ATOM     19  C   UNL     1       2.636   2.000  18.415  0.00  0.00    +0.000 C 
ATOM     20  C   UNL     1       2.955   2.177  19.887  0.00  0.00    +0.000 C 
ATOM     21  C   UNL     1       3.586   3.566  19.972  0.00  0.00    +0.000 C 
ENDBRANCH   9  17
BRANCH   1  24
ATOM     22  O   UNL     1       7.783   4.428  16.683  0.00  0.00    +0.000 OA
ATOM     23  C   UNL     1       6.646   4.894  16.613  0.00  0.00    +0.000 C 
ATOM     24  N   UNL     1       6.118   5.578  17.687  0.00  0.00    +0.000 N 
ATOM     25  H   UNL     1       6.806   5.968  18.321  0.00  0.00    +0.000 HD
BRANCH  23  26
ATOM     26  C   UNL     1       5.831   4.869  15.323  0.00  0.00    +0.000 C 
BRANCH  26  27
ATOM     27  C   UNL     1       6.703   4.831  14.067  0.00  0.00    +0.000 C 
BRANCH  27  28
ATOM     28  C   UNL     1       6.239   3.891  12.969  0.00  0.00    +0.000 A 
ATOM     29  C   UNL     1       4.898   3.741  12.584  0.00  0.00    +0.000 A 
ATOM     30  C   UNL     1       4.535   2.818  11.598  0.00  0.00    +0.000 A 
ATOM     31  C   UNL     1       5.506   2.040  10.974  0.00  0.00    +0.000 A 
ATOM     32  C   UNL     1       6.844   2.199  11.319  0.00  0.00    +0.000 A 
ATOM     33  C   UNL     1       7.208   3.120  12.305  0.00  0.00    +0.000 A 
ENDBRANCH  27  28
ENDBRANCH  26  27
ENDBRANCH  23  26
ENDBRANCH   1  24
TORSDOF 6
ENDMDL
MODEL 8
REMARK VINA RESULT:      -7.7      4.304      7.884
REMARK  Name = 
REMARK  6 active torsions:
REMARK  status: ('A' for Active; 'I' for Inactive)
REMARK    1  A    between atoms: C_2  and  C_3
REMARK    2  A    between atoms: C_3  and  C_4
REMARK    3  A    between atoms: C_4  and  C_5
REMARK    4  A    between atoms: N_11  and  C_12
REMARK    5  A    between atoms: C_16  and  C_17
REMARK    6  A    between atoms: C_26  and  N_27
REMARK                            x       y       z     vdW  Elec       q    Type
REMARK                         _______ _______ _______ _____ _____    ______ ____
ROOT
ATOM      1  C   UNL     1       4.565   5.894  18.600  0.00  0.00    +0.000 A 
ATOM      2  C   UNL     1       4.490   7.244  18.250  0.00  0.00    +0.000 A 
ATOM      3  C   UNL     1       3.245   7.811  18.018  0.00  0.00    +0.000 A 
ATOM      4  N   UNL     1       2.925   9.111  17.771  0.00  0.00    +0.000 NA
ATOM      5  C   UNL     1       1.612   9.170  17.779  0.00  0.00    +0.000 A 
ATOM      6  N   UNL     1       1.081   7.901  17.831  0.00  0.00    +0.000 N 
ATOM      7  C   UNL     1       2.112   7.013  18.064  0.00  0.00    +0.000 A 
ATOM      8  C   UNL     1       2.158   5.634  18.334  0.00  0.00    +0.000 A 
ATOM      9  C   UNL     1       3.416   5.054  18.630  0.00  0.00    +0.000 A 
ATOM     10  H   UNL     1       0.099   7.665  17.815  0.00  0.00    +0.000 HD
ENDROOT
BRANCH   5  11
ATOM     11  C   UNL     1       0.855  10.475  17.836  0.00  0.00    +0.000 C 
ATOM     12  C   UNL     1      -0.668  10.367  17.966  0.00  0.00    +0.000 C 
ATOM     13  C   UNL     1      -1.142   9.912  19.348  0.00  0.00    +0.000 C 
ATOM     14  C   UNL     1      -0.509  10.710  20.484  0.00  0.00    +0.000 C 
ATOM     15  C   UNL     1       1.007  10.808  20.358  0.00  0.00    +0.000 C 
ATOM     16  C   UNL     1       1.416  11.340  18.983  0.00  0.00    +0.000 C 
ENDBRANCH   5  11
BRANCH   9  17
ATOM     17  N   UNL     1       3.553   3.709  19.041  0.00  0.00    +0.000 N 
ATOM     18  C   UNL     1       3.660   2.615  18.066  0.00  0.00    +0.000 C 
ATOM     19  C   UNL     1       2.355   1.843  18.201  0.00  0.00    +0.000 C 
ATOM     20  C   UNL     1       2.048   1.944  19.683  0.00  0.00    +0.000 C 
ATOM     21  C   UNL     1       2.572   3.321  20.085  0.00  0.00    +0.000 C 
ENDBRANCH   9  17
BRANCH   1  24
ATOM     22  O   UNL     1       7.821   4.420  18.318  0.00  0.00    +0.000 OA
ATOM     23  C   UNL     1       6.786   4.972  17.943  0.00  0.00    +0.000 C 
ATOM     24  N   UNL     1       5.837   5.351  18.867  0.00  0.00    +0.000 N 
ATOM     25  H   UNL     1       6.191   5.485  19.808  0.00  0.00    +0.000 HD
BRANCH  23  26
ATOM     26  C   UNL     1       6.563   5.386  16.492  0.00  0.00    +0.000 C 
BRANCH  26  27
ATOM     27  C   UNL     1       5.854   4.311  15.666  0.00  0.00    +0.000 C 
BRANCH  27  28
ATOM     28  C   UNL     1       6.244   4.238  14.201  0.00  0.00    +0.000 A 
ATOM     29  C   UNL     1       5.607   3.412  13.263  0.00  0.00    +0.000 A 
ATOM     30  C   UNL     1       6.052   3.356  11.939  0.00  0.00    +0.000 A 
ATOM     31  C   UNL     1       7.132   4.131  11.529  0.00  0.00    +0.000 A 
ATOM     32  C   UNL     1       7.756   4.981  12.438  0.00  0.00    +0.000 A 
ATOM     33  C   UNL     1       7.313   5.037  13.761  0.00  0.00    +0.000 A 
ENDBRANCH  27  28
ENDBRANCH  26  27
ENDBRANCH  23  26
ENDBRANCH   1  24
TORSDOF 6
ENDMDL
MODEL 9
REMARK VINA RESULT:      -7.7      2.685      7.335
REMARK  Name = 
REMARK  6 active torsions:
REMARK  status: ('A' for Active; 'I' for Inactive)
REMARK    1  A    between atoms: C_2  and  C_3
REMARK    2  A    between atoms: C_3  and  C_4
REMARK    3  A    between atoms: C_4  and  C_5
REMARK    4  A    between atoms: N_11  and  C_12
REMARK    5  A    between atoms: C_16  and  C_17
REMARK    6  A    between atoms: C_26  and  N_27
REMARK                            x       y       z     vdW  Elec       q    Type
REMARK                         _______ _______ _______ _____ _____    ______ ____
ROOT
ATOM      1  C   UNL     1       0.412  10.943  21.305  0.00  0.00    +0.000 A 
ATOM      2  C   UNL     1       0.314   9.604  21.692  0.00  0.00    +0.000 A 
ATOM      3  C   UNL     1       0.926   8.633  20.914  0.00  0.00    +0.000 A 
ATOM      4  N   UNL     1       1.050   7.297  21.148  0.00  0.00    +0.000 NA
ATOM      5  C   UNL     1       1.843   6.836  20.205  0.00  0.00    +0.000 A 
ATOM      6  N   UNL     1       2.071   7.809  19.260  0.00  0.00    +0.000 N 
ATOM      7  C   UNL     1       1.555   8.999  19.734  0.00  0.00    +0.000 A 
ATOM      8  C   UNL     1       1.603  10.326  19.273  0.00  0.00    +0.000 A 
ATOM      9  C   UNL     1       1.033  11.336  20.086  0.00  0.00    +0.000 A 
ATOM     10  H   UNL     1       2.619   7.704  18.417  0.00  0.00    +0.000 HD
ENDROOT
BRANCH   5  11
ATOM     11  C   UNL     1       2.470   5.464  20.269  0.00  0.00    +0.000 C 
ATOM     12  C   UNL     1       1.625   4.311  19.716  0.00  0.00    +0.000 C 
ATOM     13  C   UNL     1       1.510   4.302  18.190  0.00  0.00    +0.000 C 
ATOM     14  C   UNL     1       2.862   4.430  17.493  0.00  0.00    +0.000 C 
ATOM     15  C   UNL     1       3.696   5.583  18.038  0.00  0.00    +0.000 C 
ATOM     16  C   UNL     1       3.839   5.495  19.559  0.00  0.00    +0.000 C 
ENDBRANCH   5  11
BRANCH   9  17
ATOM     17  N   UNL     1       1.144  12.711  19.778  0.00  0.00    +0.000 N 
ATOM     18  C   UNL     1       1.018  13.200  18.398  0.00  0.00    +0.000 C 
ATOM     19  C   UNL     1       2.416  13.669  18.022  0.00  0.00    +0.000 C 
ATOM     20  C   UNL     1       2.952  14.233  19.324  0.00  0.00    +0.000 C 
ATOM     21  C   UNL     1       2.328  13.350  20.403  0.00  0.00    +0.000 C 
ENDBRANCH   9  17
BRANCH   1  24
ATOM     22  O   UNL     1      -1.811  13.358  22.748  0.00  0.00    +0.000 OA
ATOM     23  C   UNL     1      -1.454  12.440  22.008  0.00  0.00    +0.000 C 
ATOM     24  N   UNL     1      -0.186  11.915  22.132  0.00  0.00    +0.000 N 
ATOM     25  H   UNL     1       0.245  12.055  23.039  0.00  0.00    +0.000 HD
BRANCH  23  26
ATOM     26  C   UNL     1      -2.410  11.755  21.038  0.00  0.00    +0.000 C 
BRANCH  26  27
ATOM     27  C   UNL     1      -2.502  12.467  19.687  0.00  0.00    +0.000 C 
BRANCH  27  28
ATOM     28  C   UNL     1      -2.702  11.569  18.479  0.00  0.00    +0.000 A 
ATOM     29  C   UNL     1      -1.765  10.617  18.050  0.00  0.00    +0.000 A 
ATOM     30  C   UNL     1      -1.990   9.859  16.898  0.00  0.00    +0.000 A 
ATOM     31  C   UNL     1      -3.159  10.031  16.162  0.00  0.00    +0.000 A 
ATOM     32  C   UNL     1      -4.115  10.948  16.591  0.00  0.00    +0.000 A 
ATOM     33  C   UNL     1      -3.890  11.707  17.742  0.00  0.00    +0.000 A 
ENDBRANCH  27  28
ENDBRANCH  26  27
ENDBRANCH  23  26
ENDBRANCH   1  24
TORSDOF 6
ENDMDL
