MODEL 1
REMARK VINA RESULT:      -7.4      0.000      0.000
REMARK  Name = 
REMARK  7 active torsions:
REMARK  status: ('A' for Active; 'I' for Inactive)
REMARK    1  A    between atoms: C_1  and  O_2
REMARK    2  A    between atoms: O_2  and  C_3
REMARK    3  A    between atoms: C_7  and  O_8
REMARK    4  A    between atoms: O_8  and  C_9
REMARK    5  A    between atoms: C_10  and  C_11
REMARK    6  A    between atoms: N_13  and  N_14
REMARK    7  A    between atoms: C_15  and  C_16
REMARK                            x       y       z     vdW  Elec       q    Type
REMARK                         _______ _______ _______ _____ _____    ______ ____
ROOT
ATOM      1  N   UNL     1       4.277   3.576  17.648  0.00  0.00    +0.000 N 
ATOM      2  C   UNL     1       4.572   4.124  18.889  0.00  0.00    +0.000 A 
ATOM      3  N   UNL     1       4.485   3.377  19.947  0.00  0.00    +0.000 NA
ATOM      4  C   UNL     1       3.204   2.806  20.051  0.00  0.00    +0.000 A 
ATOM      5  C   UNL     1       2.693   2.657  21.342  0.00  0.00    +0.000 A 
ATOM      6  C   UNL     1       1.326   2.814  21.555  0.00  0.00    +0.000 A 
ATOM      7  C   UNL     1       0.483   3.055  20.467  0.00  0.00    +0.000 A 
ATOM      8  C   UNL     1       0.976   3.013  19.152  0.00  0.00    +0.000 A 
ATOM      9  C   UNL     1       2.347   2.846  18.936  0.00  0.00    +0.000 A 
ATOM     10  C   UNL     1       2.991   3.044  17.582  0.00  0.00    +0.000 A 
ATOM     11  O   UNL     1       2.353   2.868  16.548  0.00  0.00    +0.000 OA
ENDROOT
BRANCH   1  14
ATOM     12  C   UNL     1       5.631   3.470  15.589  0.00  0.00    +0.000 C 
ATOM     13  O   UNL     1       5.773   2.276  15.825  0.00  0.00    +0.000 OA
ATOM     14  N   UNL     1       4.842   4.227  16.470  0.00  0.00    +0.000 N 
ATOM     15  H   UNL     1       4.559   5.189  16.292  0.00  0.00    +0.000 HD
BRANCH  12  21
ATOM     16  C   UNL     1       7.325   5.105  14.591  0.00  0.00    +0.000 A 
ATOM     17  C   UNL     1       8.056   5.653  13.512  0.00  0.00    +0.000 A 
ATOM     18  C   UNL     1       7.796   5.289  12.206  0.00  0.00    +0.000 A 
ATOM     19  C   UNL     1       6.804   4.358  11.972  0.00  0.00    +0.000 A 
ATOM     20  C   UNL     1       6.070   3.749  13.025  0.00  0.00    +0.000 A 
ATOM     21  C   UNL     1       6.332   4.117  14.381  0.00  0.00    +0.000 A 
BRANCH  16  23
ATOM     22  C   UNL     1       6.980   6.770  16.257  0.00  0.00    +0.000 C 
ATOM     23  O   UNL     1       7.586   5.532  15.883  0.00  0.00    +0.000 OA
ENDBRANCH  16  23
BRANCH  20  24
ATOM     24  O   UNL     1       5.229   2.871  12.393  0.00  0.00    +0.000 OA
ATOM     25  C   UNL     1       4.280   3.216  11.404  0.00  0.00    +0.000 C 
ENDBRANCH  20  24
ENDBRANCH  12  21
ENDBRANCH   1  14
BRANCH   2  26
ATOM     26  C   UNL     1       4.246   5.665  18.972  0.00  0.00    +0.000 C 
ATOM     27  C   UNL     1       3.590   6.324  17.719  0.00  0.00    +0.000 C 
ATOM     28  C   UNL     1       2.756   7.174  18.678  0.00  0.00    +0.000 C 
ATOM     29  C   UNL     1       3.034   6.132  19.781  0.00  0.00    +0.000 C 
ENDBRANCH   2  26
TORSDOF 5
ENDMDL
MODEL 2
REMARK VINA RESULT:      -7.2      4.976      7.839
REMARK  Name = 
REMARK  7 active torsions:
REMARK  status: ('A' for Active; 'I' for Inactive)
REMARK    1  A    between atoms: C_1  and  O_2
REMARK    2  A    between atoms: O_2  and  C_3
REMARK    3  A    between atoms: C_7  and  O_8
REMARK    4  A    between atoms: O_8  and  C_9
REMARK    5  A    between atoms: C_10  and  C_11
REMARK    6  A    between atoms: N_13  and  N_14
REMARK    7  A    between atoms: C_15  and  C_16
REMARK                            x       y       z     vdW  Elec       q    Type
REMARK                         _______ _______ _______ _____ _____    ______ ____
ROOT
ATOM      1  N   UNL     1       1.052   9.518  19.045  0.00  0.00    +0.000 N 
ATOM      2  C   UNL     1      -0.057   9.654  19.870  0.00  0.00    +0.000 A 
ATOM      3  N   UNL     1      -1.113  10.255  19.415  0.00  0.00    +0.000 NA
ATOM      4  C   UNL     1      -0.793  11.543  18.951  0.00  0.00    +0.000 A 
ATOM      5  C   UNL     1      -1.757  12.535  19.154  0.00  0.00    +0.000 A 
ATOM      6  C   UNL     1      -1.347  13.837  19.425  0.00  0.00    +0.000 A 
ATOM      7  C   UNL     1       0.017  14.142  19.429  0.00  0.00    +0.000 A 
ATOM      8  C   UNL     1       0.969  13.187  19.037  0.00  0.00    +0.000 A 
ATOM      9  C   UNL     1       0.558  11.881  18.754  0.00  0.00    +0.000 A 
ATOM     10  C   UNL     1       1.532  10.739  18.577  0.00  0.00    +0.000 A 
ATOM     11  O   UNL     1       2.677  10.940  18.181  0.00  0.00    +0.000 OA
ENDROOT
BRANCH   1  14
ATOM     12  C   UNL     1       2.407   7.587  18.324  0.00  0.00    +0.000 C 
ATOM     13  O   UNL     1       1.987   7.801  17.193  0.00  0.00    +0.000 OA
ATOM     14  N   UNL     1       1.997   8.448  19.354  0.00  0.00    +0.000 N 
ATOM     15  H   UNL     1       2.388   8.434  20.294  0.00  0.00    +0.000 HD
BRANCH  12  21
ATOM     16  C   UNL     1       2.892   5.352  19.469  0.00  0.00    +0.000 A 
ATOM     17  C   UNL     1       3.669   4.189  19.673  0.00  0.00    +0.000 A 
ATOM     18  C   UNL     1       4.906   4.034  19.082  0.00  0.00    +0.000 A 
ATOM     19  C   UNL     1       5.371   5.046  18.265  0.00  0.00    +0.000 A 
ATOM     20  C   UNL     1       4.611   6.215  17.996  0.00  0.00    +0.000 A 
ATOM     21  C   UNL     1       3.327   6.385  18.602  0.00  0.00    +0.000 A 
BRANCH  16  23
ATOM     22  C   UNL     1       1.034   4.265  20.484  0.00  0.00    +0.000 C 
ATOM     23  O   UNL     1       1.675   5.488  20.118  0.00  0.00    +0.000 OA
ENDBRANCH  16  23
BRANCH  20  24
ATOM     24  O   UNL     1       5.387   6.936  17.127  0.00  0.00    +0.000 OA
ATOM     25  C   UNL     1       6.778   7.146  17.254  0.00  0.00    +0.000 C 
ENDBRANCH  20  24
ENDBRANCH  12  21
ENDBRANCH   1  14
BRANCH   2  26
ATOM     26  C   UNL     1       0.323   9.756  21.397  0.00  0.00    +0.000 C 
ATOM     27  C   UNL     1      -0.374  10.875  22.232  0.00  0.00    +0.000 C 
ATOM     28  C   UNL     1      -0.426   9.889  23.399  0.00  0.00    +0.000 C 
ATOM     29  C   UNL     1      -0.258   8.740  22.383  0.00  0.00    +0.000 C 
ENDBRANCH   2  26
TORSDOF 5
ENDMDL
MODEL 3
REMARK VINA RESULT:      -7.1      4.957      7.831
REMARK  Name = 
REMARK  7 active torsions:
REMARK  status: ('A' for Active; 'I' for Inactive)
REMARK    1  A    between atoms: C_1  and  O_2
REMARK    2  A    between atoms: O_2  and  C_3
REMARK    3  A    between atoms: C_7  and  O_8
REMARK    4  A    between atoms: O_8  and  C_9
REMARK    5  A    between atoms: C_10  and  C_11
REMARK    6  A    between atoms: N_13  and  N_14
REMARK    7  A    between atoms: C_15  and  C_16
REMARK                            x       y       z     vdW  Elec       q    Type
REMARK                         _______ _______ _______ _____ _____    ______ ____
ROOT
ATOM      1  N   UNL     1       1.049   9.502  19.034  0.00  0.00    +0.000 N 
ATOM      2  C   UNL     1      -0.037   9.716  19.873  0.00  0.00    +0.000 A 
ATOM      3  N   UNL     1      -1.065  10.366  19.421  0.00  0.00    +0.000 NA
ATOM      4  C   UNL     1      -0.682  11.625  18.926  0.00  0.00    +0.000 A 
ATOM      5  C   UNL     1      -1.586  12.672  19.123  0.00  0.00    +0.000 A 
ATOM      6  C   UNL     1      -1.101  13.954  19.361  0.00  0.00    +0.000 A 
ATOM      7  C   UNL     1       0.278  14.184  19.338  0.00  0.00    +0.000 A 
ATOM      8  C   UNL     1       1.170  13.169  18.951  0.00  0.00    +0.000 A 
ATOM      9  C   UNL     1       0.683  11.883  18.702  0.00  0.00    +0.000 A 
ATOM     10  C   UNL     1       1.589  10.685  18.534  0.00  0.00    +0.000 A 
ATOM     11  O   UNL     1       2.736  10.814  18.116  0.00  0.00    +0.000 OA
ENDROOT
BRANCH   1  14
ATOM     12  C   UNL     1       2.183   7.415  18.368  0.00  0.00    +0.000 C 
ATOM     13  O   UNL     1       1.672   7.569  17.266  0.00  0.00    +0.000 OA
ATOM     14  N   UNL     1       1.938   8.388  19.350  0.00  0.00    +0.000 N 
ATOM     15  H   UNL     1       2.417   8.419  20.249  0.00  0.00    +0.000 HD
BRANCH  12  21
ATOM     16  C   UNL     1       4.331   6.051  18.109  0.00  0.00    +0.000 A 
ATOM     17  C   UNL     1       5.177   4.968  18.438  0.00  0.00    +0.000 A 
ATOM     18  C   UNL     1       4.757   3.951  19.271  0.00  0.00    +0.000 A 
ATOM     19  C   UNL     1       3.482   4.021  19.796  0.00  0.00    +0.000 A 
ATOM     20  C   UNL     1       2.609   5.109  19.529  0.00  0.00    +0.000 A 
ATOM     21  C   UNL     1       3.034   6.169  18.668  0.00  0.00    +0.000 A 
BRANCH  16  23
ATOM     22  C   UNL     1       5.193   6.557  15.949  0.00  0.00    +0.000 C 
ATOM     23  O   UNL     1       4.775   7.027  17.232  0.00  0.00    +0.000 OA
ENDBRANCH  16  23
BRANCH  20  24
ATOM     24  O   UNL     1       1.480   4.829  20.254  0.00  0.00    +0.000 OA
ATOM     25  C   UNL     1       1.090   3.545  20.696  0.00  0.00    +0.000 C 
ENDBRANCH  20  24
ENDBRANCH  12  21
ENDBRANCH   1  14
BRANCH   2  26
ATOM     26  C   UNL     1       0.373   9.827  21.392  0.00  0.00    +0.000 C 
ATOM     27  C   UNL     1      -0.396  10.868  22.263  0.00  0.00    +0.000 C 
ATOM     28  C   UNL     1      -0.331   9.862  23.413  0.00  0.00    +0.000 C 
ATOM     29  C   UNL     1      -0.089   8.749  22.373  0.00  0.00    +0.000 C 
ENDBRANCH   2  26
TORSDOF 5
ENDMDL
MODEL 4
REMARK VINA RESULT:      -6.8     10.005     13.950
REMARK  Name = 
REMARK  7 active torsions:
REMARK  status: ('A' for Active; 'I' for Inactive)
REMARK    1  A    between atoms: C_1  and  O_2
REMARK    2  A    between atoms: O_2  and  C_3
REMARK    3  A    between atoms: C_7  and  O_8
REMARK    4  A    between atoms: O_8  and  C_9
REMARK    5  A    between atoms: C_10  and  C_11
REMARK    6  A    between atoms: N_13  and  N_14
REMARK    7  A    between atoms: C_15  and  C_16
REMARK                            x       y       z     vdW  Elec       q    Type
REMARK                         _______ _______ _______ _____ _____    ______ ____
ROOT
ATOM      1  N   UNL     1      -2.024  12.211  20.497  0.00  0.00    +0.000 N 
ATOM      2  C   UNL     1      -1.982  11.245  19.501  0.00  0.00    +0.000 A 
ATOM      3  N   UNL     1      -1.002  10.394  19.487  0.00  0.00    +0.000 NA
ATOM      4  C   UNL     1       0.236  11.058  19.458  0.00  0.00    +0.000 A 
ATOM      5  C   UNL     1       1.251  10.451  18.714  0.00  0.00    +0.000 A 
ATOM      6  C   UNL     1       2.165  11.248  18.032  0.00  0.00    +0.000 A 
ATOM      7  C   UNL     1       2.091  12.639  18.153  0.00  0.00    +0.000 A 
ATOM      8  C   UNL     1       1.191  13.235  19.052  0.00  0.00    +0.000 A 
ATOM      9  C   UNL     1       0.278  12.435  19.745  0.00  0.00    +0.000 A 
ATOM     10  C   UNL     1      -0.882  13.009  20.527  0.00  0.00    +0.000 A 
ATOM     11  O   UNL     1      -0.822  14.135  21.010  0.00  0.00    +0.000 OA
ENDROOT
BRANCH   1  14
ATOM     12  C   UNL     1      -3.850  12.647  22.097  0.00  0.00    +0.000 C 
ATOM     13  O   UNL     1      -3.175  12.048  22.926  0.00  0.00    +0.000 OA
ATOM     14  N   UNL     1      -3.320  12.807  20.807  0.00  0.00    +0.000 N 
ATOM     15  H   UNL     1      -3.742  13.396  20.091  0.00  0.00    +0.000 HD
BRANCH  12  21
ATOM     16  C   UNL     1      -6.396  12.584  21.864  0.00  0.00    +0.000 A 
ATOM     17  C   UNL     1      -7.702  12.973  22.243  0.00  0.00    +0.000 A 
ATOM     18  C   UNL     1      -7.916  13.976  23.167  0.00  0.00    +0.000 A 
ATOM     19  C   UNL     1      -6.816  14.590  23.732  0.00  0.00    +0.000 A 
ATOM     20  C   UNL     1      -5.485  14.208  23.415  0.00  0.00    +0.000 A 
ATOM     21  C   UNL     1      -5.251  13.169  22.460  0.00  0.00    +0.000 A 
BRANCH  16  23
ATOM     22  C   UNL     1      -7.423  10.972  20.446  0.00  0.00    +0.000 C 
ATOM     23  O   UNL     1      -6.225  11.605  20.898  0.00  0.00    +0.000 OA
ENDBRANCH  16  23
BRANCH  20  24
ATOM     24  O   UNL     1      -4.701  15.010  24.200  0.00  0.00    +0.000 OA
ATOM     25  C   UNL     1      -4.097  16.219  23.787  0.00  0.00    +0.000 C 
ENDBRANCH  20  24
ENDBRANCH  12  21
ENDBRANCH   1  14
BRANCH   2  26
ATOM     26  C   UNL     1      -2.640  11.726  18.151  0.00  0.00    +0.000 C 
ATOM     27  C   UNL     1      -2.305  10.909  16.864  0.00  0.00    +0.000 C 
ATOM     28  C   UNL     1      -3.750  11.136  16.418  0.00  0.00    +0.000 C 
ATOM     29  C   UNL     1      -4.117  11.425  17.888  0.00  0.00    +0.000 C 
ENDBRANCH   2  26
TORSDOF 5
ENDMDL
MODEL 5
REMARK VINA RESULT:      -6.7      4.630      8.083
REMARK  Name = 
REMARK  7 active torsions:
REMARK  status: ('A' for Active; 'I' for Inactive)
REMARK    1  A    between atoms: C_1  and  O_2
REMARK    2  A    between atoms: O_2  and  C_3
REMARK    3  A    between atoms: C_7  and  O_8
REMARK    4  A    between atoms: O_8  and  C_9
REMARK    5  A    between atoms: C_10  and  C_11
REMARK    6  A    between atoms: N_13  and  N_14
REMARK    7  A    between atoms: C_15  and  C_16
REMARK                            x       y       z     vdW  Elec       q    Type
REMARK                         _______ _______ _______ _____ _____    ______ ____
ROOT
ATOM      1  N   UNL     1       2.547   7.395  18.930  0.00  0.00    +0.000 N 
ATOM      2  C   UNL     1       2.668   6.147  19.528  0.00  0.00    +0.000 A 
ATOM      3  N   UNL     1       3.848   5.709  19.843  0.00  0.00    +0.000 NA
ATOM      4  C   UNL     1       4.694   5.703  18.720  0.00  0.00    +0.000 A 
ATOM      5  C   UNL     1       5.615   4.656  18.641  0.00  0.00    +0.000 A 
ATOM      6  C   UNL     1       5.946   4.133  17.394  0.00  0.00    +0.000 A 
ATOM      7  C   UNL     1       5.399   4.703  16.242  0.00  0.00    +0.000 A 
ATOM      8  C   UNL     1       4.626   5.874  16.316  0.00  0.00    +0.000 A 
ATOM      9  C   UNL     1       4.301   6.407  17.566  0.00  0.00    +0.000 A 
ATOM     10  C   UNL     1       3.274   7.501  17.747  0.00  0.00    +0.000 A 
ATOM     11  O   UNL     1       3.043   8.305  16.848  0.00  0.00    +0.000 OA
ENDROOT
BRANCH   1  14
ATOM     12  C   UNL     1       1.243   9.474  19.181  0.00  0.00    +0.000 C 
ATOM     13  O   UNL     1       2.313  10.068  19.155  0.00  0.00    +0.000 OA
ATOM     14  N   UNL     1       1.260   8.076  19.042  0.00  0.00    +0.000 N 
ATOM     15  H   UNL     1       0.424   7.508  18.922  0.00  0.00    +0.000 HD
BRANCH  12  21
ATOM     16  C   UNL     1      -0.314  10.889  20.634  0.00  0.00    +0.000 A 
ATOM     17  C   UNL     1      -1.468  11.682  20.836  0.00  0.00    +0.000 A 
ATOM     18  C   UNL     1      -2.433  11.813  19.858  0.00  0.00    +0.000 A 
ATOM     19  C   UNL     1      -2.241  11.157  18.658  0.00  0.00    +0.000 A 
ATOM     20  C   UNL     1      -1.081  10.383  18.392  0.00  0.00    +0.000 A 
ATOM     21  C   UNL     1      -0.073  10.242  19.397  0.00  0.00    +0.000 A 
BRANCH  16  23
ATOM     22  C   UNL     1       0.243   9.831  22.691  0.00  0.00    +0.000 C 
ATOM     23  O   UNL     1       0.608  10.747  21.658  0.00  0.00    +0.000 OA
ENDBRANCH  16  23
BRANCH  20  24
ATOM     24  O   UNL     1      -1.248   9.943  17.106  0.00  0.00    +0.000 OA
ATOM     25  C   UNL     1      -2.464   9.969  16.385  0.00  0.00    +0.000 C 
ENDBRANCH  20  24
ENDBRANCH  12  21
ENDBRANCH   1  14
BRANCH   2  26
ATOM     26  C   UNL     1       1.536   5.142  19.086  0.00  0.00    +0.000 C 
ATOM     27  C   UNL     1       1.938   4.006  18.095  0.00  0.00    +0.000 C 
ATOM     28  C   UNL     1       0.990   3.084  18.861  0.00  0.00    +0.000 C 
ATOM     29  C   UNL     1       1.080   4.052  20.058  0.00  0.00    +0.000 C 
ENDBRANCH   2  26
TORSDOF 5
ENDMDL
MODEL 6
REMARK VINA RESULT:      -6.7      9.876     13.563
REMARK  Name = 
REMARK  7 active torsions:
REMARK  status: ('A' for Active; 'I' for Inactive)
REMARK    1  A    between atoms: C_1  and  O_2
REMARK    2  A    between atoms: O_2  and  C_3
REMARK    3  A    between atoms: C_7  and  O_8
REMARK    4  A    between atoms: O_8  and  C_9
REMARK    5  A    between atoms: C_10  and  C_11
REMARK    6  A    between atoms: N_13  and  N_14
REMARK    7  A    between atoms: C_15  and  C_16
REMARK                            x       y       z     vdW  Elec       q    Type
REMARK                         _______ _______ _______ _____ _____    ______ ____
ROOT
ATOM      1  N   UNL     1      -2.363  12.218  19.770  0.00  0.00    +0.000 N 
ATOM      2  C   UNL     1      -1.254  12.123  20.601  0.00  0.00    +0.000 A 
ATOM      3  N   UNL     1      -0.091  12.470  20.143  0.00  0.00    +0.000 NA
ATOM      4  C   UNL     1       0.219  11.756  18.972  0.00  0.00    +0.000 A 
ATOM      5  C   UNL     1       1.560  11.407  18.792  0.00  0.00    +0.000 A 
ATOM      6  C   UNL     1       1.872  10.200  18.174  0.00  0.00    +0.000 A 
ATOM      7  C   UNL     1       0.842   9.388  17.689  0.00  0.00    +0.000 A 
ATOM      8  C   UNL     1      -0.491   9.833  17.702  0.00  0.00    +0.000 A 
ATOM      9  C   UNL     1      -0.805  11.050  18.313  0.00  0.00    +0.000 A 
ATOM     10  C   UNL     1      -2.226  11.479  18.596  0.00  0.00    +0.000 A 
ATOM     11  O   UNL     1      -3.157  11.076  17.906  0.00  0.00    +0.000 OA
ENDROOT
BRANCH   1  14
ATOM     12  C   UNL     1      -4.122  13.575  20.841  0.00  0.00    +0.000 C 
ATOM     13  O   UNL     1      -3.406  14.546  20.631  0.00  0.00    +0.000 OA
ATOM     14  N   UNL     1      -3.675  12.318  20.403  0.00  0.00    +0.000 N 
ATOM     15  H   UNL     1      -4.249  11.477  20.414  0.00  0.00    +0.000 HD
BRANCH  12  21
ATOM     16  C   UNL     1      -5.610  13.139  22.875  0.00  0.00    +0.000 A 
ATOM     17  C   UNL     1      -6.782  13.342  23.641  0.00  0.00    +0.000 A 
ATOM     18  C   UNL     1      -7.842  14.081  23.155  0.00  0.00    +0.000 A 
ATOM     19  C   UNL     1      -7.729  14.636  21.896  0.00  0.00    +0.000 A 
ATOM     20  C   UNL     1      -6.558  14.495  21.105  0.00  0.00    +0.000 A 
ATOM     21  C   UNL     1      -5.453  13.734  21.599  0.00  0.00    +0.000 A 
BRANCH  16  23
ATOM     22  C   UNL     1      -4.418  12.403  24.799  0.00  0.00    +0.000 C 
ATOM     23  O   UNL     1      -4.588  12.353  23.382  0.00  0.00    +0.000 OA
ENDBRANCH  16  23
BRANCH  20  24
ATOM     24  O   UNL     1      -6.823  15.212  19.968  0.00  0.00    +0.000 OA
ATOM     25  C   UNL     1      -6.420  16.545  19.730  0.00  0.00    +0.000 C 
ENDBRANCH  20  24
ENDBRANCH  12  21
ENDBRANCH   1  14
BRANCH   2  26
ATOM     26  C   UNL     1      -1.380  10.964  21.663  0.00  0.00    +0.000 C 
ATOM     27  C   UNL     1      -0.187   9.965  21.773  0.00  0.00    +0.000 C 
ATOM     28  C   UNL     1      -0.425   9.941  23.283  0.00  0.00    +0.000 C 
ATOM     29  C   UNL     1      -1.176  11.281  23.145  0.00  0.00    +0.000 C 
ENDBRANCH   2  26
TORSDOF 5
ENDMDL
MODEL 7
REMARK VINA RESULT:      -6.6      9.165     12.815
REMARK  Name = 
REMARK  7 active torsions:
REMARK  status: ('A' for Active; 'I' for Inactive)
REMARK    1  A    between atoms: C_1  and  O_2
REMARK    2  A    between atoms: O_2  and  C_3
REMARK    3  A    between atoms: C_7  and  O_8
REMARK    4  A    between atoms: O_8  and  C_9
REMARK    5  A    between atoms: C_10  and  C_11
REMARK    6  A    between atoms: N_13  and  N_14
REMARK    7  A    between atoms: C_15  and  C_16
REMARK                            x       y       z     vdW  Elec       q    Type
REMARK                         _______ _______ _______ _____ _____    ______ ____
ROOT
ATOM      1  N   UNL     1      -0.795  13.574  19.970  0.00  0.00    +0.000 N 
ATOM      2  C   UNL     1       0.124  12.560  20.206  0.00  0.00    +0.000 A 
ATOM      3  N   UNL     1       1.053  12.743  21.094  0.00  0.00    +0.000 NA
ATOM      4  C   UNL     1       1.795  13.902  20.808  0.00  0.00    +0.000 A 
ATOM      5  C   UNL     1       3.160  13.856  21.103  0.00  0.00    +0.000 A 
ATOM      6  C   UNL     1       4.057  14.530  20.281  0.00  0.00    +0.000 A 
ATOM      7  C   UNL     1       3.574  15.291  19.213  0.00  0.00    +0.000 A 
ATOM      8  C   UNL     1       2.194  15.488  19.036  0.00  0.00    +0.000 A 
ATOM      9  C   UNL     1       1.291  14.820  19.868  0.00  0.00    +0.000 A 
ATOM     10  C   UNL     1      -0.194  14.772  19.590  0.00  0.00    +0.000 A 
ATOM     11  O   UNL     1      -0.749  15.670  18.963  0.00  0.00    +0.000 OA
ENDROOT
BRANCH   1  14
ATOM     12  C   UNL     1      -3.110  12.763  20.230  0.00  0.00    +0.000 C 
ATOM     13  O   UNL     1      -2.900  12.759  21.437  0.00  0.00    +0.000 OA
ATOM     14  N   UNL     1      -2.079  13.200  19.383  0.00  0.00    +0.000 N 
ATOM     15  H   UNL     1      -2.196  13.363  18.385  0.00  0.00    +0.000 HD
BRANCH  12  21
ATOM     16  C   UNL     1      -4.480  11.524  18.462  0.00  0.00    +0.000 A 
ATOM     17  C   UNL     1      -5.683  10.971  17.965  0.00  0.00    +0.000 A 
ATOM     18  C   UNL     1      -6.889  11.178  18.603  0.00  0.00    +0.000 A 
ATOM     19  C   UNL     1      -6.896  11.934  19.759  0.00  0.00    +0.000 A 
ATOM     20  C   UNL     1      -5.709  12.476  20.320  0.00  0.00    +0.000 A 
ATOM     21  C   UNL     1      -4.454  12.267  19.668  0.00  0.00    +0.000 A 
BRANCH  16  23
ATOM     22  C   UNL     1      -3.042   9.988  17.348  0.00  0.00    +0.000 C 
ATOM     23  O   UNL     1      -3.297  11.330  17.766  0.00  0.00    +0.000 OA
ENDBRANCH  16  23
BRANCH  20  24
ATOM     24  O   UNL     1      -6.127  13.109  21.460  0.00  0.00    +0.000 OA
ATOM     25  C   UNL     1      -7.055  12.590  22.390  0.00  0.00    +0.000 C 
ENDBRANCH  20  24
ENDBRANCH  12  21
ENDBRANCH   1  14
BRANCH   2  26
ATOM     26  C   UNL     1       0.402  11.675  18.930  0.00  0.00    +0.000 C 
ATOM     27  C   UNL     1       1.894  11.443  18.536  0.00  0.00    +0.000 C 
ATOM     28  C   UNL     1       1.504  10.020  18.135  0.00  0.00    +0.000 C 
ATOM     29  C   UNL     1       0.251  10.156  19.025  0.00  0.00    +0.000 C 
ENDBRANCH   2  26
TORSDOF 5
ENDMDL
MODEL 8
REMARK VINA RESULT:      -6.6      9.883     13.758
REMARK  Name = 
REMARK  7 active torsions:
REMARK  status: ('A' for Active; 'I' for Inactive)
REMARK    1  A    between atoms: C_1  and  O_2
REMARK    2  A    between atoms: O_2  and  C_3
REMARK    3  A    between atoms: C_7  and  O_8
REMARK    4  A    between atoms: O_8  and  C_9
REMARK    5  A    between atoms: C_10  and  C_11
REMARK    6  A    between atoms: N_13  and  N_14
REMARK    7  A    between atoms: C_15  and  C_16
REMARK                            x       y       z     vdW  Elec       q    Type
REMARK                         _______ _______ _______ _____ _____    ______ ____
ROOT
ATOM      1  N   UNL     1      -2.297  12.163  20.154  0.00  0.00    +0.000 N 
ATOM      2  C   UNL     1      -1.136  11.982  20.895  0.00  0.00    +0.000 A 
ATOM      3  N   UNL     1      -0.002  12.371  20.396  0.00  0.00    +0.000 NA
ATOM      4  C   UNL     1       0.222  11.778  19.142  0.00  0.00    +0.000 A 
ATOM      5  C   UNL     1       1.544  11.446  18.838  0.00  0.00    +0.000 A 
ATOM      6  C   UNL     1       1.803  10.307  18.081  0.00  0.00    +0.000 A 
ATOM      7  C   UNL     1       0.736   9.550  17.589  0.00  0.00    +0.000 A 
ATOM      8  C   UNL     1      -0.589   9.995  17.735  0.00  0.00    +0.000 A 
ATOM      9  C   UNL     1      -0.850  11.144  18.486  0.00  0.00    +0.000 A 
ATOM     10  C   UNL     1      -2.245  11.546  18.906  0.00  0.00    +0.000 A 
ATOM     11  O   UNL     1      -3.224  11.216  18.243  0.00  0.00    +0.000 OA
ENDROOT
BRANCH   1  14
ATOM     12  C   UNL     1      -4.143  13.448  21.167  0.00  0.00    +0.000 C 
ATOM     13  O   UNL     1      -3.581  14.453  20.750  0.00  0.00    +0.000 OA
ATOM     14  N   UNL     1      -3.563  12.202  20.882  0.00  0.00    +0.000 N 
ATOM     15  H   UNL     1      -4.016  11.310  21.070  0.00  0.00    +0.000 HD
BRANCH  12  21
ATOM     16  C   UNL     1      -6.545  12.750  21.699  0.00  0.00    +0.000 A 
ATOM     17  C   UNL     1      -7.705  12.758  22.508  0.00  0.00    +0.000 A 
ATOM     18  C   UNL     1      -7.818  13.597  23.599  0.00  0.00    +0.000 A 
ATOM     19  C   UNL     1      -6.756  14.428  23.897  0.00  0.00    +0.000 A 
ATOM     20  C   UNL     1      -5.554  14.427  23.140  0.00  0.00    +0.000 A 
ATOM     21  C   UNL     1      -5.426  13.562  22.009  0.00  0.00    +0.000 A 
BRANCH  16  23
ATOM     22  C   UNL     1      -7.484  10.902  20.531  0.00  0.00    +0.000 C 
ATOM     23  O   UNL     1      -6.491  11.927  20.586  0.00  0.00    +0.000 OA
ENDBRANCH  16  23
BRANCH  20  24
ATOM     24  O   UNL     1      -4.751  15.341  23.770  0.00  0.00    +0.000 OA
ATOM     25  C   UNL     1      -5.175  16.592  24.272  0.00  0.00    +0.000 C 
ENDBRANCH  20  24
ENDBRANCH  12  21
ENDBRANCH   1  14
BRANCH   2  26
ATOM     26  C   UNL     1      -1.201  10.722  21.841  0.00  0.00    +0.000 C 
ATOM     27  C   UNL     1       0.032   9.766  21.840  0.00  0.00    +0.000 C 
ATOM     28  C   UNL     1      -0.181   9.587  23.343  0.00  0.00    +0.000 C 
ATOM     29  C   UNL     1      -0.985  10.903  23.345  0.00  0.00    +0.000 C 
ENDBRANCH   2  26
TORSDOF 5
ENDMDL
MODEL 9
REMARK VINA RESULT:      -6.6      9.908     13.676
REMARK  Name = 
REMARK  7 active torsions:
REMARK  status: ('A' for Active; 'I' for Inactive)
REMARK    1  A    between atoms: C_1  and  O_2
REMARK    2  A    between atoms: O_2  and  C_3
REMARK    3  A    between atoms: C_7  and  O_8
REMARK    4  A    between atoms: O_8  and  C_9
REMARK    5  A    between atoms: C_10  and  C_11
REMARK    6  A    between atoms: N_13  and  N_14
REMARK    7  A    between atoms: C_15  and  C_16
REMARK                            x       y       z     vdW  Elec       q    Type
REMARK                         _______ _______ _______ _____ _____    ______ ____
ROOT
ATOM      1  N   UNL     1      -1.496  12.391  20.934  0.00  0.00    +0.000 N 
ATOM      2  C   UNL     1      -1.713  11.402  19.983  0.00  0.00    +0.000 A 
ATOM      3  N   UNL     1      -0.874  10.417  19.894  0.00  0.00    +0.000 NA
ATOM      4  C   UNL     1       0.434  10.891  19.693  0.00  0.00    +0.000 A 
ATOM      5  C   UNL     1       1.255  10.121  18.865  0.00  0.00    +0.000 A 
ATOM      6  C   UNL     1       2.185  10.757  18.048  0.00  0.00    +0.000 A 
ATOM      7  C   UNL     1       2.325  12.145  18.115  0.00  0.00    +0.000 A 
ATOM      8  C   UNL     1       1.634  12.892  19.084  0.00  0.00    +0.000 A 
ATOM      9  C   UNL     1       0.707  12.254  19.912  0.00  0.00    +0.000 A 
ATOM     10  C   UNL     1      -0.256  13.013  20.796  0.00  0.00    +0.000 A 
ATOM     11  O   UNL     1       0.021  14.131  21.219  0.00  0.00    +0.000 OA
ENDROOT
BRANCH   1  14
ATOM     12  C   UNL     1      -3.361  12.773  22.503  0.00  0.00    +0.000 C 
ATOM     13  O   UNL     1      -2.955  11.793  23.117  0.00  0.00    +0.000 OA
ATOM     14  N   UNL     1      -2.647  13.180  21.364  0.00  0.00    +0.000 N 
ATOM     15  H   UNL     1      -2.826  14.049  20.865  0.00  0.00    +0.000 HD
BRANCH  12  21
ATOM     16  C   UNL     1      -4.536  14.763  23.597  0.00  0.00    +0.000 A 
ATOM     17  C   UNL     1      -5.688  15.508  23.939  0.00  0.00    +0.000 A 
ATOM     18  C   UNL     1      -6.958  15.016  23.714  0.00  0.00    +0.000 A 
ATOM     19  C   UNL     1      -7.083  13.772  23.127  0.00  0.00    +0.000 A 
ATOM     20  C   UNL     1      -5.957  13.004  22.727  0.00  0.00    +0.000 A 
ATOM     21  C   UNL     1      -4.637  13.505  22.954  0.00  0.00    +0.000 A 
BRANCH  16  23
ATOM     22  C   UNL     1      -2.869  15.169  25.246  0.00  0.00    +0.000 C 
ATOM     23  O   UNL     1      -3.280  15.274  23.882  0.00  0.00    +0.000 OA
ENDBRANCH  16  23
BRANCH  20  24
ATOM     24  O   UNL     1      -6.494  11.878  22.160  0.00  0.00    +0.000 OA
ATOM     25  C   UNL     1      -6.977  11.781  20.836  0.00  0.00    +0.000 C 
ENDBRANCH  20  24
ENDBRANCH  12  21
ENDBRANCH   1  14
BRANCH   2  26
ATOM     26  C   UNL     1      -2.453  11.939  18.698  0.00  0.00    +0.000 C 
ATOM     27  C   UNL     1      -2.172  11.199  17.353  0.00  0.00    +0.000 C 
ATOM     28  C   UNL     1      -3.643  11.414  16.997  0.00  0.00    +0.000 C 
ATOM     29  C   UNL     1      -3.935  11.617  18.498  0.00  0.00    +0.000 C 
ENDBRANCH   2  26
TORSDOF 5
ENDMDL
