MODEL 1
REMARK VINA RESULT:      -7.5      0.000      0.000
REMARK  Name = 
REMARK  7 active torsions:
REMARK  status: ('A' for Active; 'I' for Inactive)
REMARK    1  A    between atoms: C_1  and  C_2
REMARK    2  A    between atoms: C_2  and  C_3
REMARK    3  A    between atoms: C_2  and  N_4
REMARK    4  A    between atoms: C_6  and  C_7
REMARK    5  A    between atoms: C_7  and  N_8
REMARK    6  A    between atoms: N_8  and  C_9
REMARK    7  A    between atoms: C_9  and  C_10
REMARK                            x       y       z     vdW  Elec       q    Type
REMARK                         _______ _______ _______ _____ _____    ______ ____
ROOT
ATOM      1  N   UNL     1       6.657   4.278  16.785  0.00  0.00    +0.000 NA
ATOM      2  H   UNL     1       7.393   3.805  17.295  0.00  0.00    +0.000 HD
ENDROOT
BRANCH   1   3
ATOM      3  C   UNL     1       7.297   5.149  15.798  0.00  0.00    +0.000 C 
BRANCH   3   6
ATOM      4  N   UNL     1       6.096   3.502  12.762  0.00  0.00    +0.000 N 
ATOM      5  C   UNL     1       5.983   3.709  14.106  0.00  0.00    +0.000 A 
ATOM      6  C   UNL     1       6.954   4.623  14.452  0.00  0.00    +0.000 A 
ATOM      7  C   UNL     1       7.566   4.940  13.217  0.00  0.00    +0.000 A 
ATOM      8  N   UNL     1       7.053   4.270  12.196  0.00  0.00    +0.000 NA
BRANCH   4  10
ATOM      9  C   UNL     1       4.248   3.254  11.153  0.00  0.00    +0.000 C 
ATOM     10  C   UNL     1       5.330   2.551  11.971  0.00  0.00    +0.000 C 
ATOM     11  C   UNL     1       6.241   1.709  11.075  0.00  0.00    +0.000 C 
ENDBRANCH   4  10
ENDBRANCH   3   6
ENDBRANCH   1   3
BRANCH   1  12
ATOM     12  C   UNL     1       5.825   5.021  17.729  0.00  0.00    +0.000 C 
BRANCH  12  13
ATOM     13  C   UNL     1       4.319   4.979  17.380  0.00  0.00    +0.000 C 
ATOM     14  C   UNL     1       3.739   3.564  17.208  0.00  0.00    +0.000 C 
ATOM     15  C   UNL     1       3.723   2.797  18.527  0.00  0.00    +0.000 C 
ATOM     16  C   UNL     1       2.921   3.547  19.589  0.00  0.00    +0.000 C 
ATOM     17  C   UNL     1       3.423   4.991  19.763  0.00  0.00    +0.000 C 
ATOM     18  C   UNL     1       3.509   5.745  18.434  0.00  0.00    +0.000 C 
ATOM     19  O   UNL     1       1.548   3.582  19.194  0.00  0.00    +0.000 OA
ATOM     20  C   UNL     1       0.788   3.379  20.378  0.00  0.00    +0.000 C 
ATOM     21  C   UNL     1       1.761   2.961  21.455  0.00  0.00    +0.000 C 
ATOM     22  O   UNL     1       3.034   2.853  20.829  0.00  0.00    +0.000 OA
ENDBRANCH  12  13
ENDBRANCH   1  12
TORSDOF 5
ENDMDL
MODEL 2
REMARK VINA RESULT:      -7.3      0.929      1.574
REMARK  Name = 
REMARK  7 active torsions:
REMARK  status: ('A' for Active; 'I' for Inactive)
REMARK    1  A    between atoms: C_1  and  C_2
REMARK    2  A    between atoms: C_2  and  C_3
REMARK    3  A    between atoms: C_2  and  N_4
REMARK    4  A    between atoms: C_6  and  C_7
REMARK    5  A    between atoms: C_7  and  N_8
REMARK    6  A    between atoms: N_8  and  C_9
REMARK    7  A    between atoms: C_9  and  C_10
REMARK                            x       y       z     vdW  Elec       q    Type
REMARK                         _______ _______ _______ _____ _____    ______ ____
ROOT
ATOM      1  N   UNL     1       6.186   6.411  15.909  0.00  0.00    +0.000 NA
ATOM      2  H   UNL     1       5.829   6.642  14.990  0.00  0.00    +0.000 HD
ENDROOT
BRANCH   1   3
ATOM      3  C   UNL     1       7.103   5.280  15.752  0.00  0.00    +0.000 C 
BRANCH   3   6
ATOM      4  N   UNL     1       6.139   3.493  12.711  0.00  0.00    +0.000 N 
ATOM      5  C   UNL     1       5.929   3.753  14.034  0.00  0.00    +0.000 A 
ATOM      6  C   UNL     1       6.862   4.695  14.409  0.00  0.00    +0.000 A 
ATOM      7  C   UNL     1       7.556   4.970  13.208  0.00  0.00    +0.000 A 
ATOM      8  N   UNL     1       7.125   4.251  12.183  0.00  0.00    +0.000 NA
BRANCH   4  10
ATOM      9  C   UNL     1       4.331   3.138  11.077  0.00  0.00    +0.000 C 
ATOM     10  C   UNL     1       5.442   2.500  11.908  0.00  0.00    +0.000 C 
ATOM     11  C   UNL     1       6.414   1.716  11.024  0.00  0.00    +0.000 C 
ENDBRANCH   4  10
ENDBRANCH   3   6
ENDBRANCH   1   3
BRANCH   1  12
ATOM     12  C   UNL     1       5.064   6.101  16.793  0.00  0.00    +0.000 C 
BRANCH  12  13
ATOM     13  C   UNL     1       5.244   4.773  17.567  0.00  0.00    +0.000 C 
ATOM     14  C   UNL     1       5.334   4.928  19.095  0.00  0.00    +0.000 C 
ATOM     15  C   UNL     1       4.012   5.401  19.692  0.00  0.00    +0.000 C 
ATOM     16  C   UNL     1       2.877   4.438  19.346  0.00  0.00    +0.000 C 
ATOM     17  C   UNL     1       2.777   4.202  17.829  0.00  0.00    +0.000 C 
ATOM     18  C   UNL     1       4.118   3.796  17.211  0.00  0.00    +0.000 C 
ATOM     19  O   UNL     1       3.119   3.186  19.992  0.00  0.00    +0.000 OA
ATOM     20  C   UNL     1       1.856   2.728  20.455  0.00  0.00    +0.000 C 
ATOM     21  C   UNL     1       0.888   3.875  20.292  0.00  0.00    +0.000 C 
ATOM     22  O   UNL     1       1.648   4.982  19.823  0.00  0.00    +0.000 OA
ENDBRANCH  12  13
ENDBRANCH   1  12
TORSDOF 5
ENDMDL
MODEL 3
REMARK VINA RESULT:      -6.9      1.171      1.553
REMARK  Name = 
REMARK  7 active torsions:
REMARK  status: ('A' for Active; 'I' for Inactive)
REMARK    1  A    between atoms: C_1  and  C_2
REMARK    2  A    between atoms: C_2  and  C_3
REMARK    3  A    between atoms: C_2  and  N_4
REMARK    4  A    between atoms: C_6  and  C_7
REMARK    5  A    between atoms: C_7  and  N_8
REMARK    6  A    between atoms: N_8  and  C_9
REMARK    7  A    between atoms: C_9  and  C_10
REMARK                            x       y       z     vdW  Elec       q    Type
REMARK                         _______ _______ _______ _____ _____    ______ ____
ROOT
ATOM      1  N   UNL     1       6.252   6.336  16.577  0.00  0.00    +0.000 NA
ATOM      2  H   UNL     1       6.449   6.901  15.760  0.00  0.00    +0.000 HD
ENDROOT
BRANCH   1   3
ATOM      3  C   UNL     1       6.952   5.061  16.407  0.00  0.00    +0.000 C 
BRANCH   3   6
ATOM      4  N   UNL     1       6.223   3.629  13.122  0.00  0.00    +0.000 N 
ATOM      5  C   UNL     1       5.975   3.672  14.463  0.00  0.00    +0.000 A 
ATOM      6  C   UNL     1       6.791   4.650  14.989  0.00  0.00    +0.000 A 
ATOM      7  C   UNL     1       7.457   5.170  13.856  0.00  0.00    +0.000 A 
ATOM      8  N   UNL     1       7.119   4.560  12.730  0.00  0.00    +0.000 NA
BRANCH   4  10
ATOM      9  C   UNL     1       4.475   3.306  11.418  0.00  0.00    +0.000 C 
ATOM     10  C   UNL     1       5.652   2.687  12.171  0.00  0.00    +0.000 C 
ATOM     11  C   UNL     1       6.712   2.159  11.203  0.00  0.00    +0.000 C 
ENDBRANCH   4  10
ENDBRANCH   3   6
ENDBRANCH   1   3
BRANCH   1  12
ATOM     12  C   UNL     1       4.806   6.166  16.702  0.00  0.00    +0.000 C 
BRANCH  12  13
ATOM     13  C   UNL     1       4.271   6.501  18.114  0.00  0.00    +0.000 C 
ATOM     14  C   UNL     1       2.738   6.584  18.217  0.00  0.00    +0.000 C 
ATOM     15  C   UNL     1       2.084   5.222  18.006  0.00  0.00    +0.000 C 
ATOM     16  C   UNL     1       2.605   4.200  19.016  0.00  0.00    +0.000 C 
ATOM     17  C   UNL     1       4.141   4.116  18.996  0.00  0.00    +0.000 C 
ATOM     18  C   UNL     1       4.803   5.489  19.136  0.00  0.00    +0.000 C 
ATOM     19  O   UNL     1       2.181   4.587  20.325  0.00  0.00    +0.000 OA
ATOM     20  C   UNL     1       1.819   3.387  20.996  0.00  0.00    +0.000 C 
ATOM     21  C   UNL     1       1.793   2.294  19.954  0.00  0.00    +0.000 C 
ATOM     22  O   UNL     1       2.056   2.921  18.705  0.00  0.00    +0.000 OA
ENDBRANCH  12  13
ENDBRANCH   1  12
TORSDOF 5
ENDMDL
MODEL 4
REMARK VINA RESULT:      -6.9      0.932      1.521
REMARK  Name = 
REMARK  7 active torsions:
REMARK  status: ('A' for Active; 'I' for Inactive)
REMARK    1  A    between atoms: C_1  and  C_2
REMARK    2  A    between atoms: C_2  and  C_3
REMARK    3  A    between atoms: C_2  and  N_4
REMARK    4  A    between atoms: C_6  and  C_7
REMARK    5  A    between atoms: C_7  and  N_8
REMARK    6  A    between atoms: N_8  and  C_9
REMARK    7  A    between atoms: C_9  and  C_10
REMARK                            x       y       z     vdW  Elec       q    Type
REMARK                         _______ _______ _______ _____ _____    ______ ____
ROOT
ATOM      1  N   UNL     1       6.034   3.997  16.515  0.00  0.00    +0.000 NA
ATOM      2  H   UNL     1       6.358   3.861  17.465  0.00  0.00    +0.000 HD
ENDROOT
BRANCH   1   3
ATOM      3  C   UNL     1       7.057   4.771  15.809  0.00  0.00    +0.000 C 
BRANCH   3   6
ATOM      4  N   UNL     1       6.276   3.715  12.397  0.00  0.00    +0.000 N 
ATOM      5  C   UNL     1       5.990   3.675  13.730  0.00  0.00    +0.000 A 
ATOM      6  C   UNL     1       6.896   4.502  14.358  0.00  0.00    +0.000 A 
ATOM      7  C   UNL     1       7.657   5.031  13.290  0.00  0.00    +0.000 A 
ATOM      8  N   UNL     1       7.288   4.562  12.107  0.00  0.00    +0.000 NA
BRANCH   4  10
ATOM      9  C   UNL     1       5.936   1.442  11.511  0.00  0.00    +0.000 C 
ATOM     10  C   UNL     1       5.631   2.931  11.354  0.00  0.00    +0.000 C 
ATOM     11  C   UNL     1       4.123   3.185  11.318  0.00  0.00    +0.000 C 
ENDBRANCH   4  10
ENDBRANCH   3   6
ENDBRANCH   1   3
BRANCH   1  12
ATOM     12  C   UNL     1       4.741   4.677  16.545  0.00  0.00    +0.000 C 
BRANCH  12  13
ATOM     13  C   UNL     1       4.483   5.444  17.864  0.00  0.00    +0.000 C 
ATOM     14  C   UNL     1       3.015   5.841  18.099  0.00  0.00    +0.000 C 
ATOM     15  C   UNL     1       2.132   4.619  18.331  0.00  0.00    +0.000 C 
ATOM     16  C   UNL     1       2.631   3.795  19.517  0.00  0.00    +0.000 C 
ATOM     17  C   UNL     1       4.114   3.418  19.361  0.00  0.00    +0.000 C 
ATOM     18  C   UNL     1       4.997   4.631  19.058  0.00  0.00    +0.000 C 
ATOM     19  O   UNL     1       2.475   4.565  20.712  0.00  0.00    +0.000 OA
ATOM     20  C   UNL     1       2.034   3.658  21.714  0.00  0.00    +0.000 C 
ATOM     21  C   UNL     1       1.680   2.369  21.011  0.00  0.00    +0.000 C 
ATOM     22  O   UNL     1       1.847   2.609  19.619  0.00  0.00    +0.000 OA
ENDBRANCH  12  13
ENDBRANCH   1  12
TORSDOF 5
ENDMDL
MODEL 5
REMARK VINA RESULT:      -6.8      7.607      9.557
REMARK  Name = 
REMARK  7 active torsions:
REMARK  status: ('A' for Active; 'I' for Inactive)
REMARK    1  A    between atoms: C_1  and  C_2
REMARK    2  A    between atoms: C_2  and  C_3
REMARK    3  A    between atoms: C_2  and  N_4
REMARK    4  A    between atoms: C_6  and  C_7
REMARK    5  A    between atoms: C_7  and  N_8
REMARK    6  A    between atoms: N_8  and  C_9
REMARK    7  A    between atoms: C_9  and  C_10
REMARK                            x       y       z     vdW  Elec       q    Type
REMARK                         _______ _______ _______ _____ _____    ______ ____
ROOT
ATOM      1  N   UNL     1       8.931   8.839  19.017  0.00  0.00    +0.000 NA
ATOM      2  H   UNL     1       9.807   8.386  18.790  0.00  0.00    +0.000 HD
ENDROOT
BRANCH   1   3
ATOM      3  C   UNL     1       8.036   8.661  17.871  0.00  0.00    +0.000 C 
BRANCH   3   6
ATOM      4  N   UNL     1       6.896   5.248  17.219  0.00  0.00    +0.000 N 
ATOM      5  C   UNL     1       7.078   6.527  16.779  0.00  0.00    +0.000 A 
ATOM      6  C   UNL     1       7.674   7.222  17.809  0.00  0.00    +0.000 A 
ATOM      7  C   UNL     1       7.851   6.241  18.811  0.00  0.00    +0.000 A 
ATOM      8  N   UNL     1       7.386   5.051  18.462  0.00  0.00    +0.000 NA
BRANCH   4  10
ATOM      9  C   UNL     1       4.820   3.934  17.049  0.00  0.00    +0.000 C 
ATOM     10  C   UNL     1       6.224   4.178  16.497  0.00  0.00    +0.000 C 
ATOM     11  C   UNL     1       6.186   4.457  14.993  0.00  0.00    +0.000 C 
ENDBRANCH   4  10
ENDBRANCH   3   6
ENDBRANCH   1   3
BRANCH   1  12
ATOM     12  C   UNL     1       9.184  10.248  19.313  0.00  0.00    +0.000 C 
BRANCH  12  13
ATOM     13  C   UNL     1       9.634  11.061  18.077  0.00  0.00    +0.000 C 
ATOM     14  C   UNL     1       8.803  12.328  17.804  0.00  0.00    +0.000 C 
ATOM     15  C   UNL     1       9.002  13.377  18.894  0.00  0.00    +0.000 C 
ATOM     16  C   UNL     1      10.476  13.757  19.030  0.00  0.00    +0.000 C 
ATOM     17  C   UNL     1      11.363  12.519  19.248  0.00  0.00    +0.000 C 
ATOM     18  C   UNL     1      11.117  11.432  18.198  0.00  0.00    +0.000 C 
ATOM     19  O   UNL     1      10.895  14.419  17.834  0.00  0.00    +0.000 OA
ATOM     20  C   UNL     1      11.747  15.479  18.245  0.00  0.00    +0.000 C 
ATOM     21  C   UNL     1      11.615  15.590  19.745  0.00  0.00    +0.000 C 
ATOM     22  O   UNL     1      10.624  14.647  20.134  0.00  0.00    +0.000 OA
ENDBRANCH  12  13
ENDBRANCH   1  12
TORSDOF 5
ENDMDL
MODEL 6
REMARK VINA RESULT:      -6.7      1.000      1.525
REMARK  Name = 
REMARK  7 active torsions:
REMARK  status: ('A' for Active; 'I' for Inactive)
REMARK    1  A    between atoms: C_1  and  C_2
REMARK    2  A    between atoms: C_2  and  C_3
REMARK    3  A    between atoms: C_2  and  N_4
REMARK    4  A    between atoms: C_6  and  C_7
REMARK    5  A    between atoms: C_7  and  N_8
REMARK    6  A    between atoms: N_8  and  C_9
REMARK    7  A    between atoms: C_9  and  C_10
REMARK                            x       y       z     vdW  Elec       q    Type
REMARK                         _______ _______ _______ _____ _____    ______ ____
ROOT
ATOM      1  N   UNL     1       5.972   5.432  16.334  0.00  0.00    +0.000 NA
ATOM      2  H   UNL     1       5.263   4.995  15.759  0.00  0.00    +0.000 HD
ENDROOT
BRANCH   1   3
ATOM      3  C   UNL     1       7.230   5.393  15.585  0.00  0.00    +0.000 C 
BRANCH   3   6
ATOM      4  N   UNL     1       6.160   3.493  12.650  0.00  0.00    +0.000 N 
ATOM      5  C   UNL     1       5.979   3.825  13.961  0.00  0.00    +0.000 A 
ATOM      6  C   UNL     1       6.949   4.751  14.276  0.00  0.00    +0.000 A 
ATOM      7  C   UNL     1       7.634   4.942  13.053  0.00  0.00    +0.000 A 
ATOM      8  N   UNL     1       7.163   4.189  12.071  0.00  0.00    +0.000 NA
BRANCH   4  10
ATOM      9  C   UNL     1       4.305   3.119  11.073  0.00  0.00    +0.000 C 
ATOM     10  C   UNL     1       5.417   2.486  11.907  0.00  0.00    +0.000 C 
ATOM     11  C   UNL     1       6.346   1.637  11.038  0.00  0.00    +0.000 C 
ENDBRANCH   4  10
ENDBRANCH   3   6
ENDBRANCH   1   3
BRANCH   1  12
ATOM     12  C   UNL     1       6.059   4.722  17.608  0.00  0.00    +0.000 C 
BRANCH  12  13
ATOM     13  C   UNL     1       5.077   5.259  18.675  0.00  0.00    +0.000 C 
ATOM     14  C   UNL     1       3.778   5.860  18.108  0.00  0.00    +0.000 C 
ATOM     15  C   UNL     1       2.901   4.794  17.459  0.00  0.00    +0.000 C 
ATOM     16  C   UNL     1       2.555   3.686  18.452  0.00  0.00    +0.000 C 
ATOM     17  C   UNL     1       3.817   3.086  19.094  0.00  0.00    +0.000 C 
ATOM     18  C   UNL     1       4.738   4.156  19.686  0.00  0.00    +0.000 C 
ATOM     19  O   UNL     1       1.728   4.231  19.483  0.00  0.00    +0.000 OA
ATOM     20  C   UNL     1       0.745   3.245  19.766  0.00  0.00    +0.000 C 
ATOM     21  C   UNL     1       0.853   2.196  18.685  0.00  0.00    +0.000 C 
ATOM     22  O   UNL     1       1.837   2.661  17.769  0.00  0.00    +0.000 OA
ENDBRANCH  12  13
ENDBRANCH   1  12
TORSDOF 5
ENDMDL
MODEL 7
REMARK VINA RESULT:      -6.6      4.298      7.772
REMARK  Name = 
REMARK  7 active torsions:
REMARK  status: ('A' for Active; 'I' for Inactive)
REMARK    1  A    between atoms: C_1  and  C_2
REMARK    2  A    between atoms: C_2  and  C_3
REMARK    3  A    between atoms: C_2  and  N_4
REMARK    4  A    between atoms: C_6  and  C_7
REMARK    5  A    between atoms: C_7  and  N_8
REMARK    6  A    between atoms: N_8  and  C_9
REMARK    7  A    between atoms: C_9  and  C_10
REMARK                            x       y       z     vdW  Elec       q    Type
REMARK                         _______ _______ _______ _____ _____    ______ ____
ROOT
ATOM      1  N   UNL     1       3.756   5.725  18.279  0.00  0.00    +0.000 NA
ATOM      2  H   UNL     1       3.757   6.420  17.542  0.00  0.00    +0.000 HD
ENDROOT
BRANCH   1   3
ATOM      3  C   UNL     1       2.848   6.197  19.326  0.00  0.00    +0.000 C 
BRANCH   3   6
ATOM      4  N   UNL     1       1.378   9.509  18.834  0.00  0.00    +0.000 N 
ATOM      5  C   UNL     1       1.628   8.448  19.655  0.00  0.00    +0.000 A 
ATOM      6  C   UNL     1       2.364   7.541  18.923  0.00  0.00    +0.000 A 
ATOM      7  C   UNL     1       2.542   8.188  17.679  0.00  0.00    +0.000 A 
ATOM      8  N   UNL     1       1.952   9.372  17.619  0.00  0.00    +0.000 NA
BRANCH   4  10
ATOM      9  C   UNL     1       1.254  11.967  18.741  0.00  0.00    +0.000 C 
ATOM     10  C   UNL     1       0.561  10.670  19.154  0.00  0.00    +0.000 C 
ATOM     11  C   UNL     1      -0.831  10.562  18.527  0.00  0.00    +0.000 C 
ENDBRANCH   4  10
ENDBRANCH   3   6
ENDBRANCH   1   3
BRANCH   1  12
ATOM     12  C   UNL     1       5.122   5.543  18.764  0.00  0.00    +0.000 C 
BRANCH  12  13
ATOM     13  C   UNL     1       6.177   6.293  17.917  0.00  0.00    +0.000 C 
ATOM     14  C   UNL     1       7.469   5.500  17.651  0.00  0.00    +0.000 C 
ATOM     15  C   UNL     1       7.215   4.298  16.747  0.00  0.00    +0.000 C 
ATOM     16  C   UNL     1       6.602   4.730  15.416  0.00  0.00    +0.000 C 
ATOM     17  C   UNL     1       5.335   5.577  15.624  0.00  0.00    +0.000 C 
ATOM     18  C   UNL     1       5.564   6.745  16.586  0.00  0.00    +0.000 C 
ATOM     19  O   UNL     1       7.562   5.506  14.695  0.00  0.00    +0.000 OA
ATOM     20  C   UNL     1       7.447   5.116  13.333  0.00  0.00    +0.000 C 
ATOM     21  C   UNL     1       6.565   3.890  13.303  0.00  0.00    +0.000 C 
ATOM     22  O   UNL     1       6.276   3.567  14.658  0.00  0.00    +0.000 OA
ENDBRANCH  12  13
ENDBRANCH   1  12
TORSDOF 5
ENDMDL
MODEL 8
REMARK VINA RESULT:      -6.6      0.957      1.237
REMARK  Name = 
REMARK  7 active torsions:
REMARK  status: ('A' for Active; 'I' for Inactive)
REMARK    1  A    between atoms: C_1  and  C_2
REMARK    2  A    between atoms: C_2  and  C_3
REMARK    3  A    between atoms: C_2  and  N_4
REMARK    4  A    between atoms: C_6  and  C_7
REMARK    5  A    between atoms: C_7  and  N_8
REMARK    6  A    between atoms: N_8  and  C_9
REMARK    7  A    between atoms: C_9  and  C_10
REMARK                            x       y       z     vdW  Elec       q    Type
REMARK                         _______ _______ _______ _____ _____    ______ ____
ROOT
ATOM      1  N   UNL     1       5.375   5.976  15.911  0.00  0.00    +0.000 NA
ATOM      2  H   UNL     1       4.752   5.809  15.131  0.00  0.00    +0.000 HD
ENDROOT
BRANCH   1   3
ATOM      3  C   UNL     1       6.546   5.114  15.729  0.00  0.00    +0.000 C 
BRANCH   3   6
ATOM      4  N   UNL     1       6.148   3.734  12.366  0.00  0.00    +0.000 N 
ATOM      5  C   UNL     1       5.667   3.889  13.634  0.00  0.00    +0.000 A 
ATOM      6  C   UNL     1       6.566   4.687  14.307  0.00  0.00    +0.000 A 
ATOM      7  C   UNL     1       7.534   4.998  13.324  0.00  0.00    +0.000 A 
ATOM      8  N   UNL     1       7.287   4.428  12.154  0.00  0.00    +0.000 NA
BRANCH   4  10
ATOM      9  C   UNL     1       6.001   1.442  11.477  0.00  0.00    +0.000 C 
ATOM     10  C   UNL     1       5.570   2.900  11.323  0.00  0.00    +0.000 C 
ATOM     11  C   UNL     1       4.046   3.025  11.289  0.00  0.00    +0.000 C 
ENDBRANCH   4  10
ENDBRANCH   3   6
ENDBRANCH   1   3
BRANCH   1  12
ATOM     12  C   UNL     1       4.665   5.697  17.158  0.00  0.00    +0.000 C 
BRANCH  12  13
ATOM     13  C   UNL     1       3.626   4.558  17.028  0.00  0.00    +0.000 C 
ATOM     14  C   UNL     1       4.087   3.201  17.588  0.00  0.00    +0.000 C 
ATOM     15  C   UNL     1       4.242   3.241  19.105  0.00  0.00    +0.000 C 
ATOM     16  C   UNL     1       2.935   3.650  19.781  0.00  0.00    +0.000 C 
ATOM     17  C   UNL     1       2.396   4.977  19.218  0.00  0.00    +0.000 C 
ATOM     18  C   UNL     1       2.305   4.969  17.690  0.00  0.00    +0.000 C 
ATOM     19  O   UNL     1       1.961   2.627  19.561  0.00  0.00    +0.000 OA
ATOM     20  C   UNL     1       1.238   2.498  20.778  0.00  0.00    +0.000 C 
ATOM     21  C   UNL     1       1.987   3.298  21.818  0.00  0.00    +0.000 C 
ATOM     22  O   UNL     1       3.162   3.787  21.182  0.00  0.00    +0.000 OA
ENDBRANCH  12  13
ENDBRANCH   1  12
TORSDOF 5
ENDMDL
MODEL 9
REMARK VINA RESULT:      -6.6      5.483      7.806
REMARK  Name = 
REMARK  7 active torsions:
REMARK  status: ('A' for Active; 'I' for Inactive)
REMARK    1  A    between atoms: C_1  and  C_2
REMARK    2  A    between atoms: C_2  and  C_3
REMARK    3  A    between atoms: C_2  and  N_4
REMARK    4  A    between atoms: C_6  and  C_7
REMARK    5  A    between atoms: C_7  and  N_8
REMARK    6  A    between atoms: N_8  and  C_9
REMARK    7  A    between atoms: C_9  and  C_10
REMARK                            x       y       z     vdW  Elec       q    Type
REMARK                         _______ _______ _______ _____ _____    ______ ____
ROOT
ATOM      1  N   UNL     1       8.108   8.032  18.203  0.00  0.00    +0.000 NA
ATOM      2  H   UNL     1       7.730   8.163  19.133  0.00  0.00    +0.000 HD
ENDROOT
BRANCH   1   3
ATOM      3  C   UNL     1       8.107   9.338  17.541  0.00  0.00    +0.000 C 
BRANCH   3   6
ATOM      4  N   UNL     1      10.062  11.952  19.190  0.00  0.00    +0.000 N 
ATOM      5  C   UNL     1       9.404  11.504  18.082  0.00  0.00    +0.000 A 
ATOM      6  C   UNL     1       8.869  10.275  18.405  0.00  0.00    +0.000 A 
ATOM      7  C   UNL     1       9.230  10.103  19.761  0.00  0.00    +0.000 A 
ATOM      8  N   UNL     1       9.947  11.109  20.239  0.00  0.00    +0.000 NA
BRANCH   4  10
ATOM      9  C   UNL     1      12.332  12.857  19.496  0.00  0.00    +0.000 C 
ATOM     10  C   UNL     1      10.851  13.170  19.287  0.00  0.00    +0.000 C 
ATOM     11  C   UNL     1      10.643  14.069  18.067  0.00  0.00    +0.000 C 
ENDBRANCH   4  10
ENDBRANCH   3   6
ENDBRANCH   1   3
BRANCH   1  12
ATOM     12  C   UNL     1       7.297   7.045  17.493  0.00  0.00    +0.000 C 
BRANCH  12  13
ATOM     13  C   UNL     1       7.335   5.642  18.141  0.00  0.00    +0.000 C 
ATOM     14  C   UNL     1       6.414   5.474  19.363  0.00  0.00    +0.000 C 
ATOM     15  C   UNL     1       4.941   5.540  18.970  0.00  0.00    +0.000 C 
ATOM     16  C   UNL     1       4.600   4.476  17.929  0.00  0.00    +0.000 C 
ATOM     17  C   UNL     1       5.531   4.561  16.706  0.00  0.00    +0.000 C 
ATOM     18  C   UNL     1       7.011   4.566  17.097  0.00  0.00    +0.000 C 
ATOM     19  O   UNL     1       4.740   3.184  18.524  0.00  0.00    +0.000 OA
ATOM     20  C   UNL     1       3.661   2.401  18.032  0.00  0.00    +0.000 C 
ATOM     21  C   UNL     1       2.722   3.347  17.323  0.00  0.00    +0.000 C 
ATOM     22  O   UNL     1       3.249   4.655  17.510  0.00  0.00    +0.000 OA
ENDBRANCH  12  13
ENDBRANCH   1  12
TORSDOF 5
ENDMDL
