MODEL 1
REMARK VINA RESULT:      -8.5      0.000      0.000
REMARK  Name = 
REMARK  10 active torsions:
REMARK  status: ('A' for Active; 'I' for Inactive)
REMARK    1  A    between atoms: C_1  and  C_2
REMARK    2  A    between atoms: C_6  and  C_7
REMARK    3  A    between atoms: C_8  and  N_9
REMARK    4  A    between atoms: C_10  and  C_12
REMARK    5  A    between atoms: C_12  and  C_13
REMARK    6  A    between atoms: C_13  and  N_14
REMARK    7  A    between atoms: N_14  and  C_15
REMARK    8  A    between atoms: C_15  and  C_16
REMARK    9  A    between atoms: C_15  and  C_17
REMARK   10  A    between atoms: C_27  and  C_28
REMARK                            x       y       z     vdW  Elec       q    Type
REMARK                         _______ _______ _______ _____ _____    ______ ____
ROOT
ATOM      1  C   UNL     1       3.178   5.719  19.242  0.00  0.00    +0.000 A 
ATOM      2  C   UNL     1       4.346   5.427  18.543  0.00  0.00    +0.000 A 
ATOM      3  S   UNL     1       4.925   3.854  18.898  0.00  0.00    +0.000 S 
ATOM      4  C   UNL     1       3.626   3.525  19.925  0.00  0.00    +0.000 A 
ATOM      5  C   UNL     1       2.682   4.536  19.938  0.00  0.00    +0.000 A 
ATOM      6  C   UNL     1       1.410   4.324  20.731  0.00  0.00    +0.000 C 
ATOM      7  C   UNL     1       1.331   2.918  21.376  0.00  0.00    +0.000 C 
ATOM      8  N   UNL     1       2.629   2.420  21.859  0.00  0.00    +0.000 NA
ATOM      9  C   UNL     1       3.547   2.253  20.716  0.00  0.00    +0.000 C 
ATOM     10  H   UNL     1       3.036   3.118  22.484  0.00  0.00    +0.000 HD
ENDROOT
BRANCH   1  16
ATOM     11  C   UNL     1      -0.536  12.411  18.588  0.00  0.00    +0.000 C 
ATOM     12  C   UNL     1       0.134  11.144  19.038  0.00  0.00    +0.000 A 
ATOM     13  C   UNL     1       0.880  10.388  18.147  0.00  0.00    +0.000 A 
ATOM     14  C   UNL     1       1.465   9.231  18.661  0.00  0.00    +0.000 A 
ATOM     15  S   UNL     1       2.428   8.084  17.836  0.00  0.00    +0.000 S 
ATOM     16  C   UNL     1       2.542   7.105  19.245  0.00  0.00    +0.000 A 
ATOM     17  N   UNL     1       1.981   7.636  20.319  0.00  0.00    +0.000 NA
ATOM     18  C   UNL     1       1.326   8.842  19.994  0.00  0.00    +0.000 A 
ATOM     19  C   UNL     1       0.553   9.664  20.840  0.00  0.00    +0.000 A 
ATOM     20  C   UNL     1       0.291   9.389  22.286  0.00  0.00    +0.000 C 
ATOM     21  N   UNL     1      -0.018  10.802  20.333  0.00  0.00    +0.000 NA
ENDBRANCH   1  16
BRANCH   2  22
ATOM     22  N   UNL     1       5.153   6.230  17.731  0.00  0.00    +0.000 N 
ATOM     23  C   UNL     1       6.490   6.471  18.049  0.00  0.00    +0.000 C 
ATOM     24  O   UNL     1       7.111   5.894  18.942  0.00  0.00    +0.000 OA
ATOM     25  H   UNL     1       4.874   6.296  16.756  0.00  0.00    +0.000 HD
BRANCH  23  26
ATOM     26  C   UNL     1       7.173   7.532  17.185  0.00  0.00    +0.000 C 
BRANCH  26  27
ATOM     27  C   UNL     1       8.098   8.394  18.071  0.00  0.00    +0.000 C 
BRANCH  27  28
ATOM     28  N   UNL     1       7.992   9.849  17.845  0.00  0.00    +0.000 NA
ATOM     29  H   UNL     1       7.219  10.213  18.404  0.00  0.00    +0.000 HD
BRANCH  28  30
ATOM     30  C   UNL     1       9.229  10.558  18.252  0.00  0.00    +0.000 C 
ATOM     31  C   UNL     1       9.208  12.052  17.908  0.00  0.00    +0.000 C 
ATOM     32  C   UNL     1       9.447  10.412  19.762  0.00  0.00    +0.000 C 
ENDBRANCH  28  30
ENDBRANCH  27  28
ENDBRANCH  26  27
ENDBRANCH  23  26
ENDBRANCH   2  22
TORSDOF 6
ENDMDL
MODEL 2
REMARK VINA RESULT:      -8.4      2.435      7.640
REMARK  Name = 
REMARK  10 active torsions:
REMARK  status: ('A' for Active; 'I' for Inactive)
REMARK    1  A    between atoms: C_1  and  C_2
REMARK    2  A    between atoms: C_6  and  C_7
REMARK    3  A    between atoms: C_8  and  N_9
REMARK    4  A    between atoms: C_10  and  C_12
REMARK    5  A    between atoms: C_12  and  C_13
REMARK    6  A    between atoms: C_13  and  N_14
REMARK    7  A    between atoms: N_14  and  C_15
REMARK    8  A    between atoms: C_15  and  C_16
REMARK    9  A    between atoms: C_15  and  C_17
REMARK   10  A    between atoms: C_27  and  C_28
REMARK                            x       y       z     vdW  Elec       q    Type
REMARK                         _______ _______ _______ _____ _____    ______ ____
ROOT
ATOM      1  C   UNL     1       2.399   7.317  19.392  0.00  0.00    +0.000 A 
ATOM      2  C   UNL     1       1.955   6.731  20.574  0.00  0.00    +0.000 A 
ATOM      3  S   UNL     1       0.970   7.796  21.483  0.00  0.00    +0.000 S 
ATOM      4  C   UNL     1       1.073   9.011  20.315  0.00  0.00    +0.000 A 
ATOM      5  C   UNL     1       1.751   8.607  19.179  0.00  0.00    +0.000 A 
ATOM      6  C   UNL     1       1.821   9.560  18.005  0.00  0.00    +0.000 C 
ATOM      7  C   UNL     1       1.030  10.870  18.245  0.00  0.00    +0.000 C 
ATOM      8  N   UNL     1       1.103  11.354  19.633  0.00  0.00    +0.000 NA
ATOM      9  C   UNL     1       0.472  10.368  20.532  0.00  0.00    +0.000 C 
ATOM     10  H   UNL     1       2.086  11.433  19.902  0.00  0.00    +0.000 HD
ENDROOT
BRANCH   1  16
ATOM     11  C   UNL     1       6.996   4.151  14.115  0.00  0.00    +0.000 C 
ATOM     12  C   UNL     1       6.374   4.919  15.245  0.00  0.00    +0.000 A 
ATOM     13  C   UNL     1       5.071   4.657  15.641  0.00  0.00    +0.000 A 
ATOM     14  C   UNL     1       4.585   5.421  16.702  0.00  0.00    +0.000 A 
ATOM     15  S   UNL     1       3.035   5.358  17.419  0.00  0.00    +0.000 S 
ATOM     16  C   UNL     1       3.425   6.657  18.476  0.00  0.00    +0.000 A 
ATOM     17  N   UNL     1       4.679   7.069  18.386  0.00  0.00    +0.000 NA
ATOM     18  C   UNL     1       5.350   6.394  17.346  0.00  0.00    +0.000 A 
ATOM     19  C   UNL     1       6.668   6.602  16.887  0.00  0.00    +0.000 A 
ATOM     20  C   UNL     1       7.617   7.610  17.453  0.00  0.00    +0.000 C 
ATOM     21  N   UNL     1       7.144   5.847  15.847  0.00  0.00    +0.000 NA
ENDBRANCH   1  16
BRANCH   2  22
ATOM     22  N   UNL     1       2.279   5.507  21.167  0.00  0.00    +0.000 N 
ATOM     23  C   UNL     1       1.498   4.370  20.958  0.00  0.00    +0.000 C 
ATOM     24  O   UNL     1       0.584   4.292  20.136  0.00  0.00    +0.000 OA
ATOM     25  H   UNL     1       3.258   5.377  21.409  0.00  0.00    +0.000 HD
BRANCH  23  26
ATOM     26  C   UNL     1       1.859   3.173  21.838  0.00  0.00    +0.000 C 
BRANCH  26  27
ATOM     27  C   UNL     1       3.092   2.457  21.244  0.00  0.00    +0.000 C 
BRANCH  27  28
ATOM     28  N   UNL     1       3.411   2.828  19.851  0.00  0.00    +0.000 NA
ATOM     29  H   UNL     1       4.418   2.982  19.774  0.00  0.00    +0.000 HD
BRANCH  28  30
ATOM     30  C   UNL     1       3.034   1.755  18.899  0.00  0.00    +0.000 C 
ATOM     31  C   UNL     1       1.618   1.920  18.337  0.00  0.00    +0.000 C 
ATOM     32  C   UNL     1       4.020   1.724  17.725  0.00  0.00    +0.000 C 
ENDBRANCH  28  30
ENDBRANCH  27  28
ENDBRANCH  26  27
ENDBRANCH  23  26
ENDBRANCH   2  22
TORSDOF 6
ENDMDL
MODEL 3
REMARK VINA RESULT:      -8.3      1.395      1.398
REMARK  Name = 
REMARK  10 active torsions:
REMARK  status: ('A' for Active; 'I' for Inactive)
REMARK    1  A    between atoms: C_1  and  C_2
REMARK    2  A    between atoms: C_6  and  C_7
REMARK    3  A    between atoms: C_8  and  N_9
REMARK    4  A    between atoms: C_10  and  C_12
REMARK    5  A    between atoms: C_12  and  C_13
REMARK    6  A    between atoms: C_13  and  N_14
REMARK    7  A    between atoms: N_14  and  C_15
REMARK    8  A    between atoms: C_15  and  C_16
REMARK    9  A    between atoms: C_15  and  C_17
REMARK   10  A    between atoms: C_27  and  C_28
REMARK                            x       y       z     vdW  Elec       q    Type
REMARK                         _______ _______ _______ _____ _____    ______ ____
ROOT
ATOM      1  C   UNL     1       3.329   5.602  17.873  0.00  0.00    +0.000 A 
ATOM      2  C   UNL     1       4.544   5.438  17.215  0.00  0.00    +0.000 A 
ATOM      3  S   UNL     1       4.950   3.785  17.027  0.00  0.00    +0.000 S 
ATOM      4  C   UNL     1       3.517   3.271  17.756  0.00  0.00    +0.000 A 
ATOM      5  C   UNL     1       2.661   4.317  18.055  0.00  0.00    +0.000 A 
ATOM      6  C   UNL     1       1.292   3.991  18.610  0.00  0.00    +0.000 C 
ATOM      7  C   UNL     1       1.025   2.467  18.698  0.00  0.00    +0.000 C 
ATOM      8  N   UNL     1       2.213   1.684  19.075  0.00  0.00    +0.000 NA
ATOM      9  C   UNL     1       3.244   1.821  18.028  0.00  0.00    +0.000 C 
ATOM     10  H   UNL     1       2.598   2.067  19.940  0.00  0.00    +0.000 HD
ENDROOT
BRANCH   1  16
ATOM     11  C   UNL     1       0.198  12.448  19.405  0.00  0.00    +0.000 C 
ATOM     12  C   UNL     1       0.748  11.050  19.424  0.00  0.00    +0.000 A 
ATOM     13  C   UNL     1       1.457  10.558  18.338  0.00  0.00    +0.000 A 
ATOM     14  C   UNL     1       1.929   9.250  18.453  0.00  0.00    +0.000 A 
ATOM     15  S   UNL     1       2.819   8.350  17.304  0.00  0.00    +0.000 S 
ATOM     16  C   UNL     1       2.808   6.964  18.322  0.00  0.00    +0.000 A 
ATOM     17  N   UNL     1       2.260   7.169  19.509  0.00  0.00    +0.000 NA
ATOM     18  C   UNL     1       1.717   8.467  19.588  0.00  0.00    +0.000 A 
ATOM     19  C   UNL     1       0.988   9.038  20.652  0.00  0.00    +0.000 A 
ATOM     20  C   UNL     1       0.660   8.337  21.931  0.00  0.00    +0.000 C 
ATOM     21  N   UNL     1       0.528  10.324  20.538  0.00  0.00    +0.000 NA
ENDBRANCH   1  16
BRANCH   2  22
ATOM     22  N   UNL     1       5.502   6.375  16.815  0.00  0.00    +0.000 N 
ATOM     23  C   UNL     1       6.621   6.649  17.603  0.00  0.00    +0.000 C 
ATOM     24  O   UNL     1       6.949   6.005  18.600  0.00  0.00    +0.000 OA
ATOM     25  H   UNL     1       5.570   6.541  15.815  0.00  0.00    +0.000 HD
BRANCH  23  26
ATOM     26  C   UNL     1       7.458   7.841  17.135  0.00  0.00    +0.000 C 
BRANCH  26  27
ATOM     27  C   UNL     1       8.237   8.419  18.335  0.00  0.00    +0.000 C 
BRANCH  27  28
ATOM     28  N   UNL     1       8.355   9.891  18.346  0.00  0.00    +0.000 NA
ATOM     29  H   UNL     1       7.589  10.278  18.900  0.00  0.00    +0.000 HD
BRANCH  28  30
ATOM     30  C   UNL     1       9.634  10.334  18.953  0.00  0.00    +0.000 C 
ATOM     31  C   UNL     1      10.375  11.373  18.104  0.00  0.00    +0.000 C 
ATOM     32  C   UNL     1       9.377  10.936  20.340  0.00  0.00    +0.000 C 
ENDBRANCH  28  30
ENDBRANCH  27  28
ENDBRANCH  26  27
ENDBRANCH  23  26
ENDBRANCH   2  22
TORSDOF 6
ENDMDL
MODEL 4
REMARK VINA RESULT:      -8.2      1.744      2.815
REMARK  Name = 
REMARK  10 active torsions:
REMARK  status: ('A' for Active; 'I' for Inactive)
REMARK    1  A    between atoms: C_1  and  C_2
REMARK    2  A    between atoms: C_6  and  C_7
REMARK    3  A    between atoms: C_8  and  N_9
REMARK    4  A    between atoms: C_10  and  C_12
REMARK    5  A    between atoms: C_12  and  C_13
REMARK    6  A    between atoms: C_13  and  N_14
REMARK    7  A    between atoms: N_14  and  C_15
REMARK    8  A    between atoms: C_15  and  C_16
REMARK    9  A    between atoms: C_15  and  C_17
REMARK   10  A    between atoms: C_27  and  C_28
REMARK                            x       y       z     vdW  Elec       q    Type
REMARK                         _______ _______ _______ _____ _____    ______ ____
ROOT
ATOM      1  C   UNL     1       3.149   5.516  19.443  0.00  0.00    +0.000 A 
ATOM      2  C   UNL     1       4.375   5.172  18.881  0.00  0.00    +0.000 A 
ATOM      3  S   UNL     1       4.823   3.564  19.260  0.00  0.00    +0.000 S 
ATOM      4  C   UNL     1       3.396   3.287  20.117  0.00  0.00    +0.000 A 
ATOM      5  C   UNL     1       2.511   4.349  20.046  0.00  0.00    +0.000 A 
ATOM      6  C   UNL     1       1.144   4.192  20.676  0.00  0.00    +0.000 C 
ATOM      7  C   UNL     1       0.914   2.780  21.271  0.00  0.00    +0.000 C 
ATOM      8  N   UNL     1       2.118   2.202  21.891  0.00  0.00    +0.000 NA
ATOM      9  C   UNL     1       3.156   2.006  20.861  0.00  0.00    +0.000 C 
ATOM     10  H   UNL     1       2.484   2.864  22.578  0.00  0.00    +0.000 HD
ENDROOT
BRANCH   1  16
ATOM     11  C   UNL     1      -0.182  12.385  18.594  0.00  0.00    +0.000 C 
ATOM     12  C   UNL     1       0.413  11.095  19.080  0.00  0.00    +0.000 A 
ATOM     13  C   UNL     1       1.122  10.276  18.215  0.00  0.00    +0.000 A 
ATOM     14  C   UNL     1       1.638   9.101  18.762  0.00  0.00    +0.000 A 
ATOM     15  S   UNL     1       2.541   7.883  17.973  0.00  0.00    +0.000 S 
ATOM     16  C   UNL     1       2.590   6.934  19.407  0.00  0.00    +0.000 A 
ATOM     17  N   UNL     1       2.052   7.523  20.463  0.00  0.00    +0.000 NA
ATOM     18  C   UNL     1       1.468   8.754  20.103  0.00  0.00    +0.000 A 
ATOM     19  C   UNL     1       0.737   9.639  20.922  0.00  0.00    +0.000 A 
ATOM     20  C   UNL     1       0.450   9.415  22.372  0.00  0.00    +0.000 C 
ATOM     21  N   UNL     1       0.233  10.794  20.382  0.00  0.00    +0.000 NA
ENDBRANCH   1  16
BRANCH   2  22
ATOM     22  N   UNL     1       5.314   5.945  18.191  0.00  0.00    +0.000 N 
ATOM     23  C   UNL     1       6.596   6.154  18.700  0.00  0.00    +0.000 C 
ATOM     24  O   UNL     1       7.063   5.570  19.678  0.00  0.00    +0.000 OA
ATOM     25  H   UNL     1       5.183   6.009  17.185  0.00  0.00    +0.000 HD
BRANCH  23  26
ATOM     26  C   UNL     1       7.428   7.187  17.938  0.00  0.00    +0.000 C 
BRANCH  26  27
ATOM     27  C   UNL     1       7.327   6.907  16.424  0.00  0.00    +0.000 C 
BRANCH  27  28
ATOM     28  N   UNL     1       7.512   5.492  16.043  0.00  0.00    +0.000 NA
ATOM     29  H   UNL     1       7.338   4.906  16.861  0.00  0.00    +0.000 HD
BRANCH  28  30
ATOM     30  C   UNL     1       6.569   5.085  14.974  0.00  0.00    +0.000 C 
ATOM     31  C   UNL     1       7.242   4.925  13.606  0.00  0.00    +0.000 C 
ATOM     32  C   UNL     1       5.898   3.756  15.342  0.00  0.00    +0.000 C 
ENDBRANCH  28  30
ENDBRANCH  27  28
ENDBRANCH  26  27
ENDBRANCH  23  26
ENDBRANCH   2  22
TORSDOF 6
ENDMDL
MODEL 5
REMARK VINA RESULT:      -8.1      2.798      3.839
REMARK  Name = 
REMARK  10 active torsions:
REMARK  status: ('A' for Active; 'I' for Inactive)
REMARK    1  A    between atoms: C_1  and  C_2
REMARK    2  A    between atoms: C_6  and  C_7
REMARK    3  A    between atoms: C_8  and  N_9
REMARK    4  A    between atoms: C_10  and  C_12
REMARK    5  A    between atoms: C_12  and  C_13
REMARK    6  A    between atoms: C_13  and  N_14
REMARK    7  A    between atoms: N_14  and  C_15
REMARK    8  A    between atoms: C_15  and  C_16
REMARK    9  A    between atoms: C_15  and  C_17
REMARK   10  A    between atoms: C_27  and  C_28
REMARK                            x       y       z     vdW  Elec       q    Type
REMARK                         _______ _______ _______ _____ _____    ______ ____
ROOT
ATOM      1  C   UNL     1       3.104   5.433  19.215  0.00  0.00    +0.000 A 
ATOM      2  C   UNL     1       4.151   5.016  18.398  0.00  0.00    +0.000 A 
ATOM      3  S   UNL     1       4.666   3.428  18.779  0.00  0.00    +0.000 S 
ATOM      4  C   UNL     1       3.491   3.253  19.979  0.00  0.00    +0.000 A 
ATOM      5  C   UNL     1       2.625   4.330  20.044  0.00  0.00    +0.000 A 
ATOM      6  C   UNL     1       1.455   4.257  21.001  0.00  0.00    +0.000 C 
ATOM      7  C   UNL     1       1.367   2.899  21.742  0.00  0.00    +0.000 C 
ATOM      8  N   UNL     1       2.681   2.335  22.090  0.00  0.00    +0.000 NA
ATOM      9  C   UNL     1       3.432   2.037  20.855  0.00  0.00    +0.000 C 
ATOM     10  H   UNL     1       3.211   3.035  22.613  0.00  0.00    +0.000 HD
ENDROOT
BRANCH   1  16
ATOM     11  C   UNL     1      -0.145  12.358  18.519  0.00  0.00    +0.000 C 
ATOM     12  C   UNL     1       0.443  11.054  18.977  0.00  0.00    +0.000 A 
ATOM     13  C   UNL     1       1.120  10.235  18.086  0.00  0.00    +0.000 A 
ATOM     14  C   UNL     1       1.631   9.047  18.608  0.00  0.00    +0.000 A 
ATOM     15  S   UNL     1       2.498   7.825  17.786  0.00  0.00    +0.000 S 
ATOM     16  C   UNL     1       2.566   6.860  19.208  0.00  0.00    +0.000 A 
ATOM     17  N   UNL     1       2.060   7.443  20.282  0.00  0.00    +0.000 NA
ATOM     18  C   UNL     1       1.486   8.687  19.949  0.00  0.00    +0.000 A 
ATOM     19  C   UNL     1       0.786   9.573  20.794  0.00  0.00    +0.000 A 
ATOM     20  C   UNL     1       0.527   9.336  22.247  0.00  0.00    +0.000 C 
ATOM     21  N   UNL     1       0.287  10.741  20.279  0.00  0.00    +0.000 NA
ENDBRANCH   1  16
BRANCH   2  22
ATOM     22  N   UNL     1       4.897   5.711  17.441  0.00  0.00    +0.000 N 
ATOM     23  C   UNL     1       5.034   5.229  16.138  0.00  0.00    +0.000 C 
ATOM     24  O   UNL     1       4.405   4.277  15.675  0.00  0.00    +0.000 OA
ATOM     25  H   UNL     1       4.992   6.711  17.593  0.00  0.00    +0.000 HD
BRANCH  23  26
ATOM     26  C   UNL     1       6.047   5.987  15.278  0.00  0.00    +0.000 C 
BRANCH  26  27
ATOM     27  C   UNL     1       6.997   4.976  14.601  0.00  0.00    +0.000 C 
BRANCH  27  28
ATOM     28  N   UNL     1       6.360   3.710  14.187  0.00  0.00    +0.000 NA
ATOM     29  H   UNL     1       5.370   3.743  14.435  0.00  0.00    +0.000 HD
BRANCH  28  30
ATOM     30  C   UNL     1       6.461   3.499  12.722  0.00  0.00    +0.000 C 
ATOM     31  C   UNL     1       5.095   3.426  12.030  0.00  0.00    +0.000 C 
ATOM     32  C   UNL     1       7.269   4.634  12.082  0.00  0.00    +0.000 C 
ENDBRANCH  28  30
ENDBRANCH  27  28
ENDBRANCH  26  27
ENDBRANCH  23  26
ENDBRANCH   2  22
TORSDOF 6
ENDMDL
MODEL 6
REMARK VINA RESULT:      -7.9      3.268      5.885
REMARK  Name = 
REMARK  10 active torsions:
REMARK  status: ('A' for Active; 'I' for Inactive)
REMARK    1  A    between atoms: C_1  and  C_2
REMARK    2  A    between atoms: C_6  and  C_7
REMARK    3  A    between atoms: C_8  and  N_9
REMARK    4  A    between atoms: C_10  and  C_12
REMARK    5  A    between atoms: C_12  and  C_13
REMARK    6  A    between atoms: C_13  and  N_14
REMARK    7  A    between atoms: N_14  and  C_15
REMARK    8  A    between atoms: C_15  and  C_16
REMARK    9  A    between atoms: C_15  and  C_17
REMARK   10  A    between atoms: C_27  and  C_28
REMARK                            x       y       z     vdW  Elec       q    Type
REMARK                         _______ _______ _______ _____ _____    ______ ____
ROOT
ATOM      1  C   UNL     1       5.720   4.528  15.600  0.00  0.00    +0.000 A 
ATOM      2  C   UNL     1       6.935   5.172  15.819  0.00  0.00    +0.000 A 
ATOM      3  S   UNL     1       7.940   5.128  14.434  0.00  0.00    +0.000 S 
ATOM      4  C   UNL     1       6.776   4.314  13.521  0.00  0.00    +0.000 A 
ATOM      5  C   UNL     1       5.579   4.156  14.195  0.00  0.00    +0.000 A 
ATOM      6  C   UNL     1       4.410   3.542  13.455  0.00  0.00    +0.000 C 
ATOM      7  C   UNL     1       4.733   3.233  11.971  0.00  0.00    +0.000 C 
ATOM      8  N   UNL     1       6.112   2.764  11.756  0.00  0.00    +0.000 NA
ATOM      9  C   UNL     1       7.058   3.834  12.128  0.00  0.00    +0.000 C 
ATOM     10  H   UNL     1       6.287   1.968  12.372  0.00  0.00    +0.000 HD
ENDROOT
BRANCH   1  16
ATOM     11  C   UNL     1       1.261   2.776  21.604  0.00  0.00    +0.000 C 
ATOM     12  C   UNL     1       2.011   3.421  20.474  0.00  0.00    +0.000 A 
ATOM     13  C   UNL     1       2.715   2.648  19.563  0.00  0.00    +0.000 A 
ATOM     14  C   UNL     1       3.377   3.340  18.549  0.00  0.00    +0.000 A 
ATOM     15  S   UNL     1       4.332   2.696  17.287  0.00  0.00    +0.000 S 
ATOM     16  C   UNL     1       4.708   4.272  16.711  0.00  0.00    +0.000 A 
ATOM     17  N   UNL     1       4.082   5.245  17.353  0.00  0.00    +0.000 NA
ATOM     18  C   UNL     1       3.341   4.731  18.436  0.00  0.00    +0.000 A 
ATOM     19  C   UNL     1       2.602   5.449  19.399  0.00  0.00    +0.000 A 
ATOM     20  C   UNL     1       2.470   6.937  19.434  0.00  0.00    +0.000 C 
ATOM     21  N   UNL     1       1.950   4.765  20.393  0.00  0.00    +0.000 NA
ENDBRANCH   1  16
BRANCH   2  22
ATOM     22  N   UNL     1       7.486   5.715  16.984  0.00  0.00    +0.000 N 
ATOM     23  C   UNL     1       7.317   7.062  17.307  0.00  0.00    +0.000 C 
ATOM     24  O   UNL     1       6.562   7.833  16.715  0.00  0.00    +0.000 OA
ATOM     25  H   UNL     1       7.655   5.059  17.742  0.00  0.00    +0.000 HD
BRANCH  23  26
ATOM     26  C   UNL     1       8.152   7.546  18.494  0.00  0.00    +0.000 C 
BRANCH  26  27
ATOM     27  C   UNL     1       8.524   9.029  18.284  0.00  0.00    +0.000 C 
BRANCH  27  28
ATOM     28  N   UNL     1       9.216   9.661  19.425  0.00  0.00    +0.000 NA
ATOM     29  H   UNL     1       9.963   9.041  19.741  0.00  0.00    +0.000 HD
BRANCH  28  30
ATOM     30  C   UNL     1       9.823  10.960  19.046  0.00  0.00    +0.000 C 
ATOM     31  C   UNL     1       8.998  11.730  18.009  0.00  0.00    +0.000 C 
ATOM     32  C   UNL     1       9.990  11.845  20.287  0.00  0.00    +0.000 C 
ENDBRANCH  28  30
ENDBRANCH  27  28
ENDBRANCH  26  27
ENDBRANCH  23  26
ENDBRANCH   2  22
TORSDOF 6
ENDMDL
MODEL 7
REMARK VINA RESULT:      -7.9      2.432      7.444
REMARK  Name = 
REMARK  10 active torsions:
REMARK  status: ('A' for Active; 'I' for Inactive)
REMARK    1  A    between atoms: C_1  and  C_2
REMARK    2  A    between atoms: C_6  and  C_7
REMARK    3  A    between atoms: C_8  and  N_9
REMARK    4  A    between atoms: C_10  and  C_12
REMARK    5  A    between atoms: C_12  and  C_13
REMARK    6  A    between atoms: C_13  and  N_14
REMARK    7  A    between atoms: N_14  and  C_15
REMARK    8  A    between atoms: C_15  and  C_16
REMARK    9  A    between atoms: C_15  and  C_17
REMARK   10  A    between atoms: C_27  and  C_28
REMARK                            x       y       z     vdW  Elec       q    Type
REMARK                         _______ _______ _______ _____ _____    ______ ____
ROOT
ATOM      1  C   UNL     1       2.377   7.379  19.347  0.00  0.00    +0.000 A 
ATOM      2  C   UNL     1       1.927   6.794  20.527  0.00  0.00    +0.000 A 
ATOM      3  S   UNL     1       0.943   7.861  21.436  0.00  0.00    +0.000 S 
ATOM      4  C   UNL     1       1.054   9.077  20.270  0.00  0.00    +0.000 A 
ATOM      5  C   UNL     1       1.734   8.673  19.135  0.00  0.00    +0.000 A 
ATOM      6  C   UNL     1       1.812   9.628  17.963  0.00  0.00    +0.000 C 
ATOM      7  C   UNL     1       1.025  10.941  18.203  0.00  0.00    +0.000 C 
ATOM      8  N   UNL     1       1.096  11.422  19.592  0.00  0.00    +0.000 NA
ATOM      9  C   UNL     1       0.458  10.437  20.487  0.00  0.00    +0.000 C 
ATOM     10  H   UNL     1       2.078  11.496  19.864  0.00  0.00    +0.000 HD
ENDROOT
BRANCH   1  16
ATOM     11  C   UNL     1       6.980   4.212  14.077  0.00  0.00    +0.000 C 
ATOM     12  C   UNL     1       6.357   4.977  15.209  0.00  0.00    +0.000 A 
ATOM     13  C   UNL     1       5.049   4.725  15.594  0.00  0.00    +0.000 A 
ATOM     14  C   UNL     1       4.563   5.485  16.658  0.00  0.00    +0.000 A 
ATOM     15  S   UNL     1       3.007   5.430  17.364  0.00  0.00    +0.000 S 
ATOM     16  C   UNL     1       3.402   6.717  18.434  0.00  0.00    +0.000 A 
ATOM     17  N   UNL     1       4.661   7.119  18.355  0.00  0.00    +0.000 NA
ATOM     18  C   UNL     1       5.333   6.446  17.314  0.00  0.00    +0.000 A 
ATOM     19  C   UNL     1       6.656   6.644  16.866  0.00  0.00    +0.000 A 
ATOM     20  C   UNL     1       7.610   7.639  17.446  0.00  0.00    +0.000 C 
ATOM     21  N   UNL     1       7.132   5.894  15.823  0.00  0.00    +0.000 NA
ENDBRANCH   1  16
BRANCH   2  22
ATOM     22  N   UNL     1       2.245   5.568  21.119  0.00  0.00    +0.000 N 
ATOM     23  C   UNL     1       1.479   4.426  20.878  0.00  0.00    +0.000 C 
ATOM     24  O   UNL     1       0.589   4.347  20.031  0.00  0.00    +0.000 OA
ATOM     25  H   UNL     1       3.217   5.443  21.387  0.00  0.00    +0.000 HD
BRANCH  23  26
ATOM     26  C   UNL     1       1.825   3.224  21.759  0.00  0.00    +0.000 C 
BRANCH  26  27
ATOM     27  C   UNL     1       2.408   2.098  20.878  0.00  0.00    +0.000 C 
BRANCH  27  28
ATOM     28  N   UNL     1       2.946   2.546  19.577  0.00  0.00    +0.000 NA
ATOM     29  H   UNL     1       2.730   3.537  19.456  0.00  0.00    +0.000 HD
BRANCH  28  30
ATOM     30  C   UNL     1       4.418   2.382  19.508  0.00  0.00    +0.000 C 
ATOM     31  C   UNL     1       5.176   3.711  19.612  0.00  0.00    +0.000 C 
ATOM     32  C   UNL     1       4.898   1.461  20.636  0.00  0.00    +0.000 C 
ENDBRANCH  28  30
ENDBRANCH  27  28
ENDBRANCH  26  27
ENDBRANCH  23  26
ENDBRANCH   2  22
TORSDOF 6
ENDMDL
MODEL 8
REMARK VINA RESULT:      -7.8      3.363      5.929
REMARK  Name = 
REMARK  10 active torsions:
REMARK  status: ('A' for Active; 'I' for Inactive)
REMARK    1  A    between atoms: C_1  and  C_2
REMARK    2  A    between atoms: C_6  and  C_7
REMARK    3  A    between atoms: C_8  and  N_9
REMARK    4  A    between atoms: C_10  and  C_12
REMARK    5  A    between atoms: C_12  and  C_13
REMARK    6  A    between atoms: C_13  and  N_14
REMARK    7  A    between atoms: N_14  and  C_15
REMARK    8  A    between atoms: C_15  and  C_16
REMARK    9  A    between atoms: C_15  and  C_17
REMARK   10  A    between atoms: C_27  and  C_28
REMARK                            x       y       z     vdW  Elec       q    Type
REMARK                         _______ _______ _______ _____ _____    ______ ____
ROOT
ATOM      1  C   UNL     1       5.711   4.709  15.276  0.00  0.00    +0.000 A 
ATOM      2  C   UNL     1       6.830   5.522  15.440  0.00  0.00    +0.000 A 
ATOM      3  S   UNL     1       7.887   5.432  14.097  0.00  0.00    +0.000 S 
ATOM      4  C   UNL     1       6.867   4.373  13.268  0.00  0.00    +0.000 A 
ATOM      5  C   UNL     1       5.671   4.151  13.927  0.00  0.00    +0.000 A 
ATOM      6  C   UNL     1       4.616   3.309  13.244  0.00  0.00    +0.000 C 
ATOM      7  C   UNL     1       5.032   2.862  11.820  0.00  0.00    +0.000 C 
ATOM      8  N   UNL     1       6.465   2.546  11.699  0.00  0.00    +0.000 NA
ATOM      9  C   UNL     1       7.260   3.763  11.954  0.00  0.00    +0.000 C 
ATOM     10  H   UNL     1       6.711   1.860  12.415  0.00  0.00    +0.000 HD
ENDROOT
BRANCH   1  16
ATOM     11  C   UNL     1       1.224   3.034  21.281  0.00  0.00    +0.000 C 
ATOM     12  C   UNL     1       1.981   3.665  20.148  0.00  0.00    +0.000 A 
ATOM     13  C   UNL     1       2.684   2.880  19.247  0.00  0.00    +0.000 A 
ATOM     14  C   UNL     1       3.353   3.560  18.229  0.00  0.00    +0.000 A 
ATOM     15  S   UNL     1       4.309   2.899  16.976  0.00  0.00    +0.000 S 
ATOM     16  C   UNL     1       4.694   4.468  16.386  0.00  0.00    +0.000 A 
ATOM     17  N   UNL     1       4.070   5.450  17.016  0.00  0.00    +0.000 NA
ATOM     18  C   UNL     1       3.323   4.949  18.101  0.00  0.00    +0.000 A 
ATOM     19  C   UNL     1       2.584   5.679  19.055  0.00  0.00    +0.000 A 
ATOM     20  C   UNL     1       2.458   7.169  19.075  0.00  0.00    +0.000 C 
ATOM     21  N   UNL     1       1.926   5.009  20.053  0.00  0.00    +0.000 NA
ENDBRANCH   1  16
BRANCH   2  22
ATOM     22  N   UNL     1       7.265   6.269  16.539  0.00  0.00    +0.000 N 
ATOM     23  C   UNL     1       7.664   5.649  17.724  0.00  0.00    +0.000 C 
ATOM     24  O   UNL     1       7.827   4.436  17.859  0.00  0.00    +0.000 OA
ATOM     25  H   UNL     1       7.643   7.188  16.330  0.00  0.00    +0.000 HD
BRANCH  23  26
ATOM     26  C   UNL     1       7.908   6.603  18.895  0.00  0.00    +0.000 C 
BRANCH  26  27
ATOM     27  C   UNL     1       8.173   8.023  18.350  0.00  0.00    +0.000 C 
BRANCH  27  28
ATOM     28  N   UNL     1       9.196   8.789  19.089  0.00  0.00    +0.000 NA
ATOM     29  H   UNL     1      10.102   8.647  18.638  0.00  0.00    +0.000 HD
BRANCH  28  30
ATOM     30  C   UNL     1       8.901  10.242  19.086  0.00  0.00    +0.000 C 
ATOM     31  C   UNL     1       9.298  10.939  20.393  0.00  0.00    +0.000 C 
ATOM     32  C   UNL     1       9.637  10.926  17.929  0.00  0.00    +0.000 C 
ENDBRANCH  28  30
ENDBRANCH  27  28
ENDBRANCH  26  27
ENDBRANCH  23  26
ENDBRANCH   2  22
TORSDOF 6
ENDMDL
MODEL 9
REMARK VINA RESULT:      -7.8      2.353      3.234
REMARK  Name = 
REMARK  10 active torsions:
REMARK  status: ('A' for Active; 'I' for Inactive)
REMARK    1  A    between atoms: C_1  and  C_2
REMARK    2  A    between atoms: C_6  and  C_7
REMARK    3  A    between atoms: C_8  and  N_9
REMARK    4  A    between atoms: C_10  and  C_12
REMARK    5  A    between atoms: C_12  and  C_13
REMARK    6  A    between atoms: C_13  and  N_14
REMARK    7  A    between atoms: N_14  and  C_15
REMARK    8  A    between atoms: C_15  and  C_16
REMARK    9  A    between atoms: C_15  and  C_17
REMARK   10  A    between atoms: C_27  and  C_28
REMARK                            x       y       z     vdW  Elec       q    Type
REMARK                         _______ _______ _______ _____ _____    ______ ____
ROOT
ATOM      1  C   UNL     1       3.038   5.655  19.528  0.00  0.00    +0.000 A 
ATOM      2  C   UNL     1       4.227   5.367  18.863  0.00  0.00    +0.000 A 
ATOM      3  S   UNL     1       4.796   3.793  19.223  0.00  0.00    +0.000 S 
ATOM      4  C   UNL     1       3.468   3.456  20.210  0.00  0.00    +0.000 A 
ATOM      5  C   UNL     1       2.523   4.467  20.203  0.00  0.00    +0.000 A 
ATOM      6  C   UNL     1       1.229   4.249  20.956  0.00  0.00    +0.000 C 
ATOM      7  C   UNL     1       1.132   2.838  21.590  0.00  0.00    +0.000 C 
ATOM      8  N   UNL     1       2.416   2.338  22.108  0.00  0.00    +0.000 NA
ATOM      9  C   UNL     1       3.367   2.179  20.991  0.00  0.00    +0.000 C 
ATOM     10  H   UNL     1       2.804   3.032  22.749  0.00  0.00    +0.000 HD
ENDROOT
BRANCH   1  16
ATOM     11  C   UNL     1      -0.674  12.343  18.823  0.00  0.00    +0.000 C 
ATOM     12  C   UNL     1      -0.007  11.077  19.282  0.00  0.00    +0.000 A 
ATOM     13  C   UNL     1       0.749  10.320  18.400  0.00  0.00    +0.000 A 
ATOM     14  C   UNL     1       1.329   9.164  18.922  0.00  0.00    +0.000 A 
ATOM     15  S   UNL     1       2.300   8.016  18.110  0.00  0.00    +0.000 S 
ATOM     16  C   UNL     1       2.401   7.040  19.522  0.00  0.00    +0.000 A 
ATOM     17  N   UNL     1       1.829   7.573  20.589  0.00  0.00    +0.000 NA
ATOM     18  C   UNL     1       1.177   8.777  20.255  0.00  0.00    +0.000 A 
ATOM     19  C   UNL     1       0.395   9.602  21.091  0.00  0.00    +0.000 A 
ATOM     20  C   UNL     1       0.118   9.329  22.535  0.00  0.00    +0.000 C 
ATOM     21  N   UNL     1      -0.172  10.738  20.576  0.00  0.00    +0.000 NA
ENDBRANCH   1  16
BRANCH   2  22
ATOM     22  N   UNL     1       5.055   6.176  18.080  0.00  0.00    +0.000 N 
ATOM     23  C   UNL     1       5.205   5.951  16.710  0.00  0.00    +0.000 C 
ATOM     24  O   UNL     1       4.525   5.161  16.054  0.00  0.00    +0.000 OA
ATOM     25  H   UNL     1       5.217   7.116  18.430  0.00  0.00    +0.000 HD
BRANCH  23  26
ATOM     26  C   UNL     1       6.301   6.781  16.040  0.00  0.00    +0.000 C 
BRANCH  26  27
ATOM     27  C   UNL     1       7.544   5.895  15.812  0.00  0.00    +0.000 C 
BRANCH  27  28
ATOM     28  N   UNL     1       7.281   4.636  15.085  0.00  0.00    +0.000 NA
ATOM     29  H   UNL     1       6.518   4.141  15.551  0.00  0.00    +0.000 HD
BRANCH  28  30
ATOM     30  C   UNL     1       6.878   4.888  13.680  0.00  0.00    +0.000 C 
ATOM     31  C   UNL     1       8.047   5.323  12.789  0.00  0.00    +0.000 C 
ATOM     32  C   UNL     1       6.253   3.625  13.077  0.00  0.00    +0.000 C 
ENDBRANCH  28  30
ENDBRANCH  27  28
ENDBRANCH  26  27
ENDBRANCH  23  26
ENDBRANCH   2  22
TORSDOF 6
ENDMDL
