MODEL 1
REMARK VINA RESULT:      -7.2      0.000      0.000
REMARK  Name = 
REMARK  7 active torsions:
REMARK  status: ('A' for Active; 'I' for Inactive)
REMARK    1  A    between atoms: C_1  and  O_2
REMARK    2  A    between atoms: O_2  and  C_3
REMARK    3  A    between atoms: C_6  and  S_7
REMARK    4  A    between atoms: S_7  and  N_10
REMARK    5  A    between atoms: N_10  and  C_11
REMARK    6  A    between atoms: C_11  and  C_12
REMARK    7  A    between atoms: N_14  and  O_15
REMARK                            x       y       z     vdW  Elec       q    Type
REMARK                         _______ _______ _______ _____ _____    ______ ____
ROOT
ATOM      1  S   UNL     1       5.400   5.300  15.924  0.00  0.00    +0.000 S 
ATOM      2  O   UNL     1       5.364   4.366  14.823  0.00  0.00    +0.000 OA
ATOM      3  O   UNL     1       5.452   6.729  15.719  0.00  0.00    +0.000 OA
ENDROOT
BRANCH   1   7
ATOM      4  C   UNL     1       1.974   4.292  18.773  0.00  0.00    +0.000 A 
ATOM      5  C   UNL     1       2.516   3.306  17.940  0.00  0.00    +0.000 A 
ATOM      6  C   UNL     1       3.546   3.610  17.046  0.00  0.00    +0.000 A 
ATOM      7  C   UNL     1       4.037   4.916  16.985  0.00  0.00    +0.000 A 
ATOM      8  C   UNL     1       3.515   5.911  17.810  0.00  0.00    +0.000 A 
ATOM      9  C   UNL     1       2.485   5.592  18.696  0.00  0.00    +0.000 A 
ATOM     10  F   UNL     1       2.012   6.579  19.472  0.00  0.00    +0.000 F 
BRANCH   4  12
ATOM     11  C   UNL     1       1.328   3.552  20.943  0.00  0.00    +0.000 C 
ATOM     12  O   UNL     1       0.979   3.839  19.595  0.00  0.00    +0.000 OA
ENDBRANCH   4  12
ENDBRANCH   1   7
BRANCH   1  13
ATOM     13  N   UNL     1       6.741   4.862  16.854  0.00  0.00    +0.000 NA
ATOM     14  H   UNL     1       7.424   4.400  16.247  0.00  0.00    +0.000 HD
BRANCH  13  15
ATOM     15  C   UNL     1       7.285   5.904  17.750  0.00  0.00    +0.000 C 
BRANCH  15  16
ATOM     16  C   UNL     1       7.211   5.482  19.208  0.00  0.00    +0.000 C 
ATOM     17  O   UNL     1       6.181   5.076  19.742  0.00  0.00    +0.000 OA
ATOM     18  N   UNL     1       8.397   5.562  19.896  0.00  0.00    +0.000 N 
ATOM     19  H   UNL     1       9.296   5.675  19.437  0.00  0.00    +0.000 HD
BRANCH  18  20
ATOM     20  O   UNL     1       8.391   5.104  21.231  0.00  0.00    +0.000 OA
ATOM     21  H   UNL     1       8.411   4.128  21.123  0.00  0.00    +0.000 HD
ENDBRANCH  18  20
ENDBRANCH  15  16
ENDBRANCH  13  15
ENDBRANCH   1  13
TORSDOF 6
ENDMDL
MODEL 2
REMARK VINA RESULT:      -7.2      1.530      1.893
REMARK  Name = 
REMARK  7 active torsions:
REMARK  status: ('A' for Active; 'I' for Inactive)
REMARK    1  A    between atoms: C_1  and  O_2
REMARK    2  A    between atoms: O_2  and  C_3
REMARK    3  A    between atoms: C_6  and  S_7
REMARK    4  A    between atoms: S_7  and  N_10
REMARK    5  A    between atoms: N_10  and  C_11
REMARK    6  A    between atoms: C_11  and  C_12
REMARK    7  A    between atoms: N_14  and  O_15
REMARK                            x       y       z     vdW  Elec       q    Type
REMARK                         _______ _______ _______ _____ _____    ______ ____
ROOT
ATOM      1  S   UNL     1       6.053   5.041  15.768  0.00  0.00    +0.000 S 
ATOM      2  O   UNL     1       6.303   3.933  14.876  0.00  0.00    +0.000 OA
ATOM      3  O   UNL     1       5.813   6.380  15.284  0.00  0.00    +0.000 OA
ENDROOT
BRANCH   1   7
ATOM      4  C   UNL     1       2.555   3.777  18.420  0.00  0.00    +0.000 A 
ATOM      5  C   UNL     1       2.737   5.123  18.081  0.00  0.00    +0.000 A 
ATOM      6  C   UNL     1       3.818   5.524  17.293  0.00  0.00    +0.000 A 
ATOM      7  C   UNL     1       4.728   4.565  16.840  0.00  0.00    +0.000 A 
ATOM      8  C   UNL     1       4.561   3.219  17.162  0.00  0.00    +0.000 A 
ATOM      9  C   UNL     1       3.478   2.836  17.952  0.00  0.00    +0.000 A 
ATOM     10  F   UNL     1       3.354   1.531  18.237  0.00  0.00    +0.000 F 
BRANCH   4  12
ATOM     11  C   UNL     1       0.633   2.432  18.838  0.00  0.00    +0.000 C 
ATOM     12  O   UNL     1       1.448   3.543  19.190  0.00  0.00    +0.000 OA
ENDBRANCH   4  12
ENDBRANCH   1   7
BRANCH   1  13
ATOM     13  N   UNL     1       7.382   5.097  16.810  0.00  0.00    +0.000 NA
ATOM     14  H   UNL     1       8.238   5.017  16.254  0.00  0.00    +0.000 HD
BRANCH  13  15
ATOM     15  C   UNL     1       7.376   6.177  17.820  0.00  0.00    +0.000 C 
BRANCH  15  16
ATOM     16  C   UNL     1       7.285   5.621  19.232  0.00  0.00    +0.000 C 
ATOM     17  O   UNL     1       6.243   5.188  19.722  0.00  0.00    +0.000 OA
ATOM     18  N   UNL     1       8.468   5.610  19.927  0.00  0.00    +0.000 N 
ATOM     19  H   UNL     1       9.372   5.747  19.484  0.00  0.00    +0.000 HD
BRANCH  18  20
ATOM     20  O   UNL     1       8.446   5.028  21.213  0.00  0.00    +0.000 OA
ATOM     21  H   UNL     1       7.861   4.250  21.087  0.00  0.00    +0.000 HD
ENDBRANCH  18  20
ENDBRANCH  15  16
ENDBRANCH  13  15
ENDBRANCH   1  13
TORSDOF 6
ENDMDL
MODEL 3
REMARK VINA RESULT:      -6.9      2.369      3.884
REMARK  Name = 
REMARK  7 active torsions:
REMARK  status: ('A' for Active; 'I' for Inactive)
REMARK    1  A    between atoms: C_1  and  O_2
REMARK    2  A    between atoms: O_2  and  C_3
REMARK    3  A    between atoms: C_6  and  S_7
REMARK    4  A    between atoms: S_7  and  N_10
REMARK    5  A    between atoms: N_10  and  C_11
REMARK    6  A    between atoms: C_11  and  C_12
REMARK    7  A    between atoms: N_14  and  O_15
REMARK                            x       y       z     vdW  Elec       q    Type
REMARK                         _______ _______ _______ _____ _____    ______ ____
ROOT
ATOM      1  S   UNL     1       6.934   5.912  17.690  0.00  0.00    +0.000 S 
ATOM      2  O   UNL     1       6.725   7.053  16.829  0.00  0.00    +0.000 OA
ATOM      3  O   UNL     1       7.819   5.960  18.831  0.00  0.00    +0.000 OA
ENDROOT
BRANCH   1   7
ATOM      4  C   UNL     1       2.823   4.364  18.945  0.00  0.00    +0.000 A 
ATOM      5  C   UNL     1       2.935   5.482  18.110  0.00  0.00    +0.000 A 
ATOM      6  C   UNL     1       4.187   5.980  17.742  0.00  0.00    +0.000 A 
ATOM      7  C   UNL     1       5.340   5.351  18.217  0.00  0.00    +0.000 A 
ATOM      8  C   UNL     1       5.251   4.233  19.045  0.00  0.00    +0.000 A 
ATOM      9  C   UNL     1       3.993   3.750  19.405  0.00  0.00    +0.000 A 
ATOM     10  F   UNL     1       3.952   2.672  20.203  0.00  0.00    +0.000 F 
BRANCH   4  12
ATOM     11  C   UNL     1       1.073   2.778  18.635  0.00  0.00    +0.000 C 
ATOM     12  O   UNL     1       1.533   3.995  19.210  0.00  0.00    +0.000 OA
ENDBRANCH   4  12
ENDBRANCH   1   7
BRANCH   1  13
ATOM     13  N   UNL     1       7.460   4.665  16.679  0.00  0.00    +0.000 NA
ATOM     14  H   UNL     1       7.909   3.945  17.252  0.00  0.00    +0.000 HD
BRANCH  13  15
ATOM     15  C   UNL     1       6.482   4.171  15.685  0.00  0.00    +0.000 C 
BRANCH  15  16
ATOM     16  C   UNL     1       6.923   4.485  14.265  0.00  0.00    +0.000 C 
ATOM     17  O   UNL     1       6.491   3.894  13.277  0.00  0.00    +0.000 OA
ATOM     18  N   UNL     1       7.834   5.506  14.153  0.00  0.00    +0.000 N 
ATOM     19  H   UNL     1       8.037   6.152  14.910  0.00  0.00    +0.000 HD
BRANCH  18  20
ATOM     20  O   UNL     1       8.211   5.884  12.846  0.00  0.00    +0.000 OA
ATOM     21  H   UNL     1       8.364   5.018  12.409  0.00  0.00    +0.000 HD
ENDBRANCH  18  20
ENDBRANCH  15  16
ENDBRANCH  13  15
ENDBRANCH   1  13
TORSDOF 6
ENDMDL
MODEL 4
REMARK VINA RESULT:      -6.9      2.131      3.632
REMARK  Name = 
REMARK  7 active torsions:
REMARK  status: ('A' for Active; 'I' for Inactive)
REMARK    1  A    between atoms: C_1  and  O_2
REMARK    2  A    between atoms: O_2  and  C_3
REMARK    3  A    between atoms: C_6  and  S_7
REMARK    4  A    between atoms: S_7  and  N_10
REMARK    5  A    between atoms: N_10  and  C_11
REMARK    6  A    between atoms: C_11  and  C_12
REMARK    7  A    between atoms: N_14  and  O_15
REMARK                            x       y       z     vdW  Elec       q    Type
REMARK                         _______ _______ _______ _____ _____    ______ ____
ROOT
ATOM      1  S   UNL     1       7.029   6.059  17.678  0.00  0.00    +0.000 S 
ATOM      2  O   UNL     1       6.903   7.182  16.778  0.00  0.00    +0.000 OA
ATOM      3  O   UNL     1       7.872   6.102  18.850  0.00  0.00    +0.000 OA
ENDROOT
BRANCH   1   7
ATOM      4  C   UNL     1       2.815   4.923  19.027  0.00  0.00    +0.000 A 
ATOM      5  C   UNL     1       3.913   4.136  19.394  0.00  0.00    +0.000 A 
ATOM      6  C   UNL     1       5.202   4.459  18.965  0.00  0.00    +0.000 A 
ATOM      7  C   UNL     1       5.393   5.583  18.158  0.00  0.00    +0.000 A 
ATOM      8  C   UNL     1       4.314   6.382  17.785  0.00  0.00    +0.000 A 
ATOM      9  C   UNL     1       3.033   6.044  18.220  0.00  0.00    +0.000 A 
ATOM     10  F   UNL     1       2.023   6.841  17.839  0.00  0.00    +0.000 F 
BRANCH   4  12
ATOM     11  C   UNL     1       1.563   4.213  20.925  0.00  0.00    +0.000 C 
ATOM     12  O   UNL     1       1.622   4.481  19.530  0.00  0.00    +0.000 OA
ENDBRANCH   4  12
ENDBRANCH   1   7
BRANCH   1  13
ATOM     13  N   UNL     1       7.537   4.761  16.722  0.00  0.00    +0.000 NA
ATOM     14  H   UNL     1       7.991   4.068  17.324  0.00  0.00    +0.000 HD
BRANCH  13  15
ATOM     15  C   UNL     1       6.544   4.224  15.767  0.00  0.00    +0.000 C 
BRANCH  15  16
ATOM     16  C   UNL     1       6.936   4.519  14.329  0.00  0.00    +0.000 C 
ATOM     17  O   UNL     1       6.445   3.940  13.362  0.00  0.00    +0.000 OA
ATOM     18  N   UNL     1       7.875   5.509  14.176  0.00  0.00    +0.000 N 
ATOM     19  H   UNL     1       8.130   6.150  14.922  0.00  0.00    +0.000 HD
BRANCH  18  20
ATOM     20  O   UNL     1       8.210   5.871  12.853  0.00  0.00    +0.000 OA
ATOM     21  H   UNL     1       9.103   6.267  12.959  0.00  0.00    +0.000 HD
ENDBRANCH  18  20
ENDBRANCH  15  16
ENDBRANCH  13  15
ENDBRANCH   1  13
TORSDOF 6
ENDMDL
MODEL 5
REMARK VINA RESULT:      -6.8      1.087      1.111
REMARK  Name = 
REMARK  7 active torsions:
REMARK  status: ('A' for Active; 'I' for Inactive)
REMARK    1  A    between atoms: C_1  and  O_2
REMARK    2  A    between atoms: O_2  and  C_3
REMARK    3  A    between atoms: C_6  and  S_7
REMARK    4  A    between atoms: S_7  and  N_10
REMARK    5  A    between atoms: N_10  and  C_11
REMARK    6  A    between atoms: C_11  and  C_12
REMARK    7  A    between atoms: N_14  and  O_15
REMARK                            x       y       z     vdW  Elec       q    Type
REMARK                         _______ _______ _______ _____ _____    ______ ____
ROOT
ATOM      1  S   UNL     1       5.662   5.686  15.507  0.00  0.00    +0.000 S 
ATOM      2  O   UNL     1       5.882   4.722  14.454  0.00  0.00    +0.000 OA
ATOM      3  O   UNL     1       5.181   7.021  15.239  0.00  0.00    +0.000 OA
ENDROOT
BRANCH   1   7
ATOM      4  C   UNL     1       3.048   3.748  18.713  0.00  0.00    +0.000 A 
ATOM      5  C   UNL     1       3.906   2.966  17.931  0.00  0.00    +0.000 A 
ATOM      6  C   UNL     1       4.690   3.545  16.930  0.00  0.00    +0.000 A 
ATOM      7  C   UNL     1       4.612   4.922  16.709  0.00  0.00    +0.000 A 
ATOM      8  C   UNL     1       3.768   5.719  17.481  0.00  0.00    +0.000 A 
ATOM      9  C   UNL     1       2.990   5.126  18.475  0.00  0.00    +0.000 A 
ATOM     10  F   UNL     1       2.193   5.929  19.195  0.00  0.00    +0.000 F 
BRANCH   4  12
ATOM     11  C   UNL     1       2.981   2.839  20.914  0.00  0.00    +0.000 C 
ATOM     12  O   UNL     1       2.353   3.038  19.654  0.00  0.00    +0.000 OA
ENDBRANCH   4  12
ENDBRANCH   1   7
BRANCH   1  13
ATOM     13  N   UNL     1       7.137   5.819  16.320  0.00  0.00    +0.000 NA
ATOM     14  H   UNL     1       7.817   6.261  15.696  0.00  0.00    +0.000 HD
BRANCH  13  15
ATOM     15  C   UNL     1       7.079   6.368  17.692  0.00  0.00    +0.000 C 
BRANCH  15  16
ATOM     16  C   UNL     1       7.693   5.412  18.702  0.00  0.00    +0.000 C 
ATOM     17  O   UNL     1       8.074   4.279  18.415  0.00  0.00    +0.000 OA
ATOM     18  N   UNL     1       7.817   5.914  19.974  0.00  0.00    +0.000 N 
ATOM     19  H   UNL     1       7.724   6.902  20.191  0.00  0.00    +0.000 HD
BRANCH  18  20
ATOM     20  O   UNL     1       8.455   5.088  20.925  0.00  0.00    +0.000 OA
ATOM     21  H   UNL     1       7.986   4.232  20.814  0.00  0.00    +0.000 HD
ENDBRANCH  18  20
ENDBRANCH  15  16
ENDBRANCH  13  15
ENDBRANCH   1  13
TORSDOF 6
ENDMDL
MODEL 6
REMARK VINA RESULT:      -6.7      1.111      1.187
REMARK  Name = 
REMARK  7 active torsions:
REMARK  status: ('A' for Active; 'I' for Inactive)
REMARK    1  A    between atoms: C_1  and  O_2
REMARK    2  A    between atoms: O_2  and  C_3
REMARK    3  A    between atoms: C_6  and  S_7
REMARK    4  A    between atoms: S_7  and  N_10
REMARK    5  A    between atoms: N_10  and  C_11
REMARK    6  A    between atoms: C_11  and  C_12
REMARK    7  A    between atoms: N_14  and  O_15
REMARK                            x       y       z     vdW  Elec       q    Type
REMARK                         _______ _______ _______ _____ _____    ______ ____
ROOT
ATOM      1  S   UNL     1       5.218   4.908  16.254  0.00  0.00    +0.000 S 
ATOM      2  O   UNL     1       5.194   4.161  15.018  0.00  0.00    +0.000 OA
ATOM      3  O   UNL     1       4.958   6.328  16.300  0.00  0.00    +0.000 OA
ENDROOT
BRANCH   1   7
ATOM      4  C   UNL     1       2.482   2.865  19.289  0.00  0.00    +0.000 A 
ATOM      5  C   UNL     1       3.710   2.289  18.942  0.00  0.00    +0.000 A 
ATOM      6  C   UNL     1       4.542   2.892  17.995  0.00  0.00    +0.000 A 
ATOM      7  C   UNL     1       4.139   4.084  17.389  0.00  0.00    +0.000 A 
ATOM      8  C   UNL     1       2.923   4.676  17.725  0.00  0.00    +0.000 A 
ATOM      9  C   UNL     1       2.102   4.061  18.670  0.00  0.00    +0.000 A 
ATOM     10  F   UNL     1       0.941   4.665  18.965  0.00  0.00    +0.000 F 
BRANCH   4  12
ATOM     11  C   UNL     1       1.769   2.685  21.555  0.00  0.00    +0.000 C 
ATOM     12  O   UNL     1       1.786   2.161  20.233  0.00  0.00    +0.000 OA
ENDBRANCH   4  12
ENDBRANCH   1   7
BRANCH   1  13
ATOM     13  N   UNL     1       6.747   4.640  16.922  0.00  0.00    +0.000 NA
ATOM     14  H   UNL     1       7.349   4.225  16.205  0.00  0.00    +0.000 HD
BRANCH  13  15
ATOM     15  C   UNL     1       7.337   5.765  17.679  0.00  0.00    +0.000 C 
BRANCH  15  16
ATOM     16  C   UNL     1       7.198   5.563  19.179  0.00  0.00    +0.000 C 
ATOM     17  O   UNL     1       6.113   5.476  19.751  0.00  0.00    +0.000 OA
ATOM     18  N   UNL     1       8.384   5.457  19.861  0.00  0.00    +0.000 N 
ATOM     19  H   UNL     1       9.276   5.300  19.401  0.00  0.00    +0.000 HD
BRANCH  18  20
ATOM     20  O   UNL     1       8.301   5.189  21.245  0.00  0.00    +0.000 OA
ATOM     21  H   UNL     1       8.400   4.212  21.280  0.00  0.00    +0.000 HD
ENDBRANCH  18  20
ENDBRANCH  15  16
ENDBRANCH  13  15
ENDBRANCH   1  13
TORSDOF 6
ENDMDL
MODEL 7
REMARK VINA RESULT:      -6.7      2.391      4.060
REMARK  Name = 
REMARK  7 active torsions:
REMARK  status: ('A' for Active; 'I' for Inactive)
REMARK    1  A    between atoms: C_1  and  O_2
REMARK    2  A    between atoms: O_2  and  C_3
REMARK    3  A    between atoms: C_6  and  S_7
REMARK    4  A    between atoms: S_7  and  N_10
REMARK    5  A    between atoms: N_10  and  C_11
REMARK    6  A    between atoms: C_11  and  C_12
REMARK    7  A    between atoms: N_14  and  O_15
REMARK                            x       y       z     vdW  Elec       q    Type
REMARK                         _______ _______ _______ _____ _____    ______ ____
ROOT
ATOM      1  S   UNL     1       7.155   5.653  18.149  0.00  0.00    +0.000 S 
ATOM      2  O   UNL     1       7.137   6.963  17.541  0.00  0.00    +0.000 OA
ATOM      3  O   UNL     1       7.969   5.351  19.303  0.00  0.00    +0.000 OA
ENDROOT
BRANCH   1   7
ATOM      4  C   UNL     1       2.823   4.423  18.917  0.00  0.00    +0.000 A 
ATOM      5  C   UNL     1       3.113   5.633  18.276  0.00  0.00    +0.000 A 
ATOM      6  C   UNL     1       4.434   6.031  18.060  0.00  0.00    +0.000 A 
ATOM      7  C   UNL     1       5.477   5.208  18.492  0.00  0.00    +0.000 A 
ATOM      8  C   UNL     1       5.209   3.997  19.128  0.00  0.00    +0.000 A 
ATOM      9  C   UNL     1       3.884   3.615  19.338  0.00  0.00    +0.000 A 
ATOM     10  F   UNL     1       3.671   2.442  19.953  0.00  0.00    +0.000 F 
BRANCH   4  12
ATOM     11  C   UNL     1       0.954   4.146  20.368  0.00  0.00    +0.000 C 
ATOM     12  O   UNL     1       1.485   4.171  19.049  0.00  0.00    +0.000 OA
ENDBRANCH   4  12
ENDBRANCH   1   7
BRANCH   1  13
ATOM     13  N   UNL     1       7.587   4.581  16.916  0.00  0.00    +0.000 NA
ATOM     14  H   UNL     1       8.111   3.803  17.327  0.00  0.00    +0.000 HD
BRANCH  13  15
ATOM     15  C   UNL     1       6.512   4.200  15.974  0.00  0.00    +0.000 C 
BRANCH  15  16
ATOM     16  C   UNL     1       6.898   4.501  14.535  0.00  0.00    +0.000 C 
ATOM     17  O   UNL     1       7.655   5.416  14.216  0.00  0.00    +0.000 OA
ATOM     18  N   UNL     1       6.357   3.652  13.601  0.00  0.00    +0.000 N 
ATOM     19  H   UNL     1       5.920   2.768  13.844  0.00  0.00    +0.000 HD
BRANCH  18  20
ATOM     20  O   UNL     1       6.752   3.845  12.260  0.00  0.00    +0.000 OA
ATOM     21  H   UNL     1       6.173   4.584  11.970  0.00  0.00    +0.000 HD
ENDBRANCH  18  20
ENDBRANCH  15  16
ENDBRANCH  13  15
ENDBRANCH   1  13
TORSDOF 6
ENDMDL
MODEL 8
REMARK VINA RESULT:      -6.7      2.955      4.738
REMARK  Name = 
REMARK  7 active torsions:
REMARK  status: ('A' for Active; 'I' for Inactive)
REMARK    1  A    between atoms: C_1  and  O_2
REMARK    2  A    between atoms: O_2  and  C_3
REMARK    3  A    between atoms: C_6  and  S_7
REMARK    4  A    between atoms: S_7  and  N_10
REMARK    5  A    between atoms: N_10  and  C_11
REMARK    6  A    between atoms: C_11  and  C_12
REMARK    7  A    between atoms: N_14  and  O_15
REMARK                            x       y       z     vdW  Elec       q    Type
REMARK                         _______ _______ _______ _____ _____    ______ ____
ROOT
ATOM      1  S   UNL     1       6.769   4.698  16.185  0.00  0.00    +0.000 S 
ATOM      2  O   UNL     1       6.784   5.991  15.541  0.00  0.00    +0.000 OA
ATOM      3  O   UNL     1       7.921   4.168  16.876  0.00  0.00    +0.000 OA
ENDROOT
BRANCH   1   7
ATOM      4  C   UNL     1       3.111   4.727  18.922  0.00  0.00    +0.000 A 
ATOM      5  C   UNL     1       4.250   5.470  19.254  0.00  0.00    +0.000 A 
ATOM      6  C   UNL     1       5.383   5.447  18.438  0.00  0.00    +0.000 A 
ATOM      7  C   UNL     1       5.376   4.670  17.277  0.00  0.00    +0.000 A 
ATOM      8  C   UNL     1       4.250   3.927  16.926  0.00  0.00    +0.000 A 
ATOM      9  C   UNL     1       3.127   3.959  17.753  0.00  0.00    +0.000 A 
ATOM     10  F   UNL     1       2.065   3.231  17.378  0.00  0.00    +0.000 F 
BRANCH   4  12
ATOM     11  C   UNL     1       2.193   4.147  21.043  0.00  0.00    +0.000 C 
ATOM     12  O   UNL     1       2.083   4.858  19.816  0.00  0.00    +0.000 OA
ENDBRANCH   4  12
ENDBRANCH   1   7
BRANCH   1  13
ATOM     13  N   UNL     1       6.331   3.593  14.984  0.00  0.00    +0.000 NA
ATOM     14  H   UNL     1       5.771   2.850  15.411  0.00  0.00    +0.000 HD
BRANCH  13  15
ATOM     15  C   UNL     1       5.786   4.167  13.735  0.00  0.00    +0.000 C 
BRANCH  15  16
ATOM     16  C   UNL     1       6.449   3.563  12.508  0.00  0.00    +0.000 C 
ATOM     17  O   UNL     1       7.296   4.151  11.839  0.00  0.00    +0.000 OA
ATOM     18  N   UNL     1       6.049   2.285  12.204  0.00  0.00    +0.000 N 
ATOM     19  H   UNL     1       5.531   1.698  12.851  0.00  0.00    +0.000 HD
BRANCH  18  20
ATOM     20  O   UNL     1       6.697   1.655  11.119  0.00  0.00    +0.000 OA
ATOM     21  H   UNL     1       7.556   1.385  11.511  0.00  0.00    +0.000 HD
ENDBRANCH  18  20
ENDBRANCH  15  16
ENDBRANCH  13  15
ENDBRANCH   1  13
TORSDOF 6
ENDMDL
MODEL 9
REMARK VINA RESULT:      -6.7      2.430      3.925
REMARK  Name = 
REMARK  7 active torsions:
REMARK  status: ('A' for Active; 'I' for Inactive)
REMARK    1  A    between atoms: C_1  and  O_2
REMARK    2  A    between atoms: O_2  and  C_3
REMARK    3  A    between atoms: C_6  and  S_7
REMARK    4  A    between atoms: S_7  and  N_10
REMARK    5  A    between atoms: N_10  and  C_11
REMARK    6  A    between atoms: C_11  and  C_12
REMARK    7  A    between atoms: N_14  and  O_15
REMARK                            x       y       z     vdW  Elec       q    Type
REMARK                         _______ _______ _______ _____ _____    ______ ____
ROOT
ATOM      1  S   UNL     1       6.325   5.117  18.085  0.00  0.00    +0.000 S 
ATOM      2  O   UNL     1       5.969   6.400  17.526  0.00  0.00    +0.000 OA
ATOM      3  O   UNL     1       7.427   4.957  19.005  0.00  0.00    +0.000 OA
ENDROOT
BRANCH   1   7
ATOM      4  C   UNL     1       2.478   3.381  19.834  0.00  0.00    +0.000 A 
ATOM      5  C   UNL     1       2.853   4.700  20.116  0.00  0.00    +0.000 A 
ATOM      6  C   UNL     1       4.040   5.232  19.608  0.00  0.00    +0.000 A 
ATOM      7  C   UNL     1       4.862   4.433  18.810  0.00  0.00    +0.000 A 
ATOM      8  C   UNL     1       4.505   3.119  18.513  0.00  0.00    +0.000 A 
ATOM      9  C   UNL     1       3.317   2.602  19.029  0.00  0.00    +0.000 A 
ATOM     10  F   UNL     1       3.010   1.334  18.718  0.00  0.00    +0.000 F 
BRANCH   4  12
ATOM     11  C   UNL     1       1.291   2.714  21.788  0.00  0.00    +0.000 C 
ATOM     12  O   UNL     1       1.288   3.009  20.397  0.00  0.00    +0.000 OA
ENDBRANCH   4  12
ENDBRANCH   1   7
BRANCH   1  13
ATOM     13  N   UNL     1       6.603   4.103  16.763  0.00  0.00    +0.000 NA
ATOM     14  H   UNL     1       6.575   3.130  17.084  0.00  0.00    +0.000 HD
BRANCH  13  15
ATOM     15  C   UNL     1       5.824   4.394  15.540  0.00  0.00    +0.000 C 
BRANCH  15  16
ATOM     16  C   UNL     1       6.731   4.616  14.341  0.00  0.00    +0.000 C 
ATOM     17  O   UNL     1       6.581   4.042  13.264  0.00  0.00    +0.000 OA
ATOM     18  N   UNL     1       7.732   5.536  14.534  0.00  0.00    +0.000 N 
ATOM     19  H   UNL     1       7.747   6.181  15.318  0.00  0.00    +0.000 HD
BRANCH  18  20
ATOM     20  O   UNL     1       8.548   5.832  13.421  0.00  0.00    +0.000 OA
ATOM     21  H   UNL     1       9.063   6.609  13.733  0.00  0.00    +0.000 HD
ENDBRANCH  18  20
ENDBRANCH  15  16
ENDBRANCH  13  15
ENDBRANCH   1  13
TORSDOF 6
ENDMDL
