MODEL 1
REMARK VINA RESULT:      -8.2      0.000      0.000
REMARK  Name = 
REMARK  3 active torsions:
REMARK  status: ('A' for Active; 'I' for Inactive)
REMARK    1  A    between atoms: C_5  and  C_6
REMARK    2  A    between atoms: N_14  and  C_15
REMARK    3  A    between atoms: C_15  and  C_16
REMARK                            x       y       z     vdW  Elec       q    Type
REMARK                         _______ _______ _______ _____ _____    ______ ____
ROOT
ATOM      1  C   UNL     1       4.371   3.857  17.053  0.00  0.00    +0.000 A 
ATOM      2  C   UNL     1       3.890   2.544  17.124  0.00  0.00    +0.000 A 
ATOM      3  C   UNL     1       2.946   2.170  18.093  0.00  0.00    +0.000 A 
ATOM      4  C   UNL     1       2.447   3.071  19.022  0.00  0.00    +0.000 A 
ATOM      5  N   UNL     1       1.560   2.648  19.928  0.00  0.00    +0.000 NA
ATOM      6  C   UNL     1       1.087   3.566  20.776  0.00  0.00    +0.000 A 
ATOM      7  N   UNL     1       1.405   4.865  20.801  0.00  0.00    +0.000 NA
ATOM      8  C   UNL     1       2.305   5.278  19.892  0.00  0.00    +0.000 A 
ATOM      9  N   UNL     1       2.649   6.640  19.844  0.00  0.00    +0.000 N 
ATOM     10  C   UNL     1       2.888   4.396  18.962  0.00  0.00    +0.000 A 
ATOM     11  C   UNL     1       3.839   4.772  17.976  0.00  0.00    +0.000 A 
ATOM     12  H   UNL     1       3.638   6.753  20.050  0.00  0.00    +0.000 HD
ENDROOT
BRANCH   1  17
ATOM     13  C   UNL     1       6.332   4.230  13.825  0.00  0.00    +0.000 A 
ATOM     14  C   UNL     1       7.329   5.081  14.266  0.00  0.00    +0.000 A 
ATOM     15  N   UNL     1       7.415   5.537  15.532  0.00  0.00    +0.000 NA
ATOM     16  C   UNL     1       6.453   5.119  16.396  0.00  0.00    +0.000 A 
ATOM     17  C   UNL     1       5.395   4.266  16.071  0.00  0.00    +0.000 A 
ATOM     18  C   UNL     1       5.358   3.826  14.738  0.00  0.00    +0.000 A 
ENDBRANCH   1  17
BRANCH   9  19
ATOM     19  C   UNL     1       1.830   7.545  20.640  0.00  0.00    +0.000 C 
BRANCH  19  20
ATOM     20  C   UNL     1       1.305   8.702  19.829  0.00  0.00    +0.000 A 
ATOM     21  C   UNL     1       1.625   9.045  18.529  0.00  0.00    +0.000 A 
ATOM     22  C   UNL     1       0.943  10.216  18.091  0.00  0.00    +0.000 A 
ATOM     23  C   UNL     1       0.131  10.736  19.074  0.00  0.00    +0.000 A 
ATOM     24  S   UNL     1       0.186   9.808  20.511  0.00  0.00    +0.000 S 
ENDBRANCH  19  20
ENDBRANCH   9  19
TORSDOF 3
ENDMDL
MODEL 2
REMARK VINA RESULT:      -7.4      0.622      1.011
REMARK  Name = 
REMARK  3 active torsions:
REMARK  status: ('A' for Active; 'I' for Inactive)
REMARK    1  A    between atoms: C_5  and  C_6
REMARK    2  A    between atoms: N_14  and  C_15
REMARK    3  A    between atoms: C_15  and  C_16
REMARK                            x       y       z     vdW  Elec       q    Type
REMARK                         _______ _______ _______ _____ _____    ______ ____
ROOT
ATOM      1  C   UNL     1       4.342   3.711  17.121  0.00  0.00    +0.000 A 
ATOM      2  C   UNL     1       3.878   2.394  17.215  0.00  0.00    +0.000 A 
ATOM      3  C   UNL     1       2.947   2.022  18.197  0.00  0.00    +0.000 A 
ATOM      4  C   UNL     1       2.445   2.930  19.118  0.00  0.00    +0.000 A 
ATOM      5  N   UNL     1       1.570   2.509  20.037  0.00  0.00    +0.000 NA
ATOM      6  C   UNL     1       1.094   3.434  20.877  0.00  0.00    +0.000 A 
ATOM      7  N   UNL     1       1.397   4.737  20.880  0.00  0.00    +0.000 NA
ATOM      8  C   UNL     1       2.284   5.147  19.958  0.00  0.00    +0.000 A 
ATOM      9  N   UNL     1       2.612   6.512  19.889  0.00  0.00    +0.000 N 
ATOM     10  C   UNL     1       2.869   4.259  19.036  0.00  0.00    +0.000 A 
ATOM     11  C   UNL     1       3.808   4.633  18.036  0.00  0.00    +0.000 A 
ATOM     12  H   UNL     1       3.601   6.640  20.085  0.00  0.00    +0.000 HD
ENDROOT
BRANCH   1  17
ATOM     13  C   UNL     1       7.447   5.208  15.533  0.00  0.00    +0.000 A 
ATOM     14  C   UNL     1       7.225   4.841  14.218  0.00  0.00    +0.000 A 
ATOM     15  N   UNL     1       6.142   4.150  13.808  0.00  0.00    +0.000 NA
ATOM     16  C   UNL     1       5.239   3.811  14.767  0.00  0.00    +0.000 A 
ATOM     17  C   UNL     1       5.353   4.119  16.125  0.00  0.00    +0.000 A 
ATOM     18  C   UNL     1       6.502   4.837  16.489  0.00  0.00    +0.000 A 
ENDBRANCH   1  17
BRANCH   9  19
ATOM     19  C   UNL     1       1.789   7.418  20.679  0.00  0.00    +0.000 C 
BRANCH  19  20
ATOM     20  C   UNL     1       1.369   8.637  19.897  0.00  0.00    +0.000 A 
ATOM     21  C   UNL     1       1.689   8.963  18.592  0.00  0.00    +0.000 A 
ATOM     22  C   UNL     1       1.125  10.208  18.189  0.00  0.00    +0.000 A 
ATOM     23  C   UNL     1       0.401  10.797  19.201  0.00  0.00    +0.000 A 
ATOM     24  S   UNL     1       0.395   9.847  20.624  0.00  0.00    +0.000 S 
ENDBRANCH  19  20
ENDBRANCH   9  19
TORSDOF 3
ENDMDL
MODEL 3
REMARK VINA RESULT:      -7.3      1.609      2.375
REMARK  Name = 
REMARK  3 active torsions:
REMARK  status: ('A' for Active; 'I' for Inactive)
REMARK    1  A    between atoms: C_5  and  C_6
REMARK    2  A    between atoms: N_14  and  C_15
REMARK    3  A    between atoms: C_15  and  C_16
REMARK                            x       y       z     vdW  Elec       q    Type
REMARK                         _______ _______ _______ _____ _____    ______ ____
ROOT
ATOM      1  C   UNL     1       4.674   5.217  17.400  0.00  0.00    +0.000 A 
ATOM      2  C   UNL     1       4.601   4.248  18.407  0.00  0.00    +0.000 A 
ATOM      3  C   UNL     1       3.786   4.435  19.534  0.00  0.00    +0.000 A 
ATOM      4  C   UNL     1       3.020   5.578  19.709  0.00  0.00    +0.000 A 
ATOM      5  N   UNL     1       2.275   5.700  20.812  0.00  0.00    +0.000 NA
ATOM      6  C   UNL     1       1.531   6.807  20.912  0.00  0.00    +0.000 A 
ATOM      7  N   UNL     1       1.451   7.795  20.013  0.00  0.00    +0.000 NA
ATOM      8  C   UNL     1       2.211   7.666  18.912  0.00  0.00    +0.000 A 
ATOM      9  N   UNL     1       2.139   8.654  17.916  0.00  0.00    +0.000 N 
ATOM     10  C   UNL     1       3.051   6.554  18.709  0.00  0.00    +0.000 A 
ATOM     11  C   UNL     1       3.873   6.359  17.567  0.00  0.00    +0.000 A 
ATOM     12  H   UNL     1       3.045   9.102  17.808  0.00  0.00    +0.000 HD
ENDROOT
BRANCH   1  17
ATOM     13  C   UNL     1       6.026   4.160  14.015  0.00  0.00    +0.000 A 
ATOM     14  C   UNL     1       7.237   4.828  14.039  0.00  0.00    +0.000 A 
ATOM     15  N   UNL     1       7.649   5.590  15.073  0.00  0.00    +0.000 NA
ATOM     16  C   UNL     1       6.803   5.686  16.133  0.00  0.00    +0.000 A 
ATOM     17  C   UNL     1       5.555   5.065  16.225  0.00  0.00    +0.000 A 
ATOM     18  C   UNL     1       5.181   4.287  15.117  0.00  0.00    +0.000 A 
ENDBRANCH   1  17
BRANCH   9  19
ATOM     19  C   UNL     1       1.070   9.635  18.049  0.00  0.00    +0.000 C 
BRANCH  19  20
ATOM     20  C   UNL     1       1.582  10.982  18.492  0.00  0.00    +0.000 A 
ATOM     21  C   UNL     1       2.487  11.803  17.844  0.00  0.00    +0.000 A 
ATOM     22  C   UNL     1       2.750  13.001  18.568  0.00  0.00    +0.000 A 
ATOM     23  C   UNL     1       2.045  13.052  19.751  0.00  0.00    +0.000 A 
ATOM     24  S   UNL     1       1.067  11.667  19.976  0.00  0.00    +0.000 S 
ENDBRANCH  19  20
ENDBRANCH   9  19
TORSDOF 3
ENDMDL
MODEL 4
REMARK VINA RESULT:      -7.2      3.123      7.942
REMARK  Name = 
REMARK  3 active torsions:
REMARK  status: ('A' for Active; 'I' for Inactive)
REMARK    1  A    between atoms: C_5  and  C_6
REMARK    2  A    between atoms: N_14  and  C_15
REMARK    3  A    between atoms: C_15  and  C_16
REMARK                            x       y       z     vdW  Elec       q    Type
REMARK                         _______ _______ _______ _____ _____    ______ ____
ROOT
ATOM      1  C   UNL     1       0.802   9.514  20.084  0.00  0.00    +0.000 A 
ATOM      2  C   UNL     1       1.097  10.030  18.817  0.00  0.00    +0.000 A 
ATOM      3  C   UNL     1       1.940   9.339  17.932  0.00  0.00    +0.000 A 
ATOM      4  C   UNL     1       2.520   8.124  18.263  0.00  0.00    +0.000 A 
ATOM      5  N   UNL     1       3.323   7.524  17.381  0.00  0.00    +0.000 NA
ATOM      6  C   UNL     1       3.828   6.338  17.739  0.00  0.00    +0.000 A 
ATOM      7  N   UNL     1       3.598   5.691  18.888  0.00  0.00    +0.000 NA
ATOM      8  C   UNL     1       2.796   6.308  19.772  0.00  0.00    +0.000 A 
ATOM      9  N   UNL     1       2.487   5.659  20.980  0.00  0.00    +0.000 N 
ATOM     10  C   UNL     1       2.226   7.569  19.512  0.00  0.00    +0.000 A 
ATOM     11  C   UNL     1       1.367   8.269  20.403  0.00  0.00    +0.000 A 
ATOM     12  H   UNL     1       2.836   6.204  21.763  0.00  0.00    +0.000 HD
ENDROOT
BRANCH   1  17
ATOM     13  C   UNL     1      -1.669  11.974  21.582  0.00  0.00    +0.000 A 
ATOM     14  C   UNL     1      -1.633  11.554  22.898  0.00  0.00    +0.000 A 
ATOM     15  N   UNL     1      -0.863  10.538  23.338  0.00  0.00    +0.000 NA
ATOM     16  C   UNL     1      -0.093   9.913  22.407  0.00  0.00    +0.000 A 
ATOM     17  C   UNL     1      -0.047  10.240  21.050  0.00  0.00    +0.000 A 
ATOM     18  C   UNL     1      -0.871  11.305  20.654  0.00  0.00    +0.000 A 
ENDBRANCH   1  17
BRANCH   9  19
ATOM     19  C   UNL     1       2.881   4.260  21.084  0.00  0.00    +0.000 C 
BRANCH  19  20
ATOM     20  C   UNL     1       2.184   3.393  20.067  0.00  0.00    +0.000 A 
ATOM     21  C   UNL     1       0.834   3.343  19.773  0.00  0.00    +0.000 A 
ATOM     22  C   UNL     1       0.532   2.388  18.761  0.00  0.00    +0.000 A 
ATOM     23  C   UNL     1       1.659   1.731  18.321  0.00  0.00    +0.000 A 
ATOM     24  S   UNL     1       3.072   2.274  19.119  0.00  0.00    +0.000 S 
ENDBRANCH  19  20
ENDBRANCH   9  19
TORSDOF 3
ENDMDL
MODEL 5
REMARK VINA RESULT:      -7.2      2.671      6.775
REMARK  Name = 
REMARK  3 active torsions:
REMARK  status: ('A' for Active; 'I' for Inactive)
REMARK    1  A    between atoms: C_5  and  C_6
REMARK    2  A    between atoms: N_14  and  C_15
REMARK    3  A    between atoms: C_15  and  C_16
REMARK                            x       y       z     vdW  Elec       q    Type
REMARK                         _______ _______ _______ _____ _____    ______ ____
ROOT
ATOM      1  C   UNL     1       2.055   6.927  20.015  0.00  0.00    +0.000 A 
ATOM      2  C   UNL     1       1.432   6.049  20.909  0.00  0.00    +0.000 A 
ATOM      3  C   UNL     1       1.869   4.722  21.045  0.00  0.00    +0.000 A 
ATOM      4  C   UNL     1       2.927   4.215  20.305  0.00  0.00    +0.000 A 
ATOM      5  N   UNL     1       3.285   2.939  20.471  0.00  0.00    +0.000 NA
ATOM      6  C   UNL     1       4.333   2.513  19.759  0.00  0.00    +0.000 A 
ATOM      7  N   UNL     1       5.063   3.242  18.906  0.00  0.00    +0.000 NA
ATOM      8  C   UNL     1       4.689   4.522  18.740  0.00  0.00    +0.000 A 
ATOM      9  N   UNL     1       5.443   5.346  17.887  0.00  0.00    +0.000 N 
ATOM     10  C   UNL     1       3.587   5.073  19.421  0.00  0.00    +0.000 A 
ATOM     11  C   UNL     1       3.146   6.418  19.291  0.00  0.00    +0.000 A 
ATOM     12  H   UNL     1       4.865   5.662  17.114  0.00  0.00    +0.000 HD
ENDROOT
BRANCH   1  17
ATOM     13  C   UNL     1       1.266  10.283  18.429  0.00  0.00    +0.000 A 
ATOM     14  C   UNL     1       0.680  10.911  19.513  0.00  0.00    +0.000 A 
ATOM     15  N   UNL     1       0.528  10.330  20.720  0.00  0.00    +0.000 NA
ATOM     16  C   UNL     1       0.986   9.055  20.843  0.00  0.00    +0.000 A 
ATOM     17  C   UNL     1       1.589   8.315  19.823  0.00  0.00    +0.000 A 
ATOM     18  C   UNL     1       1.718   8.974  18.590  0.00  0.00    +0.000 A 
ENDBRANCH   1  17
BRANCH   9  19
ATOM     19  C   UNL     1       6.713   4.808  17.420  0.00  0.00    +0.000 C 
BRANCH  19  20
ATOM     20  C   UNL     1       6.736   4.612  15.925  0.00  0.00    +0.000 A 
ATOM     21  C   UNL     1       7.560   5.225  14.999  0.00  0.00    +0.000 A 
ATOM     22  C   UNL     1       7.286   4.806  13.666  0.00  0.00    +0.000 A 
ATOM     23  C   UNL     1       6.256   3.893  13.615  0.00  0.00    +0.000 A 
ATOM     24  S   UNL     1       5.633   3.540  15.169  0.00  0.00    +0.000 S 
ENDBRANCH  19  20
ENDBRANCH   9  19
TORSDOF 3
ENDMDL
MODEL 6
REMARK VINA RESULT:      -7.2      3.826      5.478
REMARK  Name = 
REMARK  3 active torsions:
REMARK  status: ('A' for Active; 'I' for Inactive)
REMARK    1  A    between atoms: C_5  and  C_6
REMARK    2  A    between atoms: N_14  and  C_15
REMARK    3  A    between atoms: C_15  and  C_16
REMARK                            x       y       z     vdW  Elec       q    Type
REMARK                         _______ _______ _______ _____ _____    ______ ____
ROOT
ATOM      1  C   UNL     1       6.150   4.109  14.319  0.00  0.00    +0.000 A 
ATOM      2  C   UNL     1       7.114   5.124  14.311  0.00  0.00    +0.000 A 
ATOM      3  C   UNL     1       7.525   5.742  15.502  0.00  0.00    +0.000 A 
ATOM      4  C   UNL     1       7.002   5.385  16.736  0.00  0.00    +0.000 A 
ATOM      5  N   UNL     1       7.426   6.022  17.832  0.00  0.00    +0.000 NA
ATOM      6  C   UNL     1       6.913   5.615  18.997  0.00  0.00    +0.000 A 
ATOM      7  N   UNL     1       6.028   4.627  19.174  0.00  0.00    +0.000 NA
ATOM      8  C   UNL     1       5.602   4.000  18.065  0.00  0.00    +0.000 A 
ATOM      9  N   UNL     1       4.701   2.928  18.193  0.00  0.00    +0.000 N 
ATOM     10  C   UNL     1       6.055   4.358  16.782  0.00  0.00    +0.000 A 
ATOM     11  C   UNL     1       5.646   3.730  15.574  0.00  0.00    +0.000 A 
ATOM     12  H   UNL     1       3.828   3.154  17.726  0.00  0.00    +0.000 HD
ENDROOT
BRANCH   1  17
ATOM     13  C   UNL     1       4.034   3.247  11.289  0.00  0.00    +0.000 A 
ATOM     14  C   UNL     1       4.826   2.257  10.737  0.00  0.00    +0.000 A 
ATOM     15  N   UNL     1       5.991   1.844  11.277  0.00  0.00    +0.000 NA
ATOM     16  C   UNL     1       6.379   2.458  12.427  0.00  0.00    +0.000 A 
ATOM     17  C   UNL     1       5.670   3.472  13.077  0.00  0.00    +0.000 A 
ATOM     18  C   UNL     1       4.467   3.858  12.465  0.00  0.00    +0.000 A 
ENDBRANCH   1  17
BRANCH   9  19
ATOM     19  C   UNL     1       4.472   2.430  19.543  0.00  0.00    +0.000 C 
BRANCH  19  20
ATOM     20  C   UNL     1       3.072   2.710  20.025  0.00  0.00    +0.000 A 
ATOM     21  C   UNL     1       2.597   2.678  21.323  0.00  0.00    +0.000 A 
ATOM     22  C   UNL     1       1.208   2.983  21.403  0.00  0.00    +0.000 A 
ATOM     23  C   UNL     1       0.664   3.230  20.161  0.00  0.00    +0.000 A 
ATOM     24  S   UNL     1       1.827   3.102  18.913  0.00  0.00    +0.000 S 
ENDBRANCH  19  20
ENDBRANCH   9  19
TORSDOF 3
ENDMDL
MODEL 7
REMARK VINA RESULT:      -7.2      2.397      3.989
REMARK  Name = 
REMARK  3 active torsions:
REMARK  status: ('A' for Active; 'I' for Inactive)
REMARK    1  A    between atoms: C_5  and  C_6
REMARK    2  A    between atoms: N_14  and  C_15
REMARK    3  A    between atoms: C_15  and  C_16
REMARK                            x       y       z     vdW  Elec       q    Type
REMARK                         _______ _______ _______ _____ _____    ______ ____
ROOT
ATOM      1  C   UNL     1       3.104   6.492  18.514  0.00  0.00    +0.000 A 
ATOM      2  C   UNL     1       2.892   5.717  19.660  0.00  0.00    +0.000 A 
ATOM      3  C   UNL     1       2.098   6.189  20.717  0.00  0.00    +0.000 A 
ATOM      4  C   UNL     1       1.490   7.435  20.683  0.00  0.00    +0.000 A 
ATOM      5  N   UNL     1       0.757   7.831  21.728  0.00  0.00    +0.000 NA
ATOM      6  C   UNL     1       0.167   9.026  21.627  0.00  0.00    +0.000 A 
ATOM      7  N   UNL     1       0.229   9.857  20.579  0.00  0.00    +0.000 NA
ATOM      8  C   UNL     1       0.976   9.453  19.538  0.00  0.00    +0.000 A 
ATOM      9  N   UNL     1       1.046  10.267  18.395  0.00  0.00    +0.000 N 
ATOM     10  C   UNL     1       1.662   8.223  19.542  0.00  0.00    +0.000 A 
ATOM     11  C   UNL     1       2.461   7.739  18.471  0.00  0.00    +0.000 A 
ATOM     12  H   UNL     1       2.005  10.569  18.245  0.00  0.00    +0.000 HD
ENDROOT
BRANCH   1  17
ATOM     13  C   UNL     1       4.951   4.266  16.057  0.00  0.00    +0.000 A 
ATOM     14  C   UNL     1       5.586   5.239  15.307  0.00  0.00    +0.000 A 
ATOM     15  N   UNL     1       5.464   6.561  15.543  0.00  0.00    +0.000 NA
ATOM     16  C   UNL     1       4.665   6.923  16.582  0.00  0.00    +0.000 A 
ATOM     17  C   UNL     1       3.968   6.036  17.407  0.00  0.00    +0.000 A 
ATOM     18  C   UNL     1       4.134   4.674  17.110  0.00  0.00    +0.000 A 
ENDBRANCH   1  17
BRANCH   9  19
ATOM     19  C   UNL     1       0.117  11.387  18.336  0.00  0.00    +0.000 C 
BRANCH  19  20
ATOM     20  C   UNL     1      -1.285  10.950  17.996  0.00  0.00    +0.000 A 
ATOM     21  C   UNL     1      -1.677   9.919  17.162  0.00  0.00    +0.000 A 
ATOM     22  C   UNL     1      -3.093   9.805  17.065  0.00  0.00    +0.000 A 
ATOM     23  C   UNL     1      -3.739  10.759  17.820  0.00  0.00    +0.000 A 
ATOM     24  S   UNL     1      -2.639  11.776  18.647  0.00  0.00    +0.000 S 
ENDBRANCH  19  20
ENDBRANCH   9  19
TORSDOF 3
ENDMDL
MODEL 8
REMARK VINA RESULT:      -7.2      3.139      7.980
REMARK  Name = 
REMARK  3 active torsions:
REMARK  status: ('A' for Active; 'I' for Inactive)
REMARK    1  A    between atoms: C_5  and  C_6
REMARK    2  A    between atoms: N_14  and  C_15
REMARK    3  A    between atoms: C_15  and  C_16
REMARK                            x       y       z     vdW  Elec       q    Type
REMARK                         _______ _______ _______ _____ _____    ______ ____
ROOT
ATOM      1  C   UNL     1       0.698   9.606  19.975  0.00  0.00    +0.000 A 
ATOM      2  C   UNL     1       1.057  10.097  18.714  0.00  0.00    +0.000 A 
ATOM      3  C   UNL     1       1.941   9.388  17.886  0.00  0.00    +0.000 A 
ATOM      4  C   UNL     1       2.502   8.179  18.270  0.00  0.00    +0.000 A 
ATOM      5  N   UNL     1       3.347   7.561  17.440  0.00  0.00    +0.000 NA
ATOM      6  C   UNL     1       3.831   6.382  17.846  0.00  0.00    +0.000 A 
ATOM      7  N   UNL     1       3.542   5.758  18.994  0.00  0.00    +0.000 NA
ATOM      8  C   UNL     1       2.698   6.393  19.825  0.00  0.00    +0.000 A 
ATOM      9  N   UNL     1       2.328   5.767  21.028  0.00  0.00    +0.000 N 
ATOM     10  C   UNL     1       2.144   7.649  19.513  0.00  0.00    +0.000 A 
ATOM     11  C   UNL     1       1.244   8.367  20.346  0.00  0.00    +0.000 A 
ATOM     12  H   UNL     1       2.638   6.327  21.817  0.00  0.00    +0.000 HD
ENDROOT
BRANCH   1  17
ATOM     13  C   UNL     1      -1.131  10.767  23.091  0.00  0.00    +0.000 A 
ATOM     14  C   UNL     1      -1.876  11.795  22.544  0.00  0.00    +0.000 A 
ATOM     15  N   UNL     1      -1.834  12.135  21.240  0.00  0.00    +0.000 NA
ATOM     16  C   UNL     1      -1.002  11.408  20.448  0.00  0.00    +0.000 A 
ATOM     17  C   UNL     1      -0.196  10.352  20.883  0.00  0.00    +0.000 A 
ATOM     18  C   UNL     1      -0.284  10.046  22.250  0.00  0.00    +0.000 A 
ENDBRANCH   1  17
BRANCH   9  19
ATOM     19  C   UNL     1       2.713   4.371  21.179  0.00  0.00    +0.000 C 
BRANCH  19  20
ATOM     20  C   UNL     1       2.081   3.487  20.134  0.00  0.00    +0.000 A 
ATOM     21  C   UNL     1       0.743   3.381  19.805  0.00  0.00    +0.000 A 
ATOM     22  C   UNL     1       0.510   2.428  18.773  0.00  0.00    +0.000 A 
ATOM     23  C   UNL     1       1.676   1.828  18.353  0.00  0.00    +0.000 A 
ATOM     24  S   UNL     1       3.043   2.423  19.194  0.00  0.00    +0.000 S 
ENDBRANCH  19  20
ENDBRANCH   9  19
TORSDOF 3
ENDMDL
MODEL 9
REMARK VINA RESULT:      -7.0      2.843      7.895
REMARK  Name = 
REMARK  3 active torsions:
REMARK  status: ('A' for Active; 'I' for Inactive)
REMARK    1  A    between atoms: C_5  and  C_6
REMARK    2  A    between atoms: N_14  and  C_15
REMARK    3  A    between atoms: C_15  and  C_16
REMARK                            x       y       z     vdW  Elec       q    Type
REMARK                         _______ _______ _______ _____ _____    ______ ____
ROOT
ATOM      1  C   UNL     1       0.901   9.454  19.974  0.00  0.00    +0.000 A 
ATOM      2  C   UNL     1       1.051  10.064  18.723  0.00  0.00    +0.000 A 
ATOM      3  C   UNL     1       1.877   9.503  17.737  0.00  0.00    +0.000 A 
ATOM      4  C   UNL     1       2.582   8.327  17.949  0.00  0.00    +0.000 A 
ATOM      5  N   UNL     1       3.362   7.851  16.973  0.00  0.00    +0.000 NA
ATOM      6  C   UNL     1       3.991   6.697  17.219  0.00  0.00    +0.000 A 
ATOM      7  N   UNL     1       3.907   5.969  18.339  0.00  0.00    +0.000 NA
ATOM      8  C   UNL     1       3.128   6.462  19.316  0.00  0.00    +0.000 A 
ATOM      9  N   UNL     1       2.971   5.720  20.500  0.00  0.00    +0.000 N 
ATOM     10  C   UNL     1       2.434   7.679  19.178  0.00  0.00    +0.000 A 
ATOM     11  C   UNL     1       1.592   8.248  20.172  0.00  0.00    +0.000 A 
ATOM     12  H   UNL     1       3.332   6.249  21.288  0.00  0.00    +0.000 HD
ENDROOT
BRANCH   1  17
ATOM     13  C   UNL     1      -0.792  10.050  23.317  0.00  0.00    +0.000 A 
ATOM     14  C   UNL     1      -1.483  11.210  23.015  0.00  0.00    +0.000 A 
ATOM     15  N   UNL     1      -1.445  11.808  21.807  0.00  0.00    +0.000 NA
ATOM     16  C   UNL     1      -0.675  11.213  20.858  0.00  0.00    +0.000 A 
ATOM     17  C   UNL     1       0.072  10.047  21.042  0.00  0.00    +0.000 A 
ATOM     18  C   UNL     1      -0.007   9.472  22.320  0.00  0.00    +0.000 A 
ENDBRANCH   1  17
BRANCH   9  19
ATOM     19  C   UNL     1       3.488   4.359  20.487  0.00  0.00    +0.000 C 
BRANCH  19  20
ATOM     20  C   UNL     1       2.603   3.418  19.711  0.00  0.00    +0.000 A 
ATOM     21  C   UNL     1       2.970   2.527  18.720  0.00  0.00    +0.000 A 
ATOM     22  C   UNL     1       1.858   1.808  18.195  0.00  0.00    +0.000 A 
ATOM     23  C   UNL     1       0.676   2.179  18.794  0.00  0.00    +0.000 A 
ATOM     24  S   UNL     1       0.911   3.381  19.990  0.00  0.00    +0.000 S 
ENDBRANCH  19  20
ENDBRANCH   9  19
TORSDOF 3
ENDMDL
