MODEL 1
REMARK VINA RESULT:      -4.9      0.000      0.000
REMARK  Name = 
REMARK  4 active torsions:
REMARK  status: ('A' for Active; 'I' for Inactive)
REMARK    1  A    between atoms: N_1  and  C_2
REMARK    2  A    between atoms: C_2  and  C_3
REMARK    3  A    between atoms: C_3  and  C_4
REMARK    4  A    between atoms: C_7  and  O_8
REMARK                            x       y       z     vdW  Elec       q    Type
REMARK                         _______ _______ _______ _____ _____    ______ ____
ROOT
ATOM      1  C   UNL     1       9.150   4.751  27.915  0.00  0.00    +0.000 A 
ATOM      2  N   UNL     1       8.702   3.698  27.256  0.00  0.00    +0.000 NA
ATOM      3  N   UNL     1       7.338   3.881  27.111  0.00  0.00    +0.000 NA
ATOM      4  C   UNL     1       7.085   5.020  27.700  0.00  0.00    +0.000 A 
ATOM      5  O   UNL     1       8.158   5.642  28.238  0.00  0.00    +0.000 OA
ENDROOT
BRANCH   4   6
ATOM      6  O   UNL     1       5.919   5.616  27.797  0.00  0.00    +0.000 OA
ATOM      7  H   UNL     1       6.007   6.335  27.151  0.00  0.00    +0.000 HD
ENDBRANCH   4   6
BRANCH   1   8
ATOM      8  C   UNL     1      10.531   5.092  28.327  0.00  0.00    +0.000 C 
BRANCH   8   9
ATOM      9  C   UNL     1      11.527   4.047  27.823  0.00  0.00    +0.000 C 
BRANCH   9  10
ATOM     10  N   UNL     1      11.357   2.769  28.519  0.00  0.00    +0.000 NA
ATOM     11  H   UNL     1      10.518   2.812  29.098  0.00  0.00    +0.000 HD
ATOM     12  H   UNL     1      12.133   2.623  29.165  0.00  0.00    +0.000 HD
ENDBRANCH   9  10
ENDBRANCH   8   9
ENDBRANCH   1   8
TORSDOF 4
ENDMDL
MODEL 2
REMARK VINA RESULT:      -4.7     11.012     11.699
REMARK  Name = 
REMARK  4 active torsions:
REMARK  status: ('A' for Active; 'I' for Inactive)
REMARK    1  A    between atoms: N_1  and  C_2
REMARK    2  A    between atoms: C_2  and  C_3
REMARK    3  A    between atoms: C_3  and  C_4
REMARK    4  A    between atoms: C_7  and  O_8
REMARK                            x       y       z     vdW  Elec       q    Type
REMARK                         _______ _______ _______ _____ _____    ______ ____
ROOT
ATOM      1  C   UNL     1       7.122   5.287  17.048  0.00  0.00    +0.000 A 
ATOM      2  N   UNL     1       7.530   6.151  16.136  0.00  0.00    +0.000 NA
ATOM      3  N   UNL     1       7.290   5.562  14.906  0.00  0.00    +0.000 NA
ATOM      4  C   UNL     1       6.769   4.397  15.186  0.00  0.00    +0.000 A 
ATOM      5  O   UNL     1       6.625   4.129  16.503  0.00  0.00    +0.000 OA
ENDROOT
BRANCH   4   6
ATOM      6  O   UNL     1       6.359   3.490  14.329  0.00  0.00    +0.000 OA
ATOM      7  H   UNL     1       7.154   2.942  14.222  0.00  0.00    +0.000 HD
ENDBRANCH   4   6
BRANCH   1   8
ATOM      8  C   UNL     1       7.121   5.399  18.524  0.00  0.00    +0.000 C 
BRANCH   8   9
ATOM      9  C   UNL     1       5.748   5.051  19.099  0.00  0.00    +0.000 C 
BRANCH   9  10
ATOM     10  N   UNL     1       5.538   3.602  19.135  0.00  0.00    +0.000 NA
ATOM     11  H   UNL     1       6.424   3.130  18.952  0.00  0.00    +0.000 HD
ATOM     12  H   UNL     1       4.915   3.325  18.376  0.00  0.00    +0.000 HD
ENDBRANCH   9  10
ENDBRANCH   8   9
ENDBRANCH   1   8
TORSDOF 4
ENDMDL
MODEL 3
REMARK VINA RESULT:      -4.7      9.917     10.741
REMARK  Name = 
REMARK  4 active torsions:
REMARK  status: ('A' for Active; 'I' for Inactive)
REMARK    1  A    between atoms: N_1  and  C_2
REMARK    2  A    between atoms: C_2  and  C_3
REMARK    3  A    between atoms: C_3  and  C_4
REMARK    4  A    between atoms: C_7  and  O_8
REMARK                            x       y       z     vdW  Elec       q    Type
REMARK                         _______ _______ _______ _____ _____    ______ ____
ROOT
ATOM      1  C   UNL     1       7.224   5.174  17.271  0.00  0.00    +0.000 A 
ATOM      2  N   UNL     1       7.579   6.446  17.258  0.00  0.00    +0.000 NA
ATOM      3  N   UNL     1       7.951   6.760  18.554  0.00  0.00    +0.000 NA
ATOM      4  C   UNL     1       7.781   5.656  19.231  0.00  0.00    +0.000 A 
ATOM      5  O   UNL     1       7.324   4.604  18.515  0.00  0.00    +0.000 OA
ENDROOT
BRANCH   4   6
ATOM      6  O   UNL     1       8.025   5.468  20.507  0.00  0.00    +0.000 OA
ATOM      7  H   UNL     1       8.963   5.713  20.571  0.00  0.00    +0.000 HD
ENDBRANCH   4   6
BRANCH   1   8
ATOM      8  C   UNL     1       6.759   4.310  16.162  0.00  0.00    +0.000 C 
BRANCH   8   9
ATOM      9  C   UNL     1       5.243   4.113  16.220  0.00  0.00    +0.000 C 
BRANCH   9  10
ATOM     10  N   UNL     1       4.859   3.275  17.358  0.00  0.00    +0.000 NA
ATOM     11  H   UNL     1       4.766   2.308  17.045  0.00  0.00    +0.000 HD
ATOM     12  H   UNL     1       3.934   3.549  17.691  0.00  0.00    +0.000 HD
ENDBRANCH   9  10
ENDBRANCH   8   9
ENDBRANCH   1   8
TORSDOF 4
ENDMDL
MODEL 4
REMARK VINA RESULT:      -4.6     11.945     12.523
REMARK  Name = 
REMARK  4 active torsions:
REMARK  status: ('A' for Active; 'I' for Inactive)
REMARK    1  A    between atoms: N_1  and  C_2
REMARK    2  A    between atoms: C_2  and  C_3
REMARK    3  A    between atoms: C_3  and  C_4
REMARK    4  A    between atoms: C_7  and  O_8
REMARK                            x       y       z     vdW  Elec       q    Type
REMARK                         _______ _______ _______ _____ _____    ______ ____
ROOT
ATOM      1  C   UNL     1       6.530   5.111  16.060  0.00  0.00    +0.000 A 
ATOM      2  N   UNL     1       7.425   5.758  15.335  0.00  0.00    +0.000 NA
ATOM      3  N   UNL     1       7.458   5.126  14.103  0.00  0.00    +0.000 NA
ATOM      4  C   UNL     1       6.588   4.156  14.198  0.00  0.00    +0.000 A 
ATOM      5  O   UNL     1       5.955   4.061  15.389  0.00  0.00    +0.000 OA
ENDROOT
BRANCH   4   6
ATOM      6  O   UNL     1       6.262   3.295  13.262  0.00  0.00    +0.000 OA
ATOM      7  H   UNL     1       6.497   2.448  13.675  0.00  0.00    +0.000 HD
ENDBRANCH   4   6
BRANCH   1   8
ATOM      8  C   UNL     1       6.073   5.365  17.446  0.00  0.00    +0.000 C 
BRANCH   8   9
ATOM      9  C   UNL     1       7.122   4.907  18.460  0.00  0.00    +0.000 C 
BRANCH   9  10
ATOM     10  N   UNL     1       8.185   4.133  17.815  0.00  0.00    +0.000 NA
ATOM     11  H   UNL     1       8.824   3.782  18.529  0.00  0.00    +0.000 HD
ATOM     12  H   UNL     1       8.744   4.744  17.220  0.00  0.00    +0.000 HD
ENDBRANCH   9  10
ENDBRANCH   8   9
ENDBRANCH   1   8
TORSDOF 4
ENDMDL
MODEL 5
REMARK VINA RESULT:      -4.6     10.124     10.593
REMARK  Name = 
REMARK  4 active torsions:
REMARK  status: ('A' for Active; 'I' for Inactive)
REMARK    1  A    between atoms: N_1  and  C_2
REMARK    2  A    between atoms: C_2  and  C_3
REMARK    3  A    between atoms: C_3  and  C_4
REMARK    4  A    between atoms: C_7  and  O_8
REMARK                            x       y       z     vdW  Elec       q    Type
REMARK                         _______ _______ _______ _____ _____    ______ ____
ROOT
ATOM      1  C   UNL     1       5.514   4.334  18.486  0.00  0.00    +0.000 A 
ATOM      2  N   UNL     1       6.530   4.663  19.263  0.00  0.00    +0.000 NA
ATOM      3  N   UNL     1       7.626   4.812  18.430  0.00  0.00    +0.000 NA
ATOM      4  C   UNL     1       7.176   4.553  17.231  0.00  0.00    +0.000 A 
ATOM      5  O   UNL     1       5.863   4.239  17.162  0.00  0.00    +0.000 OA
ENDROOT
BRANCH   4   6
ATOM      6  O   UNL     1       7.856   4.588  16.108  0.00  0.00    +0.000 OA
ATOM      7  H   UNL     1       8.285   5.458  16.161  0.00  0.00    +0.000 HD
ENDBRANCH   4   6
BRANCH   1   8
ATOM      8  C   UNL     1       4.100   4.072  18.838  0.00  0.00    +0.000 C 
BRANCH   8   9
ATOM      9  C   UNL     1       3.892   2.604  19.213  0.00  0.00    +0.000 C 
BRANCH   9  10
ATOM     10  N   UNL     1       5.034   2.080  19.965  0.00  0.00    +0.000 NA
ATOM     11  H   UNL     1       5.877   2.585  19.689  0.00  0.00    +0.000 HD
ATOM     12  H   UNL     1       5.199   1.106  19.708  0.00  0.00    +0.000 HD
ENDBRANCH   9  10
ENDBRANCH   8   9
ENDBRANCH   1   8
TORSDOF 4
ENDMDL
MODEL 6
REMARK VINA RESULT:      -4.6     10.536     11.053
REMARK  Name = 
REMARK  4 active torsions:
REMARK  status: ('A' for Active; 'I' for Inactive)
REMARK    1  A    between atoms: N_1  and  C_2
REMARK    2  A    between atoms: C_2  and  C_3
REMARK    3  A    between atoms: C_3  and  C_4
REMARK    4  A    between atoms: C_7  and  O_8
REMARK                            x       y       z     vdW  Elec       q    Type
REMARK                         _______ _______ _______ _____ _____    ______ ____
ROOT
ATOM      1  C   UNL     1       7.369   5.727  17.168  0.00  0.00    +0.000 A 
ATOM      2  N   UNL     1       7.569   6.188  15.946  0.00  0.00    +0.000 NA
ATOM      3  N   UNL     1       7.116   5.206  15.082  0.00  0.00    +0.000 NA
ATOM      4  C   UNL     1       6.693   4.243  15.856  0.00  0.00    +0.000 A 
ATOM      5  O   UNL     1       6.812   4.473  17.183  0.00  0.00    +0.000 OA
ENDROOT
BRANCH   4   6
ATOM      6  O   UNL     1       6.154   3.106  15.479  0.00  0.00    +0.000 OA
ATOM      7  H   UNL     1       6.463   3.032  14.561  0.00  0.00    +0.000 HD
ENDBRANCH   4   6
BRANCH   1   8
ATOM      8  C   UNL     1       7.647   6.363  18.476  0.00  0.00    +0.000 C 
BRANCH   8   9
ATOM      9  C   UNL     1       7.173   5.477  19.628  0.00  0.00    +0.000 C 
BRANCH   9  10
ATOM     10  N   UNL     1       8.210   5.334  20.652  0.00  0.00    +0.000 NA
ATOM     11  H   UNL     1       8.822   6.151  20.626  0.00  0.00    +0.000 HD
ATOM     12  H   UNL     1       8.806   4.535  20.430  0.00  0.00    +0.000 HD
ENDBRANCH   9  10
ENDBRANCH   8   9
ENDBRANCH   1   8
TORSDOF 4
ENDMDL
MODEL 7
REMARK VINA RESULT:      -4.5     13.660     14.331
REMARK  Name = 
REMARK  4 active torsions:
REMARK  status: ('A' for Active; 'I' for Inactive)
REMARK    1  A    between atoms: N_1  and  C_2
REMARK    2  A    between atoms: C_2  and  C_3
REMARK    3  A    between atoms: C_3  and  C_4
REMARK    4  A    between atoms: C_7  and  O_8
REMARK                            x       y       z     vdW  Elec       q    Type
REMARK                         _______ _______ _______ _____ _____    ______ ____
ROOT
ATOM      1  C   UNL     1       6.914   4.396  13.690  0.00  0.00    +0.000 A 
ATOM      2  N   UNL     1       7.583   5.419  14.190  0.00  0.00    +0.000 NA
ATOM      3  N   UNL     1       7.374   5.390  15.558  0.00  0.00    +0.000 NA
ATOM      4  C   UNL     1       6.595   4.361  15.759  0.00  0.00    +0.000 A 
ATOM      5  O   UNL     1       6.247   3.673  14.648  0.00  0.00    +0.000 OA
ENDROOT
BRANCH   4   6
ATOM      6  O   UNL     1       6.144   3.926  16.913  0.00  0.00    +0.000 OA
ATOM      7  H   UNL     1       5.275   4.358  16.965  0.00  0.00    +0.000 HD
ENDBRANCH   4   6
BRANCH   1   8
ATOM      8  C   UNL     1       6.799   3.935  12.288  0.00  0.00    +0.000 C 
BRANCH   8   9
ATOM      9  C   UNL     1       5.568   3.047  12.102  0.00  0.00    +0.000 C 
BRANCH   9  10
ATOM     10  N   UNL     1       5.936   1.728  11.583  0.00  0.00    +0.000 NA
ATOM     11  H   UNL     1       6.927   1.561  11.764  0.00  0.00    +0.000 HD
ATOM     12  H   UNL     1       5.834   1.716  10.568  0.00  0.00    +0.000 HD
ENDBRANCH   9  10
ENDBRANCH   8   9
ENDBRANCH   1   8
TORSDOF 4
ENDMDL
MODEL 8
REMARK VINA RESULT:      -4.5     12.778     13.482
REMARK  Name = 
REMARK  4 active torsions:
REMARK  status: ('A' for Active; 'I' for Inactive)
REMARK    1  A    between atoms: N_1  and  C_2
REMARK    2  A    between atoms: C_2  and  C_3
REMARK    3  A    between atoms: C_3  and  C_4
REMARK    4  A    between atoms: C_7  and  O_8
REMARK                            x       y       z     vdW  Elec       q    Type
REMARK                         _______ _______ _______ _____ _____    ______ ____
ROOT
ATOM      1  C   UNL     1       6.345   4.378  14.801  0.00  0.00    +0.000 A 
ATOM      2  N   UNL     1       7.258   5.325  14.917  0.00  0.00    +0.000 NA
ATOM      3  N   UNL     1       7.617   5.357  16.254  0.00  0.00    +0.000 NA
ATOM      4  C   UNL     1       6.886   4.435  16.822  0.00  0.00    +0.000 A 
ATOM      5  O   UNL     1       6.052   3.766  15.994  0.00  0.00    +0.000 OA
ENDROOT
BRANCH   4   6
ATOM      6  O   UNL     1       6.898   4.088  18.089  0.00  0.00    +0.000 OA
ATOM      7  H   UNL     1       7.763   4.422  18.380  0.00  0.00    +0.000 HD
ENDBRANCH   4   6
BRANCH   1   8
ATOM      8  C   UNL     1       5.627   3.899  13.598  0.00  0.00    +0.000 C 
BRANCH   8   9
ATOM      9  C   UNL     1       6.601   3.635  12.448  0.00  0.00    +0.000 C 
BRANCH   9  10
ATOM     10  N   UNL     1       6.407   2.298  11.883  0.00  0.00    +0.000 NA
ATOM     11  H   UNL     1       6.562   2.335  10.874  0.00  0.00    +0.000 HD
ATOM     12  H   UNL     1       5.437   2.009  12.004  0.00  0.00    +0.000 HD
ENDBRANCH   9  10
ENDBRANCH   8   9
ENDBRANCH   1   8
TORSDOF 4
ENDMDL
MODEL 9
REMARK VINA RESULT:      -4.4     10.824     11.758
REMARK  Name = 
REMARK  4 active torsions:
REMARK  status: ('A' for Active; 'I' for Inactive)
REMARK    1  A    between atoms: N_1  and  C_2
REMARK    2  A    between atoms: C_2  and  C_3
REMARK    3  A    between atoms: C_3  and  C_4
REMARK    4  A    between atoms: C_7  and  O_8
REMARK                            x       y       z     vdW  Elec       q    Type
REMARK                         _______ _______ _______ _____ _____    ______ ____
ROOT
ATOM      1  C   UNL     1       5.335   4.445  16.571  0.00  0.00    +0.000 A 
ATOM      2  N   UNL     1       6.246   3.846  15.825  0.00  0.00    +0.000 NA
ATOM      3  N   UNL     1       7.315   4.721  15.739  0.00  0.00    +0.000 NA
ATOM      4  C   UNL     1       6.951   5.768  16.430  0.00  0.00    +0.000 A 
ATOM      5  O   UNL     1       5.723   5.692  16.990  0.00  0.00    +0.000 OA
ENDROOT
BRANCH   4   6
ATOM      6  O   UNL     1       7.657   6.854  16.648  0.00  0.00    +0.000 OA
ATOM      7  H   UNL     1       7.353   7.117  17.532  0.00  0.00    +0.000 HD
ENDBRANCH   4   6
BRANCH   1   8
ATOM      8  C   UNL     1       4.004   3.964  17.006  0.00  0.00    +0.000 C 
BRANCH   8   9
ATOM      9  C   UNL     1       4.105   3.186  18.319  0.00  0.00    +0.000 C 
BRANCH   9  10
ATOM     10  N   UNL     1       5.386   3.430  18.985  0.00  0.00    +0.000 NA
ATOM     11  H   UNL     1       5.460   4.421  19.217  0.00  0.00    +0.000 HD
ATOM     12  H   UNL     1       6.153   3.238  18.339  0.00  0.00    +0.000 HD
ENDBRANCH   9  10
ENDBRANCH   8   9
ENDBRANCH   1   8
TORSDOF 4
ENDMDL
