MODEL 1
REMARK VINA RESULT:      -8.6      0.000      0.000
REMARK  Name = 
REMARK  7 active torsions:
REMARK  status: ('A' for Active; 'I' for Inactive)
REMARK    1  A    between atoms: C_2  and  O_3
REMARK    2  A    between atoms: C_2  and  C_4
REMARK    3  A    between atoms: C_4  and  C_5
REMARK    4  A    between atoms: C_14  and  O_15
REMARK    5  A    between atoms: O_15  and  C_16
REMARK    6  A    between atoms: C_16  and  C_17
REMARK    7  A    between atoms: C_22  and  C_23
REMARK                            x       y       z     vdW  Elec       q    Type
REMARK                         _______ _______ _______ _____ _____    ______ ____
ROOT
ATOM      1  C   UNL     1      -3.918  11.672  17.162  0.00  0.00    +0.000 C 
ATOM      2  C   UNL     1      -3.829  10.649  15.957  0.00  0.00    +0.000 C 
ATOM      3  C   UNL     1      -2.381  10.044  15.953  0.00  0.00    +0.000 C 
ATOM      4  C   UNL     1      -1.920  10.349  17.318  0.00  0.00    +0.000 A 
ATOM      5  C   UNL     1      -2.755  11.215  17.955  0.00  0.00    +0.000 A 
ATOM      6  N   UNL     1      -2.249  11.530  19.174  0.00  0.00    +0.000 N 
ATOM      7  C   UNL     1      -1.079  10.805  19.351  0.00  0.00    +0.000 A 
ATOM      8  C   UNL     1      -0.192  10.770  20.433  0.00  0.00    +0.000 A 
ATOM      9  C   UNL     1       0.922   9.925  20.330  0.00  0.00    +0.000 A 
ATOM     10  C   UNL     1       1.142   9.146  19.192  0.00  0.00    +0.000 A 
ATOM     11  C   UNL     1       0.280   9.240  18.094  0.00  0.00    +0.000 A 
ATOM     12  C   UNL     1      -0.858  10.056  18.183  0.00  0.00    +0.000 A 
ATOM     13  H   UNL     1      -2.642  12.197  19.830  0.00  0.00    +0.000 HD
ENDROOT
BRANCH   1  14
ATOM     14  C   UNL     1      -5.259  11.571  17.879  0.00  0.00    +0.000 C 
BRANCH  14  16
ATOM     15  O   UNL     1      -7.008  12.904  16.828  0.00  0.00    +0.000 OA
ATOM     16  C   UNL     1      -6.131  12.789  17.669  0.00  0.00    +0.000 C 
BRANCH  16  17
ATOM     17  O   UNL     1      -5.818  13.797  18.517  0.00  0.00    +0.000 OA
ATOM     18  H   UNL     1      -5.088  13.588  19.129  0.00  0.00    +0.000 HD
ENDBRANCH  16  17
ENDBRANCH  14  16
ENDBRANCH   1  14
BRANCH  10  19
ATOM     19  O   UNL     1       2.231   8.313  19.244  0.00  0.00    +0.000 OA
BRANCH  19  20
ATOM     20  C   UNL     1       2.680   7.839  17.971  0.00  0.00    +0.000 C 
BRANCH  20  21
ATOM     21  C   UNL     1       2.875   6.342  18.001  0.00  0.00    +0.000 A 
ATOM     22  C   UNL     1       3.956   5.773  17.325  0.00  0.00    +0.000 A 
ATOM     23  C   UNL     1       4.151   4.394  17.351  0.00  0.00    +0.000 A 
ATOM     24  C   UNL     1       3.278   3.561  18.061  0.00  0.00    +0.000 A 
ATOM     25 CL   UNL     1       3.616   1.870  17.999  0.00  0.00    +0.000 Cl
ATOM     26  C   UNL     1       2.203   4.105  18.770  0.00  0.00    +0.000 A 
ATOM     27  C   UNL     1       2.021   5.505  18.732  0.00  0.00    +0.000 A 
BRANCH  26  28
ATOM     28  C   UNL     1       1.217   3.311  19.585  0.00  0.00    +0.000 C 
ATOM     29  F   UNL     1       1.735   2.467  20.514  0.00  0.00    +0.000 F 
ATOM     30  F   UNL     1       0.363   4.125  20.272  0.00  0.00    +0.000 F 
ATOM     31  F   UNL     1       0.418   2.533  18.797  0.00  0.00    +0.000 F 
ENDBRANCH  26  28
ENDBRANCH  20  21
ENDBRANCH  19  20
ENDBRANCH  10  19
TORSDOF 7
ENDMDL
MODEL 2
REMARK VINA RESULT:      -8.6      5.042      6.591
REMARK  Name = 
REMARK  7 active torsions:
REMARK  status: ('A' for Active; 'I' for Inactive)
REMARK    1  A    between atoms: C_2  and  O_3
REMARK    2  A    between atoms: C_2  and  C_4
REMARK    3  A    between atoms: C_4  and  C_5
REMARK    4  A    between atoms: C_14  and  O_15
REMARK    5  A    between atoms: O_15  and  C_16
REMARK    6  A    between atoms: C_16  and  C_17
REMARK    7  A    between atoms: C_22  and  C_23
REMARK                            x       y       z     vdW  Elec       q    Type
REMARK                         _______ _______ _______ _____ _____    ______ ____
ROOT
ATOM      1  C   UNL     1       1.071   9.947  20.460  0.00  0.00    +0.000 C 
ATOM      2  C   UNL     1       0.887  10.484  18.982  0.00  0.00    +0.000 C 
ATOM      3  C   UNL     1       1.673   9.520  18.025  0.00  0.00    +0.000 C 
ATOM      4  C   UNL     1       1.835   8.322  18.866  0.00  0.00    +0.000 A 
ATOM      5  C   UNL     1       1.503   8.563  20.164  0.00  0.00    +0.000 A 
ATOM      6  N   UNL     1       1.743   7.459  20.914  0.00  0.00    +0.000 N 
ATOM      7  C   UNL     1       2.196   6.457  20.068  0.00  0.00    +0.000 A 
ATOM      8  C   UNL     1       2.573   5.138  20.346  0.00  0.00    +0.000 A 
ATOM      9  C   UNL     1       2.989   4.343  19.270  0.00  0.00    +0.000 A 
ATOM     10  C   UNL     1       3.028   4.843  17.967  0.00  0.00    +0.000 A 
ATOM     11  C   UNL     1       2.708   6.181  17.714  0.00  0.00    +0.000 A 
ATOM     12  C   UNL     1       2.261   6.991  18.769  0.00  0.00    +0.000 A 
ATOM     13  H   UNL     1       1.638   7.385  21.921  0.00  0.00    +0.000 HD
ENDROOT
BRANCH   1  14
ATOM     14  C   UNL     1      -0.225  10.057  21.255  0.00  0.00    +0.000 C 
BRANCH  14  16
ATOM     15  O   UNL     1       0.807   9.772  23.445  0.00  0.00    +0.000 OA
ATOM     16  C   UNL     1      -0.097   9.522  22.664  0.00  0.00    +0.000 C 
BRANCH  16  17
ATOM     17  O   UNL     1      -1.106   8.678  22.986  0.00  0.00    +0.000 OA
ATOM     18  H   UNL     1      -0.816   7.762  23.161  0.00  0.00    +0.000 HD
ENDBRANCH  16  17
ENDBRANCH  14  16
ENDBRANCH   1  14
BRANCH  10  19
ATOM     19  O   UNL     1       3.390   3.943  16.996  0.00  0.00    +0.000 OA
BRANCH  19  20
ATOM     20  C   UNL     1       4.726   3.446  17.113  0.00  0.00    +0.000 C 
BRANCH  20  21
ATOM     21  C   UNL     1       5.586   3.968  15.987  0.00  0.00    +0.000 A 
ATOM     22  C   UNL     1       6.542   4.952  16.248  0.00  0.00    +0.000 A 
ATOM     23  C   UNL     1       7.346   5.437  15.219  0.00  0.00    +0.000 A 
ATOM     24  C   UNL     1       7.218   4.942  13.916  0.00  0.00    +0.000 A 
ATOM     25 CL   UNL     1       8.258   5.638  12.728  0.00  0.00    +0.000 Cl
ATOM     26  C   UNL     1       6.289   3.937  13.631  0.00  0.00    +0.000 A 
ATOM     27  C   UNL     1       5.482   3.458  14.686  0.00  0.00    +0.000 A 
BRANCH  26  28
ATOM     28  C   UNL     1       6.081   3.315  12.276  0.00  0.00    +0.000 C 
ATOM     29  F   UNL     1       7.162   2.725  11.704  0.00  0.00    +0.000 F 
ATOM     30  F   UNL     1       5.117   2.348  12.310  0.00  0.00    +0.000 F 
ATOM     31  F   UNL     1       5.642   4.228  11.360  0.00  0.00    +0.000 F 
ENDBRANCH  26  28
ENDBRANCH  20  21
ENDBRANCH  19  20
ENDBRANCH  10  19
TORSDOF 7
ENDMDL
MODEL 3
REMARK VINA RESULT:      -8.4      0.897      1.199
REMARK  Name = 
REMARK  7 active torsions:
REMARK  status: ('A' for Active; 'I' for Inactive)
REMARK    1  A    between atoms: C_2  and  O_3
REMARK    2  A    between atoms: C_2  and  C_4
REMARK    3  A    between atoms: C_4  and  C_5
REMARK    4  A    between atoms: C_14  and  O_15
REMARK    5  A    between atoms: O_15  and  C_16
REMARK    6  A    between atoms: C_16  and  C_17
REMARK    7  A    between atoms: C_22  and  C_23
REMARK                            x       y       z     vdW  Elec       q    Type
REMARK                         _______ _______ _______ _____ _____    ______ ____
ROOT
ATOM      1  C   UNL     1      -4.321  11.642  16.996  0.00  0.00    +0.000 C 
ATOM      2  C   UNL     1      -4.084  10.701  15.745  0.00  0.00    +0.000 C 
ATOM      3  C   UNL     1      -2.573  10.277  15.749  0.00  0.00    +0.000 C 
ATOM      4  C   UNL     1      -2.179  10.564  17.138  0.00  0.00    +0.000 A 
ATOM      5  C   UNL     1      -3.126  11.289  17.796  0.00  0.00    +0.000 A 
ATOM      6  N   UNL     1      -2.687  11.598  19.041  0.00  0.00    +0.000 N 
ATOM      7  C   UNL     1      -1.441  11.013  19.213  0.00  0.00    +0.000 A 
ATOM      8  C   UNL     1      -0.578  11.029  20.315  0.00  0.00    +0.000 A 
ATOM      9  C   UNL     1       0.633  10.332  20.199  0.00  0.00    +0.000 A 
ATOM     10  C   UNL     1       0.968   9.645  19.031  0.00  0.00    +0.000 A 
ATOM     11  C   UNL     1       0.124   9.691  17.917  0.00  0.00    +0.000 A 
ATOM     12  C   UNL     1      -1.107  10.357  18.015  0.00  0.00    +0.000 A 
ATOM     13  H   UNL     1      -3.172  12.179  19.719  0.00  0.00    +0.000 HD
ENDROOT
BRANCH   1  14
ATOM     14  C   UNL     1      -5.653  11.342  17.672  0.00  0.00    +0.000 C 
BRANCH  14  16
ATOM     15  O   UNL     1      -5.600  13.158  19.297  0.00  0.00    +0.000 OA
ATOM     16  C   UNL     1      -6.200  12.522  18.444  0.00  0.00    +0.000 C 
BRANCH  16  17
ATOM     17  O   UNL     1      -7.481  12.804  18.113  0.00  0.00    +0.000 OA
ATOM     18  H   UNL     1      -7.879  13.521  18.642  0.00  0.00    +0.000 HD
ENDBRANCH  16  17
ENDBRANCH  14  16
ENDBRANCH   1  14
BRANCH  10  19
ATOM     19  O   UNL     1       2.150   8.948  19.070  0.00  0.00    +0.000 OA
BRANCH  19  20
ATOM     20  C   UNL     1       2.390   8.117  17.930  0.00  0.00    +0.000 C 
BRANCH  20  21
ATOM     21  C   UNL     1       2.892   6.760  18.361  0.00  0.00    +0.000 A 
ATOM     22  C   UNL     1       4.142   6.316  17.923  0.00  0.00    +0.000 A 
ATOM     23  C   UNL     1       4.620   5.069  18.319  0.00  0.00    +0.000 A 
ATOM     24  C   UNL     1       3.866   4.249  19.166  0.00  0.00    +0.000 A 
ATOM     25 CL   UNL     1       4.560   2.721  19.567  0.00  0.00    +0.000 Cl
ATOM     26  C   UNL     1       2.624   4.679  19.643  0.00  0.00    +0.000 A 
ATOM     27  C   UNL     1       2.155   5.946  19.231  0.00  0.00    +0.000 A 
BRANCH  26  28
ATOM     28  C   UNL     1       1.739   3.894  20.575  0.00  0.00    +0.000 C 
ATOM     29  F   UNL     1       1.497   2.601  20.239  0.00  0.00    +0.000 F 
ATOM     30  F   UNL     1       2.255   3.849  21.838  0.00  0.00    +0.000 F 
ATOM     31  F   UNL     1       0.508   4.469  20.709  0.00  0.00    +0.000 F 
ENDBRANCH  26  28
ENDBRANCH  20  21
ENDBRANCH  19  20
ENDBRANCH  10  19
TORSDOF 7
ENDMDL
MODEL 4
REMARK VINA RESULT:      -8.4      4.563      8.893
REMARK  Name = 
REMARK  7 active torsions:
REMARK  status: ('A' for Active; 'I' for Inactive)
REMARK    1  A    between atoms: C_2  and  O_3
REMARK    2  A    between atoms: C_2  and  C_4
REMARK    3  A    between atoms: C_4  and  C_5
REMARK    4  A    between atoms: C_14  and  O_15
REMARK    5  A    between atoms: O_15  and  C_16
REMARK    6  A    between atoms: C_16  and  C_17
REMARK    7  A    between atoms: C_22  and  C_23
REMARK                            x       y       z     vdW  Elec       q    Type
REMARK                         _______ _______ _______ _____ _____    ______ ____
ROOT
ATOM      1  C   UNL     1       3.008   5.914  18.936  0.00  0.00    +0.000 C 
ATOM      2  C   UNL     1       3.491   6.799  17.715  0.00  0.00    +0.000 C 
ATOM      3  C   UNL     1       2.630   8.111  17.709  0.00  0.00    +0.000 C 
ATOM      4  C   UNL     1       2.096   8.131  19.081  0.00  0.00    +0.000 A 
ATOM      5  C   UNL     1       2.311   6.952  19.728  0.00  0.00    +0.000 A 
ATOM      6  N   UNL     1       1.733   6.988  20.954  0.00  0.00    +0.000 N 
ATOM      7  C   UNL     1       1.171   8.245  21.126  0.00  0.00    +0.000 A 
ATOM      8  C   UNL     1       0.470   8.782  22.212  0.00  0.00    +0.000 A 
ATOM      9  C   UNL     1       0.020  10.105  22.101  0.00  0.00    +0.000 A 
ATOM     10  C   UNL     1       0.259  10.862  20.953  0.00  0.00    +0.000 A 
ATOM     11  C   UNL     1       0.905  10.290  19.852  0.00  0.00    +0.000 A 
ATOM     12  C   UNL     1       1.392   8.978  19.947  0.00  0.00    +0.000 A 
ATOM     13  H   UNL     1       1.693   6.221  21.619  0.00  0.00    +0.000 HD
ENDROOT
BRANCH   1  14
ATOM     14  C   UNL     1       4.185   5.254  19.644  0.00  0.00    +0.000 C 
BRANCH  14  16
ATOM     15  O   UNL     1       4.004   3.132  18.457  0.00  0.00    +0.000 OA
ATOM     16  C   UNL     1       4.694   4.028  18.919  0.00  0.00    +0.000 C 
BRANCH  16  17
ATOM     17  O   UNL     1       6.046   3.996  18.850  0.00  0.00    +0.000 OA
ATOM     18  H   UNL     1       6.442   4.799  18.462  0.00  0.00    +0.000 HD
ENDBRANCH  16  17
ENDBRANCH  14  16
ENDBRANCH   1  14
BRANCH  10  19
ATOM     19  O   UNL     1      -0.176  12.163  20.997  0.00  0.00    +0.000 OA
BRANCH  19  20
ATOM     20  C   UNL     1      -0.459  12.740  19.719  0.00  0.00    +0.000 C 
BRANCH  20  21
ATOM     21  C   UNL     1      -1.833  12.331  19.246  0.00  0.00    +0.000 A 
ATOM     22  C   UNL     1      -2.952  12.643  20.022  0.00  0.00    +0.000 A 
ATOM     23  C   UNL     1      -4.225  12.277  19.593  0.00  0.00    +0.000 A 
ATOM     24  C   UNL     1      -4.406  11.604  18.379  0.00  0.00    +0.000 A 
ATOM     25 CL   UNL     1      -6.030  11.189  17.970  0.00  0.00    +0.000 Cl
ATOM     26  C   UNL     1      -3.308  11.303  17.568  0.00  0.00    +0.000 A 
ATOM     27  C   UNL     1      -2.024  11.682  18.019  0.00  0.00    +0.000 A 
BRANCH  26  28
ATOM     28  C   UNL     1      -3.385  10.606  16.235  0.00  0.00    +0.000 C 
ATOM     29  F   UNL     1      -4.516  10.802  15.510  0.00  0.00    +0.000 F 
ATOM     30  F   UNL     1      -2.360  10.979  15.414  0.00  0.00    +0.000 F 
ATOM     31  F   UNL     1      -3.269   9.252  16.365  0.00  0.00    +0.000 F 
ENDBRANCH  26  28
ENDBRANCH  20  21
ENDBRANCH  19  20
ENDBRANCH  10  19
TORSDOF 7
ENDMDL
MODEL 5
REMARK VINA RESULT:      -8.3      1.040      1.452
REMARK  Name = 
REMARK  7 active torsions:
REMARK  status: ('A' for Active; 'I' for Inactive)
REMARK    1  A    between atoms: C_2  and  O_3
REMARK    2  A    between atoms: C_2  and  C_4
REMARK    3  A    between atoms: C_4  and  C_5
REMARK    4  A    between atoms: C_14  and  O_15
REMARK    5  A    between atoms: O_15  and  C_16
REMARK    6  A    between atoms: C_16  and  C_17
REMARK    7  A    between atoms: C_22  and  C_23
REMARK                            x       y       z     vdW  Elec       q    Type
REMARK                         _______ _______ _______ _____ _____    ______ ____
ROOT
ATOM      1  C   UNL     1      -4.312  11.727  16.862  0.00  0.00    +0.000 C 
ATOM      2  C   UNL     1      -3.992  10.550  15.853  0.00  0.00    +0.000 C 
ATOM      3  C   UNL     1      -2.516  10.086  16.116  0.00  0.00    +0.000 C 
ATOM      4  C   UNL     1      -2.261  10.630  17.461  0.00  0.00    +0.000 A 
ATOM      5  C   UNL     1      -3.233  11.501  17.849  0.00  0.00    +0.000 A 
ATOM      6  N   UNL     1      -2.917  12.036  19.054  0.00  0.00    +0.000 N 
ATOM      7  C   UNL     1      -1.731  11.457  19.482  0.00  0.00    +0.000 A 
ATOM      8  C   UNL     1      -0.993  11.663  20.654  0.00  0.00    +0.000 A 
ATOM      9  C   UNL     1       0.183  10.918  20.818  0.00  0.00    +0.000 A 
ATOM     10  C   UNL     1       0.606  10.003  19.853  0.00  0.00    +0.000 A 
ATOM     11  C   UNL     1      -0.108   9.854  18.659  0.00  0.00    +0.000 A 
ATOM     12  C   UNL     1      -1.304  10.566  18.481  0.00  0.00    +0.000 A 
ATOM     13  H   UNL     1      -3.439  12.755  19.545  0.00  0.00    +0.000 HD
ENDROOT
BRANCH   1  14
ATOM     14  C   UNL     1      -5.725  11.610  17.421  0.00  0.00    +0.000 C 
BRANCH  14  16
ATOM     15  O   UNL     1      -6.646  13.747  16.696  0.00  0.00    +0.000 OA
ATOM     16  C   UNL     1      -6.403  12.951  17.589  0.00  0.00    +0.000 C 
BRANCH  16  17
ATOM     17  O   UNL     1      -6.704  13.215  18.883  0.00  0.00    +0.000 OA
ATOM     18  H   UNL     1      -7.255  12.532  19.309  0.00  0.00    +0.000 HD
ENDBRANCH  16  17
ENDBRANCH  14  16
ENDBRANCH   1  14
BRANCH  10  19
ATOM     19  O   UNL     1       1.736   9.290  20.165  0.00  0.00    +0.000 OA
BRANCH  19  20
ATOM     20  C   UNL     1       1.495   8.080  20.890  0.00  0.00    +0.000 C 
BRANCH  20  21
ATOM     21  C   UNL     1       1.809   6.877  20.033  0.00  0.00    +0.000 A 
ATOM     22  C   UNL     1       2.475   7.051  18.817  0.00  0.00    +0.000 A 
ATOM     23  C   UNL     1       2.775   5.948  18.021  0.00  0.00    +0.000 A 
ATOM     24  C   UNL     1       2.427   4.655  18.427  0.00  0.00    +0.000 A 
ATOM     25 CL   UNL     1       2.837   3.377  17.341  0.00  0.00    +0.000 Cl
ATOM     26  C   UNL     1       1.785   4.448  19.651  0.00  0.00    +0.000 A 
ATOM     27  C   UNL     1       1.488   5.577  20.446  0.00  0.00    +0.000 A 
BRANCH  26  28
ATOM     28  C   UNL     1       1.386   3.104  20.199  0.00  0.00    +0.000 C 
ATOM     29  F   UNL     1       0.892   3.084  21.463  0.00  0.00    +0.000 F 
ATOM     30  F   UNL     1       0.428   2.511  19.427  0.00  0.00    +0.000 F 
ATOM     31  F   UNL     1       2.434   2.228  20.207  0.00  0.00    +0.000 F 
ENDBRANCH  26  28
ENDBRANCH  20  21
ENDBRANCH  19  20
ENDBRANCH  10  19
TORSDOF 7
ENDMDL
MODEL 6
REMARK VINA RESULT:      -8.2      5.043      6.662
REMARK  Name = 
REMARK  7 active torsions:
REMARK  status: ('A' for Active; 'I' for Inactive)
REMARK    1  A    between atoms: C_2  and  O_3
REMARK    2  A    between atoms: C_2  and  C_4
REMARK    3  A    between atoms: C_4  and  C_5
REMARK    4  A    between atoms: C_14  and  O_15
REMARK    5  A    between atoms: O_15  and  C_16
REMARK    6  A    between atoms: C_16  and  C_17
REMARK    7  A    between atoms: C_22  and  C_23
REMARK                            x       y       z     vdW  Elec       q    Type
REMARK                         _______ _______ _______ _____ _____    ______ ____
ROOT
ATOM      1  C   UNL     1       1.084   9.532  20.437  0.00  0.00    +0.000 C 
ATOM      2  C   UNL     1       0.969  10.100  18.963  0.00  0.00    +0.000 C 
ATOM      3  C   UNL     1       1.837   9.181  18.031  0.00  0.00    +0.000 C 
ATOM      4  C   UNL     1       1.986   7.968  18.852  0.00  0.00    +0.000 A 
ATOM      5  C   UNL     1       1.573   8.169  20.135  0.00  0.00    +0.000 A 
ATOM      6  N   UNL     1       1.804   7.054  20.872  0.00  0.00    +0.000 N 
ATOM      7  C   UNL     1       2.333   6.086  20.030  0.00  0.00    +0.000 A 
ATOM      8  C   UNL     1       2.733   4.772  20.301  0.00  0.00    +0.000 A 
ATOM      9  C   UNL     1       3.234   4.016  19.232  0.00  0.00    +0.000 A 
ATOM     10  C   UNL     1       3.331   4.548  17.945  0.00  0.00    +0.000 A 
ATOM     11  C   UNL     1       2.987   5.882  17.704  0.00  0.00    +0.000 A 
ATOM     12  C   UNL     1       2.456   6.653  18.750  0.00  0.00    +0.000 A 
ATOM     13  H   UNL     1       1.643   6.953  21.869  0.00  0.00    +0.000 HD
ENDROOT
BRANCH   1  14
ATOM     14  C   UNL     1      -0.257   9.586  21.158  0.00  0.00    +0.000 C 
BRANCH  14  16
ATOM     15  O   UNL     1      -0.899  10.498  23.325  0.00  0.00    +0.000 OA
ATOM     16  C   UNL     1      -0.284  10.604  22.275  0.00  0.00    +0.000 C 
BRANCH  16  17
ATOM     17  O   UNL     1       0.445  11.707  21.983  0.00  0.00    +0.000 OA
ATOM     18  H   UNL     1       1.114  11.930  22.657  0.00  0.00    +0.000 HD
ENDBRANCH  16  17
ENDBRANCH  14  16
ENDBRANCH   1  14
BRANCH  10  19
ATOM     19  O   UNL     1       3.774   3.683  16.976  0.00  0.00    +0.000 OA
BRANCH  19  20
ATOM     20  C   UNL     1       5.161   3.341  17.072  0.00  0.00    +0.000 C 
BRANCH  20  21
ATOM     21  C   UNL     1       5.927   3.903  15.899  0.00  0.00    +0.000 A 
ATOM     22  C   UNL     1       6.896   4.886  16.114  0.00  0.00    +0.000 A 
ATOM     23  C   UNL     1       7.614   5.407  15.040  0.00  0.00    +0.000 A 
ATOM     24  C   UNL     1       7.385   4.951  13.737  0.00  0.00    +0.000 A 
ATOM     25 CL   UNL     1       8.325   5.691  12.492  0.00  0.00    +0.000 Cl
ATOM     26  C   UNL     1       6.442   3.949  13.494  0.00  0.00    +0.000 A 
ATOM     27  C   UNL     1       5.723   3.432  14.595  0.00  0.00    +0.000 A 
BRANCH  26  28
ATOM     28  C   UNL     1       6.130   3.366  12.141  0.00  0.00    +0.000 C 
ATOM     29  F   UNL     1       5.698   4.233  11.190  0.00  0.00    +0.000 F 
ATOM     30  F   UNL     1       7.219   2.747  11.599  0.00  0.00    +0.000 F 
ATOM     31  F   UNL     1       5.166   2.402  12.215  0.00  0.00    +0.000 F 
ENDBRANCH  26  28
ENDBRANCH  20  21
ENDBRANCH  19  20
ENDBRANCH  10  19
TORSDOF 7
ENDMDL
MODEL 7
REMARK VINA RESULT:      -8.1      4.947      9.292
REMARK  Name = 
REMARK  7 active torsions:
REMARK  status: ('A' for Active; 'I' for Inactive)
REMARK    1  A    between atoms: C_2  and  O_3
REMARK    2  A    between atoms: C_2  and  C_4
REMARK    3  A    between atoms: C_4  and  C_5
REMARK    4  A    between atoms: C_14  and  O_15
REMARK    5  A    between atoms: O_15  and  C_16
REMARK    6  A    between atoms: C_16  and  C_17
REMARK    7  A    between atoms: C_22  and  C_23
REMARK                            x       y       z     vdW  Elec       q    Type
REMARK                         _______ _______ _______ _____ _____    ______ ____
ROOT
ATOM      1  C   UNL     1       3.785   3.062  19.720  0.00  0.00    +0.000 C 
ATOM      2  C   UNL     1       2.927   2.713  21.004  0.00  0.00    +0.000 C 
ATOM      3  C   UNL     1       2.410   4.064  21.612  0.00  0.00    +0.000 C 
ATOM      4  C   UNL     1       2.567   4.989  20.476  0.00  0.00    +0.000 A 
ATOM      5  C   UNL     1       3.298   4.437  19.469  0.00  0.00    +0.000 A 
ATOM      6  N   UNL     1       3.486   5.349  18.483  0.00  0.00    +0.000 N 
ATOM      7  C   UNL     1       2.812   6.508  18.839  0.00  0.00    +0.000 A 
ATOM      8  C   UNL     1       2.692   7.729  18.164  0.00  0.00    +0.000 A 
ATOM      9  C   UNL     1       1.930   8.734  18.776  0.00  0.00    +0.000 A 
ATOM     10  C   UNL     1       1.313   8.530  20.012  0.00  0.00    +0.000 A 
ATOM     11  C   UNL     1       1.495   7.328  20.703  0.00  0.00    +0.000 A 
ATOM     12  C   UNL     1       2.228   6.294  20.100  0.00  0.00    +0.000 A 
ATOM     13  H   UNL     1       4.043   5.218  17.645  0.00  0.00    +0.000 HD
ENDROOT
BRANCH   1  14
ATOM     14  C   UNL     1       3.519   2.074  18.590  0.00  0.00    +0.000 C 
BRANCH  14  16
ATOM     15  O   UNL     1       2.087   3.072  16.889  0.00  0.00    +0.000 OA
ATOM     16  C   UNL     1       2.222   2.347  17.863  0.00  0.00    +0.000 C 
BRANCH  16  17
ATOM     17  O   UNL     1       1.171   1.712  18.431  0.00  0.00    +0.000 OA
ATOM     18  H   UNL     1       1.369   1.316  19.301  0.00  0.00    +0.000 HD
ENDBRANCH  16  17
ENDBRANCH  14  16
ENDBRANCH   1  14
BRANCH  10  19
ATOM     19  O   UNL     1       0.542   9.570  20.470  0.00  0.00    +0.000 OA
BRANCH  19  20
ATOM     20  C   UNL     1       0.470  10.692  19.585  0.00  0.00    +0.000 C 
BRANCH  20  21
ATOM     21  C   UNL     1      -0.933  11.247  19.548  0.00  0.00    +0.000 A 
ATOM     22  C   UNL     1      -1.323  12.203  20.490  0.00  0.00    +0.000 A 
ATOM     23  C   UNL     1      -2.613  12.728  20.462  0.00  0.00    +0.000 A 
ATOM     24  C   UNL     1      -3.532  12.318  19.490  0.00  0.00    +0.000 A 
ATOM     25 CL   UNL     1      -5.103  13.028  19.575  0.00  0.00    +0.000 Cl
ATOM     26  C   UNL     1      -3.162  11.384  18.517  0.00  0.00    +0.000 A 
ATOM     27  C   UNL     1      -1.850  10.862  18.561  0.00  0.00    +0.000 A 
BRANCH  26  28
ATOM     28  C   UNL     1      -4.057  10.889  17.412  0.00  0.00    +0.000 C 
ATOM     29  F   UNL     1      -3.570   9.885  16.639  0.00  0.00    +0.000 F 
ATOM     30  F   UNL     1      -5.246  10.426  17.898  0.00  0.00    +0.000 F 
ATOM     31  F   UNL     1      -4.387  11.887  16.542  0.00  0.00    +0.000 F 
ENDBRANCH  26  28
ENDBRANCH  20  21
ENDBRANCH  19  20
ENDBRANCH  10  19
TORSDOF 7
ENDMDL
MODEL 8
REMARK VINA RESULT:      -8.1      1.541      2.021
REMARK  Name = 
REMARK  7 active torsions:
REMARK  status: ('A' for Active; 'I' for Inactive)
REMARK    1  A    between atoms: C_2  and  O_3
REMARK    2  A    between atoms: C_2  and  C_4
REMARK    3  A    between atoms: C_4  and  C_5
REMARK    4  A    between atoms: C_14  and  O_15
REMARK    5  A    between atoms: O_15  and  C_16
REMARK    6  A    between atoms: C_16  and  C_17
REMARK    7  A    between atoms: C_22  and  C_23
REMARK                            x       y       z     vdW  Elec       q    Type
REMARK                         _______ _______ _______ _____ _____    ______ ____
ROOT
ATOM      1  C   UNL     1      -4.172  11.670  16.524  0.00  0.00    +0.000 C 
ATOM      2  C   UNL     1      -3.973  10.461  15.522  0.00  0.00    +0.000 C 
ATOM      3  C   UNL     1      -2.506   9.931  15.701  0.00  0.00    +0.000 C 
ATOM      4  C   UNL     1      -2.141  10.486  17.015  0.00  0.00    +0.000 A 
ATOM      5  C   UNL     1      -3.044  11.410  17.446  0.00  0.00    +0.000 A 
ATOM      6  N   UNL     1      -2.626  11.951  18.617  0.00  0.00    +0.000 N 
ATOM      7  C   UNL     1      -1.444  11.322  18.981  0.00  0.00    +0.000 A 
ATOM      8  C   UNL     1      -0.624  11.514  20.100  0.00  0.00    +0.000 A 
ATOM      9  C   UNL     1       0.523  10.716  20.205  0.00  0.00    +0.000 A 
ATOM     10  C   UNL     1       0.841   9.765  19.234  0.00  0.00    +0.000 A 
ATOM     11  C   UNL     1       0.046   9.629  18.091  0.00  0.00    +0.000 A 
ATOM     12  C   UNL     1      -1.124  10.395  17.974  0.00  0.00    +0.000 A 
ATOM     13  H   UNL     1      -3.082  12.703  19.125  0.00  0.00    +0.000 HD
ENDROOT
BRANCH   1  14
ATOM     14  C   UNL     1      -5.550  11.631  17.173  0.00  0.00    +0.000 C 
BRANCH  14  16
ATOM     15  O   UNL     1      -5.625  11.699  19.609  0.00  0.00    +0.000 OA
ATOM     16  C   UNL     1      -5.576  12.283  18.537  0.00  0.00    +0.000 C 
BRANCH  16  17
ATOM     17  O   UNL     1      -5.571  13.635  18.460  0.00  0.00    +0.000 OA
ATOM     18  H   UNL     1      -4.855  13.998  17.905  0.00  0.00    +0.000 HD
ENDBRANCH  16  17
ENDBRANCH  14  16
ENDBRANCH   1  14
BRANCH  10  19
ATOM     19  O   UNL     1       1.954   9.004  19.489  0.00  0.00    +0.000 OA
BRANCH  19  20
ATOM     20  C   UNL     1       2.308   8.096  18.441  0.00  0.00    +0.000 C 
BRANCH  20  21
ATOM     21  C   UNL     1       2.343   6.678  18.957  0.00  0.00    +0.000 A 
ATOM     22  C   UNL     1       1.920   6.408  20.261  0.00  0.00    +0.000 A 
ATOM     23  C   UNL     1       1.941   5.102  20.746  0.00  0.00    +0.000 A 
ATOM     24  C   UNL     1       2.372   4.045  19.938  0.00  0.00    +0.000 A 
ATOM     25 CL   UNL     1       2.369   2.478  20.663  0.00  0.00    +0.000 Cl
ATOM     26  C   UNL     1       2.775   4.281  18.620  0.00  0.00    +0.000 A 
ATOM     27  C   UNL     1       2.748   5.611  18.145  0.00  0.00    +0.000 A 
BRANCH  26  28
ATOM     28  C   UNL     1       3.235   3.220  17.655  0.00  0.00    +0.000 C 
ATOM     29  F   UNL     1       4.137   2.321  18.124  0.00  0.00    +0.000 F 
ATOM     30  F   UNL     1       2.188   2.475  17.192  0.00  0.00    +0.000 F 
ATOM     31  F   UNL     1       3.811   3.763  16.543  0.00  0.00    +0.000 F 
ENDBRANCH  26  28
ENDBRANCH  20  21
ENDBRANCH  19  20
ENDBRANCH  10  19
TORSDOF 7
ENDMDL
MODEL 9
REMARK VINA RESULT:      -8.1      4.686      8.934
REMARK  Name = 
REMARK  7 active torsions:
REMARK  status: ('A' for Active; 'I' for Inactive)
REMARK    1  A    between atoms: C_2  and  O_3
REMARK    2  A    between atoms: C_2  and  C_4
REMARK    3  A    between atoms: C_4  and  C_5
REMARK    4  A    between atoms: C_14  and  O_15
REMARK    5  A    between atoms: O_15  and  C_16
REMARK    6  A    between atoms: C_16  and  C_17
REMARK    7  A    between atoms: C_22  and  C_23
REMARK                            x       y       z     vdW  Elec       q    Type
REMARK                         _______ _______ _______ _____ _____    ______ ____
ROOT
ATOM      1  C   UNL     1       3.461   3.160  19.896  0.00  0.00    +0.000 C 
ATOM      2  C   UNL     1       2.478   3.184  21.137  0.00  0.00    +0.000 C 
ATOM      3  C   UNL     1       2.137   4.685  21.445  0.00  0.00    +0.000 C 
ATOM      4  C   UNL     1       2.508   5.346  20.183  0.00  0.00    +0.000 A 
ATOM      5  C   UNL     1       3.209   4.517  19.361  0.00  0.00    +0.000 A 
ATOM      6  N   UNL     1       3.598   5.191  18.250  0.00  0.00    +0.000 N 
ATOM      7  C   UNL     1       3.089   6.479  18.331  0.00  0.00    +0.000 A 
ATOM      8  C   UNL     1       3.202   7.555  17.442  0.00  0.00    +0.000 A 
ATOM      9  C   UNL     1       2.566   8.754  17.793  0.00  0.00    +0.000 A 
ATOM     10  C   UNL     1       1.847   8.876  18.983  0.00  0.00    +0.000 A 
ATOM     11  C   UNL     1       1.796   7.813  19.890  0.00  0.00    +0.000 A 
ATOM     12  C   UNL     1       2.399   6.591  19.551  0.00  0.00    +0.000 A 
ATOM     13  H   UNL     1       4.181   4.827  17.503  0.00  0.00    +0.000 HD
ENDROOT
BRANCH   1  14
ATOM     14  C   UNL     1       3.120   2.023  18.940  0.00  0.00    +0.000 C 
BRANCH  14  16
ATOM     15  O   UNL     1       0.755   2.137  18.360  0.00  0.00    +0.000 OA
ATOM     16  C   UNL     1       1.925   2.329  18.065  0.00  0.00    +0.000 C 
BRANCH  16  17
ATOM     17  O   UNL     1       2.285   2.830  16.860  0.00  0.00    +0.000 OA
ATOM     18  H   UNL     1       3.184   3.209  16.841  0.00  0.00    +0.000 HD
ENDBRANCH  16  17
ENDBRANCH  14  16
ENDBRANCH   1  14
BRANCH  10  19
ATOM     19  O   UNL     1       1.217  10.080  19.176  0.00  0.00    +0.000 OA
BRANCH  19  20
ATOM     20  C   UNL     1       0.057  10.018  20.012  0.00  0.00    +0.000 C 
BRANCH  20  21
ATOM     21  C   UNL     1      -1.157  10.525  19.271  0.00  0.00    +0.000 A 
ATOM     22  C   UNL     1      -1.985  11.476  19.872  0.00  0.00    +0.000 A 
ATOM     23  C   UNL     1      -3.104  11.956  19.196  0.00  0.00    +0.000 A 
ATOM     24  C   UNL     1      -3.410  11.505  17.907  0.00  0.00    +0.000 A 
ATOM     25 CL   UNL     1      -4.834  12.161  17.185  0.00  0.00    +0.000 Cl
ATOM     26  C   UNL     1      -2.584  10.574  17.270  0.00  0.00    +0.000 A 
ATOM     27  C   UNL     1      -1.454  10.098  17.970  0.00  0.00    +0.000 A 
BRANCH  26  28
ATOM     28  C   UNL     1      -2.802  10.037  15.880  0.00  0.00    +0.000 C 
ATOM     29  F   UNL     1      -1.961   9.053  15.469  0.00  0.00    +0.000 F 
ATOM     30  F   UNL     1      -4.058   9.525  15.731  0.00  0.00    +0.000 F 
ATOM     31  F   UNL     1      -2.698  11.018  14.936  0.00  0.00    +0.000 F 
ENDBRANCH  26  28
ENDBRANCH  20  21
ENDBRANCH  19  20
ENDBRANCH  10  19
TORSDOF 7
ENDMDL
