MODEL 1
REMARK VINA RESULT:      -6.2      0.000      0.000
REMARK  Name = 
REMARK  8 active torsions:
REMARK  status: ('A' for Active; 'I' for Inactive)
REMARK    1  A    between atoms: C_1  and  O_2
REMARK    2  A    between atoms: O_2  and  C_3
REMARK    3  A    between atoms: C_12  and  O_13
REMARK    4  A    between atoms: O_13  and  C_14
REMARK    5  A    between atoms: C_14  and  C_15
REMARK    6  A    between atoms: N_21  and  C_22
REMARK    7  A    between atoms: C_25  and  C_26
REMARK    8  A    between atoms: N_33  and  C_34
REMARK                            x       y       z     vdW  Elec       q    Type
REMARK                         _______ _______ _______ _____ _____    ______ ____
ROOT
ATOM      1  C   UNL     1      -5.975  12.336  18.473  0.00  0.00    +0.000 A 
ATOM      2  C   UNL     1      -5.197  11.531  17.616  0.00  0.00    +0.000 A 
ATOM      3  C   UNL     1      -3.861  11.204  17.861  0.00  0.00    +0.000 A 
ATOM      4  N   UNL     1      -3.241  10.379  17.009  0.00  0.00    +0.000 NA
ATOM      5  C   UNL     1      -1.953  10.047  17.228  0.00  0.00    +0.000 A 
ATOM      6  C   UNL     1      -1.259  10.539  18.302  0.00  0.00    +0.000 A 
ATOM      7  C   UNL     1      -1.876  11.394  19.218  0.00  0.00    +0.000 A 
ATOM      8  C   UNL     1      -3.223  11.753  18.987  0.00  0.00    +0.000 A 
ATOM      9  C   UNL     1      -4.005  12.634  19.732  0.00  0.00    +0.000 A 
ATOM     10  C   UNL     1      -5.366  12.886  19.577  0.00  0.00    +0.000 A 
ATOM     11  N   UNL     1      -0.869  11.739  20.173  0.00  0.00    +0.000 N 
ATOM     12  C   UNL     1       0.353  11.092  19.801  0.00  0.00    +0.000 A 
ATOM     13  O   UNL     1       1.437  11.131  20.363  0.00  0.00    +0.000 OA
ATOM     14  N   UNL     1       0.076  10.349  18.651  0.00  0.00    +0.000 N 
ATOM     15  C   UNL     1       1.015   9.523  17.945  0.00  0.00    +0.000 C 
ENDROOT
BRANCH  11  16
ATOM     16  C   UNL     1      -0.971  12.518  21.347  0.00  0.00    +0.000 A 
ATOM     17  C   UNL     1      -1.692  12.026  22.442  0.00  0.00    +0.000 A 
ATOM     18  C   UNL     1      -1.930  12.805  23.580  0.00  0.00    +0.000 A 
ATOM     19  C   UNL     1      -1.420  14.098  23.659  0.00  0.00    +0.000 A 
ATOM     20  C   UNL     1      -0.692  14.606  22.600  0.00  0.00    +0.000 A 
ATOM     21  C   UNL     1      -0.538  13.842  21.454  0.00  0.00    +0.000 A 
ATOM     22  F   UNL     1      -0.154  14.530  20.381  0.00  0.00    +0.000 F 
BRANCH  19  23
ATOM     23  C   UNL     1      -1.674  14.905  24.797  0.00  0.00    +0.000 C 
ATOM     24  N   UNL     1      -1.881  15.580  25.756  0.00  0.00    +0.000 NA
ENDBRANCH  19  23
ENDBRANCH  11  16
BRANCH   1  26
ATOM     25  C   UNL     1      -7.892  13.525  17.613  0.00  0.00    +0.000 C 
ATOM     26  O   UNL     1      -7.303  12.346  18.147  0.00  0.00    +0.000 OA
ENDBRANCH   1  26
BRANCH  10  27
ATOM     27  O   UNL     1      -5.970  13.620  20.584  0.00  0.00    +0.000 OA
BRANCH  27  28
ATOM     28  C   UNL     1      -5.249  13.516  21.834  0.00  0.00    +0.000 C 
BRANCH  28  29
ATOM     29  C   UNL     1      -4.871  14.784  22.514  0.00  0.00    +0.000 A 
ATOM     30  C   UNL     1      -5.351  15.084  23.781  0.00  0.00    +0.000 A 
ATOM     31  C   UNL     1      -5.105  16.342  24.312  0.00  0.00    +0.000 A 
ATOM     32  C   UNL     1      -4.355  17.278  23.599  0.00  0.00    +0.000 A 
ATOM     33  C   UNL     1      -3.855  16.968  22.336  0.00  0.00    +0.000 A 
ATOM     34  C   UNL     1      -4.116  15.721  21.792  0.00  0.00    +0.000 A 
ENDBRANCH  28  29
ENDBRANCH  27  28
ENDBRANCH  10  27
TORSDOF 6
ENDMDL
MODEL 2
REMARK VINA RESULT:      -6.1      2.671      8.099
REMARK  Name = 
REMARK  8 active torsions:
REMARK  status: ('A' for Active; 'I' for Inactive)
REMARK    1  A    between atoms: C_1  and  O_2
REMARK    2  A    between atoms: O_2  and  C_3
REMARK    3  A    between atoms: C_12  and  O_13
REMARK    4  A    between atoms: O_13  and  C_14
REMARK    5  A    between atoms: C_14  and  C_15
REMARK    6  A    between atoms: N_21  and  C_22
REMARK    7  A    between atoms: C_25  and  C_26
REMARK    8  A    between atoms: N_33  and  C_34
REMARK                            x       y       z     vdW  Elec       q    Type
REMARK                         _______ _______ _______ _____ _____    ______ ____
ROOT
ATOM      1  C   UNL     1       0.164  13.159  21.070  0.00  0.00    +0.000 A 
ATOM      2  C   UNL     1      -0.954  13.363  21.904  0.00  0.00    +0.000 A 
ATOM      3  C   UNL     1      -2.261  13.025  21.544  0.00  0.00    +0.000 A 
ATOM      4  N   UNL     1      -3.236  13.205  22.443  0.00  0.00    +0.000 NA
ATOM      5  C   UNL     1      -4.503  12.883  22.118  0.00  0.00    +0.000 A 
ATOM      6  C   UNL     1      -4.821  12.379  20.884  0.00  0.00    +0.000 A 
ATOM      7  C   UNL     1      -3.829  12.167  19.924  0.00  0.00    +0.000 A 
ATOM      8  C   UNL     1      -2.500  12.513  20.257  0.00  0.00    +0.000 A 
ATOM      9  C   UNL     1      -1.376  12.445  19.436  0.00  0.00    +0.000 A 
ATOM     10  C   UNL     1      -0.051  12.664  19.805  0.00  0.00    +0.000 A 
ATOM     11  N   UNL     1      -4.504  11.678  18.763  0.00  0.00    +0.000 N 
ATOM     12  C   UNL     1      -5.908  11.619  19.043  0.00  0.00    +0.000 A 
ATOM     13  O   UNL     1      -6.815  11.250  18.312  0.00  0.00    +0.000 OA
ATOM     14  N   UNL     1      -6.069  12.045  20.363  0.00  0.00    +0.000 N 
ATOM     15  C   UNL     1      -7.318  12.124  21.068  0.00  0.00    +0.000 C 
ENDROOT
BRANCH  11  16
ATOM     16  C   UNL     1      -3.972  11.239  17.530  0.00  0.00    +0.000 A 
ATOM     17  C   UNL     1      -4.481  11.760  16.333  0.00  0.00    +0.000 A 
ATOM     18  C   UNL     1      -4.079  11.271  15.085  0.00  0.00    +0.000 A 
ATOM     19  C   UNL     1      -3.127  10.258  15.008  0.00  0.00    +0.000 A 
ATOM     20  C   UNL     1      -2.595   9.734  16.171  0.00  0.00    +0.000 A 
ATOM     21  C   UNL     1      -3.069  10.182  17.394  0.00  0.00    +0.000 A 
ATOM     22  F   UNL     1      -2.779   9.387  18.421  0.00  0.00    +0.000 F 
BRANCH  19  23
ATOM     23  C   UNL     1      -2.729   9.738  13.749  0.00  0.00    +0.000 C 
ATOM     24  N   UNL     1      -2.396   9.295  12.695  0.00  0.00    +0.000 NA
ENDBRANCH  19  23
ENDBRANCH  11  16
BRANCH   1  26
ATOM     25  C   UNL     1       2.537  13.585  20.943  0.00  0.00    +0.000 C 
ATOM     26  O   UNL     1       1.358  13.363  21.706  0.00  0.00    +0.000 OA
ENDBRANCH   1  26
BRANCH  10  27
ATOM     27  O   UNL     1       0.910  12.306  18.874  0.00  0.00    +0.000 OA
BRANCH  27  28
ATOM     28  C   UNL     1       0.548  11.101  18.161  0.00  0.00    +0.000 C 
BRANCH  28  29
ATOM     29  C   UNL     1       1.053   9.809  18.697  0.00  0.00    +0.000 A 
ATOM     30  C   UNL     1       0.858   9.463  20.026  0.00  0.00    +0.000 A 
ATOM     31  C   UNL     1       1.481   8.327  20.523  0.00  0.00    +0.000 A 
ATOM     32  C   UNL     1       2.262   7.524  19.690  0.00  0.00    +0.000 A 
ATOM     33  C   UNL     1       2.440   7.861  18.350  0.00  0.00    +0.000 A 
ATOM     34  C   UNL     1       1.838   9.006  17.853  0.00  0.00    +0.000 A 
ENDBRANCH  28  29
ENDBRANCH  27  28
ENDBRANCH  10  27
TORSDOF 6
ENDMDL
MODEL 3
REMARK VINA RESULT:      -6.1      2.385      5.824
REMARK  Name = 
REMARK  8 active torsions:
REMARK  status: ('A' for Active; 'I' for Inactive)
REMARK    1  A    between atoms: C_1  and  O_2
REMARK    2  A    between atoms: O_2  and  C_3
REMARK    3  A    between atoms: C_12  and  O_13
REMARK    4  A    between atoms: O_13  and  C_14
REMARK    5  A    between atoms: C_14  and  C_15
REMARK    6  A    between atoms: N_21  and  C_22
REMARK    7  A    between atoms: C_25  and  C_26
REMARK    8  A    between atoms: N_33  and  C_34
REMARK                            x       y       z     vdW  Elec       q    Type
REMARK                         _______ _______ _______ _____ _____    ______ ____
ROOT
ATOM      1  C   UNL     1       0.208  10.190  18.383  0.00  0.00    +0.000 A 
ATOM      2  C   UNL     1      -0.998   9.941  17.699  0.00  0.00    +0.000 A 
ATOM      3  C   UNL     1      -2.204  10.580  17.997  0.00  0.00    +0.000 A 
ATOM      4  N   UNL     1      -3.273  10.309  17.237  0.00  0.00    +0.000 NA
ATOM      5  C   UNL     1      -4.446  10.917  17.505  0.00  0.00    +0.000 A 
ATOM      6  C   UNL     1      -4.574  11.802  18.542  0.00  0.00    +0.000 A 
ATOM      7  C   UNL     1      -3.479  12.117  19.350  0.00  0.00    +0.000 A 
ATOM      8  C   UNL     1      -2.249  11.475  19.079  0.00  0.00    +0.000 A 
ATOM      9  C   UNL     1      -1.057  11.593  19.792  0.00  0.00    +0.000 A 
ATOM     10  C   UNL     1       0.183  11.060  19.449  0.00  0.00    +0.000 A 
ATOM     11  N   UNL     1      -3.968  13.027  20.338  0.00  0.00    +0.000 N 
ATOM     12  C   UNL     1      -5.368  13.233  20.115  0.00  0.00    +0.000 A 
ATOM     13  O   UNL     1      -6.142  13.942  20.740  0.00  0.00    +0.000 OA
ATOM     14  N   UNL     1      -5.708  12.474  18.992  0.00  0.00    +0.000 N 
ATOM     15  C   UNL     1      -7.014  12.402  18.400  0.00  0.00    +0.000 C 
ENDROOT
BRANCH  11  16
ATOM     16  C   UNL     1      -3.268  13.711  21.358  0.00  0.00    +0.000 A 
ATOM     17  C   UNL     1      -2.615  14.913  21.060  0.00  0.00    +0.000 A 
ATOM     18  C   UNL     1      -1.806  15.565  21.998  0.00  0.00    +0.000 A 
ATOM     19  C   UNL     1      -1.656  15.036  23.277  0.00  0.00    +0.000 A 
ATOM     20  C   UNL     1      -2.300  13.858  23.605  0.00  0.00    +0.000 A 
ATOM     21  C   UNL     1      -3.031  13.193  22.633  0.00  0.00    +0.000 A 
ATOM     22  F   UNL     1      -3.301  11.922  22.923  0.00  0.00    +0.000 F 
BRANCH  19  23
ATOM     23  C   UNL     1      -0.820  15.676  24.228  0.00  0.00    +0.000 C 
ATOM     24  N   UNL     1      -0.113  16.214  25.021  0.00  0.00    +0.000 NA
ENDBRANCH  19  23
ENDBRANCH  11  16
BRANCH   1  26
ATOM     25  C   UNL     1       1.979   8.549  18.434  0.00  0.00    +0.000 C 
ATOM     26  O   UNL     1       1.297   9.617  17.786  0.00  0.00    +0.000 OA
ENDBRANCH   1  26
BRANCH  10  27
ATOM     27  O   UNL     1       1.266  11.509  20.185  0.00  0.00    +0.000 OA
BRANCH  27  28
ATOM     28  C   UNL     1       1.142  12.909  20.529  0.00  0.00    +0.000 C 
BRANCH  28  29
ATOM     29  C   UNL     1       1.688  13.902  19.566  0.00  0.00    +0.000 A 
ATOM     30  C   UNL     1       2.890  13.675  18.911  0.00  0.00    +0.000 A 
ATOM     31  C   UNL     1       3.440  14.693  18.145  0.00  0.00    +0.000 A 
ATOM     32  C   UNL     1       2.777  15.913  18.006  0.00  0.00    +0.000 A 
ATOM     33  C   UNL     1       1.560  16.132  18.646  0.00  0.00    +0.000 A 
ATOM     34  C   UNL     1       1.016  15.128  19.429  0.00  0.00    +0.000 A 
ENDBRANCH  28  29
ENDBRANCH  27  28
ENDBRANCH  10  27
TORSDOF 6
ENDMDL
MODEL 4
REMARK VINA RESULT:      -6.0      2.413      5.994
REMARK  Name = 
REMARK  8 active torsions:
REMARK  status: ('A' for Active; 'I' for Inactive)
REMARK    1  A    between atoms: C_1  and  O_2
REMARK    2  A    between atoms: O_2  and  C_3
REMARK    3  A    between atoms: C_12  and  O_13
REMARK    4  A    between atoms: O_13  and  C_14
REMARK    5  A    between atoms: C_14  and  C_15
REMARK    6  A    between atoms: N_21  and  C_22
REMARK    7  A    between atoms: C_25  and  C_26
REMARK    8  A    between atoms: N_33  and  C_34
REMARK                            x       y       z     vdW  Elec       q    Type
REMARK                         _______ _______ _______ _____ _____    ______ ____
ROOT
ATOM      1  C   UNL     1      -6.346  12.995  18.989  0.00  0.00    +0.000 A 
ATOM      2  C   UNL     1      -6.800  14.107  19.725  0.00  0.00    +0.000 A 
ATOM      3  C   UNL     1      -6.128  14.629  20.834  0.00  0.00    +0.000 A 
ATOM      4  N   UNL     1      -6.621  15.729  21.417  0.00  0.00    +0.000 NA
ATOM      5  C   UNL     1      -5.987  16.251  22.485  0.00  0.00    +0.000 A 
ATOM      6  C   UNL     1      -4.851  15.680  22.994  0.00  0.00    +0.000 A 
ATOM      7  C   UNL     1      -4.301  14.538  22.407  0.00  0.00    +0.000 A 
ATOM      8  C   UNL     1      -4.969  13.981  21.292  0.00  0.00    +0.000 A 
ATOM      9  C   UNL     1      -4.633  12.820  20.598  0.00  0.00    +0.000 A 
ATOM     10  C   UNL     1      -5.215  12.344  19.425  0.00  0.00    +0.000 A 
ATOM     11  N   UNL     1      -3.163  14.196  23.200  0.00  0.00    +0.000 N 
ATOM     12  C   UNL     1      -3.056  15.138  24.273  0.00  0.00    +0.000 A 
ATOM     13  O   UNL     1      -2.217  15.190  25.160  0.00  0.00    +0.000 OA
ATOM     14  N   UNL     1      -4.104  16.048  24.111  0.00  0.00    +0.000 N 
ATOM     15  C   UNL     1      -4.365  17.179  24.956  0.00  0.00    +0.000 C 
ENDROOT
BRANCH  11  16
ATOM     16  C   UNL     1      -2.209  13.172  23.011  0.00  0.00    +0.000 A 
ATOM     17  C   UNL     1      -1.110  13.397  22.173  0.00  0.00    +0.000 A 
ATOM     18  C   UNL     1      -0.204  12.379  21.853  0.00  0.00    +0.000 A 
ATOM     19  C   UNL     1      -0.366  11.107  22.394  0.00  0.00    +0.000 A 
ATOM     20  C   UNL     1      -1.433  10.858  23.236  0.00  0.00    +0.000 A 
ATOM     21  C   UNL     1      -2.357  11.862  23.475  0.00  0.00    +0.000 A 
ATOM     22  F   UNL     1      -3.512  11.437  23.982  0.00  0.00    +0.000 F 
BRANCH  19  23
ATOM     23  C   UNL     1       0.532  10.062  22.058  0.00  0.00    +0.000 C 
ATOM     24  N   UNL     1       1.292   9.189  21.775  0.00  0.00    +0.000 NA
ENDBRANCH  19  23
ENDBRANCH  11  16
BRANCH   1  26
ATOM     25  C   UNL     1      -6.896  13.713  16.750  0.00  0.00    +0.000 C 
ATOM     26  O   UNL     1      -7.041  12.795  17.827  0.00  0.00    +0.000 OA
ENDBRANCH   1  26
BRANCH  10  27
ATOM     27  O   UNL     1      -4.557  11.301  18.796  0.00  0.00    +0.000 OA
BRANCH  27  28
ATOM     28  C   UNL     1      -3.569  11.777  17.852  0.00  0.00    +0.000 C 
BRANCH  28  29
ATOM     29  C   UNL     1      -2.137  11.571  18.196  0.00  0.00    +0.000 A 
ATOM     30  C   UNL     1      -1.267  12.647  18.303  0.00  0.00    +0.000 A 
ATOM     31  C   UNL     1       0.089  12.400  18.468  0.00  0.00    +0.000 A 
ATOM     32  C   UNL     1       0.565  11.091  18.562  0.00  0.00    +0.000 A 
ATOM     33  C   UNL     1      -0.312  10.013  18.476  0.00  0.00    +0.000 A 
ATOM     34  C   UNL     1      -1.664  10.252  18.290  0.00  0.00    +0.000 A 
ENDBRANCH  28  29
ENDBRANCH  27  28
ENDBRANCH  10  27
TORSDOF 6
ENDMDL
MODEL 5
REMARK VINA RESULT:      -6.0      2.112      5.496
REMARK  Name = 
REMARK  8 active torsions:
REMARK  status: ('A' for Active; 'I' for Inactive)
REMARK    1  A    between atoms: C_1  and  O_2
REMARK    2  A    between atoms: O_2  and  C_3
REMARK    3  A    between atoms: C_12  and  O_13
REMARK    4  A    between atoms: O_13  and  C_14
REMARK    5  A    between atoms: C_14  and  C_15
REMARK    6  A    between atoms: N_21  and  C_22
REMARK    7  A    between atoms: C_25  and  C_26
REMARK    8  A    between atoms: N_33  and  C_34
REMARK                            x       y       z     vdW  Elec       q    Type
REMARK                         _______ _______ _______ _____ _____    ______ ____
ROOT
ATOM      1  C   UNL     1       0.498  10.191  18.213  0.00  0.00    +0.000 A 
ATOM      2  C   UNL     1      -0.714   9.853  17.580  0.00  0.00    +0.000 A 
ATOM      3  C   UNL     1      -1.943  10.438  17.895  0.00  0.00    +0.000 A 
ATOM      4  N   UNL     1      -3.019  10.083  17.182  0.00  0.00    +0.000 NA
ATOM      5  C   UNL     1      -4.213  10.638  17.468  0.00  0.00    +0.000 A 
ATOM      6  C   UNL     1      -4.356  11.554  18.475  0.00  0.00    +0.000 A 
ATOM      7  C   UNL     1      -3.254  11.957  19.234  0.00  0.00    +0.000 A 
ATOM      8  C   UNL     1      -2.001  11.371  18.945  0.00  0.00    +0.000 A 
ATOM      9  C   UNL     1      -0.795  11.578  19.612  0.00  0.00    +0.000 A 
ATOM     10  C   UNL     1       0.461  11.098  19.246  0.00  0.00    +0.000 A 
ATOM     11  N   UNL     1      -3.760  12.877  20.204  0.00  0.00    +0.000 N 
ATOM     12  C   UNL     1      -5.175  13.000  20.021  0.00  0.00    +0.000 A 
ATOM     13  O   UNL     1      -5.966  13.691  20.646  0.00  0.00    +0.000 OA
ATOM     14  N   UNL     1      -5.509  12.183  18.939  0.00  0.00    +0.000 N 
ATOM     15  C   UNL     1      -6.828  12.019  18.394  0.00  0.00    +0.000 C 
ENDROOT
BRANCH  11  16
ATOM     16  C   UNL     1      -3.066  13.635  21.174  0.00  0.00    +0.000 A 
ATOM     17  C   UNL     1      -2.462  14.843  20.804  0.00  0.00    +0.000 A 
ATOM     18  C   UNL     1      -1.659  15.569  21.691  0.00  0.00    +0.000 A 
ATOM     19  C   UNL     1      -1.465  15.110  22.991  0.00  0.00    +0.000 A 
ATOM     20  C   UNL     1      -2.060  13.928  23.390  0.00  0.00    +0.000 A 
ATOM     21  C   UNL     1      -2.785  13.190  22.468  0.00  0.00    +0.000 A 
ATOM     22  F   UNL     1      -3.003  11.926  22.825  0.00  0.00    +0.000 F 
BRANCH  19  23
ATOM     23  C   UNL     1      -0.635  15.826  23.891  0.00  0.00    +0.000 C 
ATOM     24  N   UNL     1       0.058  16.425  24.652  0.00  0.00    +0.000 NA
ENDBRANCH  19  23
ENDBRANCH  11  16
BRANCH   1  26
ATOM     25  C   UNL     1       2.102   8.395  18.031  0.00  0.00    +0.000 C 
ATOM     26  O   UNL     1       1.597   9.653  17.601  0.00  0.00    +0.000 OA
ENDBRANCH   1  26
BRANCH  10  27
ATOM     27  O   UNL     1       1.541  11.631  19.929  0.00  0.00    +0.000 OA
BRANCH  27  28
ATOM     28  C   UNL     1       1.128  12.601  20.920  0.00  0.00    +0.000 C 
BRANCH  28  29
ATOM     29  C   UNL     1       1.524  14.017  20.700  0.00  0.00    +0.000 A 
ATOM     30  C   UNL     1       2.141  14.750  21.704  0.00  0.00    +0.000 A 
ATOM     31  C   UNL     1       2.349  16.109  21.513  0.00  0.00    +0.000 A 
ATOM     32  C   UNL     1       1.978  16.721  20.315  0.00  0.00    +0.000 A 
ATOM     33  C   UNL     1       1.379  15.980  19.299  0.00  0.00    +0.000 A 
ATOM     34  C   UNL     1       1.149  14.628  19.492  0.00  0.00    +0.000 A 
ENDBRANCH  28  29
ENDBRANCH  27  28
ENDBRANCH  10  27
TORSDOF 6
ENDMDL
MODEL 6
REMARK VINA RESULT:      -6.0      2.634      6.824
REMARK  Name = 
REMARK  8 active torsions:
REMARK  status: ('A' for Active; 'I' for Inactive)
REMARK    1  A    between atoms: C_1  and  O_2
REMARK    2  A    between atoms: O_2  and  C_3
REMARK    3  A    between atoms: C_12  and  O_13
REMARK    4  A    between atoms: O_13  and  C_14
REMARK    5  A    between atoms: C_14  and  C_15
REMARK    6  A    between atoms: N_21  and  C_22
REMARK    7  A    between atoms: C_25  and  C_26
REMARK    8  A    between atoms: N_33  and  C_34
REMARK                            x       y       z     vdW  Elec       q    Type
REMARK                         _______ _______ _______ _____ _____    ______ ____
ROOT
ATOM      1  C   UNL     1      -3.486  13.711  23.823  0.00  0.00    +0.000 A 
ATOM      2  C   UNL     1      -4.731  14.051  23.259  0.00  0.00    +0.000 A 
ATOM      3  C   UNL     1      -5.116  13.701  21.962  0.00  0.00    +0.000 A 
ATOM      4  N   UNL     1      -6.350  14.024  21.556  0.00  0.00    +0.000 NA
ATOM      5  C   UNL     1      -6.744  13.693  20.310  0.00  0.00    +0.000 A 
ATOM      6  C   UNL     1      -5.908  13.037  19.445  0.00  0.00    +0.000 A 
ATOM      7  C   UNL     1      -4.618  12.673  19.837  0.00  0.00    +0.000 A 
ATOM      8  C   UNL     1      -4.197  13.028  21.139  0.00  0.00    +0.000 A 
ATOM      9  C   UNL     1      -2.942  12.822  21.709  0.00  0.00    +0.000 A 
ATOM     10  C   UNL     1      -2.571  13.056  23.031  0.00  0.00    +0.000 A 
ATOM     11  N   UNL     1      -4.021  12.050  18.698  0.00  0.00    +0.000 N 
ATOM     12  C   UNL     1      -4.967  12.064  17.623  0.00  0.00    +0.000 A 
ATOM     13  O   UNL     1      -4.840  11.623  16.490  0.00  0.00    +0.000 OA
ATOM     14  N   UNL     1      -6.126  12.667  18.120  0.00  0.00    +0.000 N 
ATOM     15  C   UNL     1      -7.342  12.870  17.383  0.00  0.00    +0.000 C 
ENDROOT
BRANCH  11  16
ATOM     16  C   UNL     1      -2.755  11.437  18.567  0.00  0.00    +0.000 A 
ATOM     17  C   UNL     1      -1.602  12.230  18.552  0.00  0.00    +0.000 A 
ATOM     18  C   UNL     1      -0.336  11.689  18.300  0.00  0.00    +0.000 A 
ATOM     19  C   UNL     1      -0.194  10.320  18.084  0.00  0.00    +0.000 A 
ATOM     20  C   UNL     1      -1.312   9.509  18.108  0.00  0.00    +0.000 A 
ATOM     21  C   UNL     1      -2.562  10.083  18.282  0.00  0.00    +0.000 A 
ATOM     22  F   UNL     1      -3.580   9.300  17.932  0.00  0.00    +0.000 F 
BRANCH  19  23
ATOM     23  C   UNL     1       1.081   9.764  17.805  0.00  0.00    +0.000 C 
ATOM     24  N   UNL     1       2.148   9.290  17.570  0.00  0.00    +0.000 NA
ENDBRANCH  19  23
ENDBRANCH  11  16
BRANCH   1  26
ATOM     25  C   UNL     1      -2.657  15.081  25.631  0.00  0.00    +0.000 C 
ATOM     26  O   UNL     1      -3.411  13.968  25.165  0.00  0.00    +0.000 OA
ENDBRANCH   1  26
BRANCH  10  27
ATOM     27  O   UNL     1      -1.340  12.553  23.419  0.00  0.00    +0.000 OA
BRANCH  27  28
ATOM     28  C   UNL     1      -0.490  12.272  22.282  0.00  0.00    +0.000 C 
BRANCH  28  29
ATOM     29  C   UNL     1      -0.022  10.872  22.105  0.00  0.00    +0.000 A 
ATOM     30  C   UNL     1       1.151  10.592  21.420  0.00  0.00    +0.000 A 
ATOM     31  C   UNL     1       1.467   9.270  21.141  0.00  0.00    +0.000 A 
ATOM     32  C   UNL     1       0.637   8.235  21.575  0.00  0.00    +0.000 A 
ATOM     33  C   UNL     1      -0.529   8.516  22.283  0.00  0.00    +0.000 A 
ATOM     34  C   UNL     1      -0.861   9.835  22.546  0.00  0.00    +0.000 A 
ENDBRANCH  28  29
ENDBRANCH  27  28
ENDBRANCH  10  27
TORSDOF 6
ENDMDL
MODEL 7
REMARK VINA RESULT:      -6.0      2.649      6.086
REMARK  Name = 
REMARK  8 active torsions:
REMARK  status: ('A' for Active; 'I' for Inactive)
REMARK    1  A    between atoms: C_1  and  O_2
REMARK    2  A    between atoms: O_2  and  C_3
REMARK    3  A    between atoms: C_12  and  O_13
REMARK    4  A    between atoms: O_13  and  C_14
REMARK    5  A    between atoms: C_14  and  C_15
REMARK    6  A    between atoms: N_21  and  C_22
REMARK    7  A    between atoms: C_25  and  C_26
REMARK    8  A    between atoms: N_33  and  C_34
REMARK                            x       y       z     vdW  Elec       q    Type
REMARK                         _______ _______ _______ _____ _____    ______ ____
ROOT
ATOM      1  C   UNL     1      -3.182  10.652  17.369  0.00  0.00    +0.000 A 
ATOM      2  C   UNL     1      -4.538  10.567  17.743  0.00  0.00    +0.000 A 
ATOM      3  C   UNL     1      -5.085  11.248  18.834  0.00  0.00    +0.000 A 
ATOM      4  N   UNL     1      -6.401  11.141  19.056  0.00  0.00    +0.000 NA
ATOM      5  C   UNL     1      -6.950  11.791  20.101  0.00  0.00    +0.000 A 
ATOM      6  C   UNL     1      -6.192  12.557  20.947  0.00  0.00    +0.000 A 
ATOM      7  C   UNL     1      -4.818  12.700  20.742  0.00  0.00    +0.000 A 
ATOM      8  C   UNL     1      -4.236  12.012  19.653  0.00  0.00    +0.000 A 
ATOM      9  C   UNL     1      -2.888  11.964  19.305  0.00  0.00    +0.000 A 
ATOM     10  C   UNL     1      -2.334  11.392  18.161  0.00  0.00    +0.000 A 
ATOM     11  N   UNL     1      -4.343  13.520  21.812  0.00  0.00    +0.000 N 
ATOM     12  C   UNL     1      -5.449  13.845  22.662  0.00  0.00    +0.000 A 
ATOM     13  O   UNL     1      -5.456  14.528  23.676  0.00  0.00    +0.000 OA
ATOM     14  N   UNL     1      -6.577  13.248  22.094  0.00  0.00    +0.000 N 
ATOM     15  C   UNL     1      -7.915  13.334  22.609  0.00  0.00    +0.000 C 
ENDROOT
BRANCH  11  16
ATOM     16  C   UNL     1      -3.047  14.031  22.049  0.00  0.00    +0.000 A 
ATOM     17  C   UNL     1      -2.664  15.241  21.458  0.00  0.00    +0.000 A 
ATOM     18  C   UNL     1      -1.356  15.729  21.557  0.00  0.00    +0.000 A 
ATOM     19  C   UNL     1      -0.400  15.021  22.281  0.00  0.00    +0.000 A 
ATOM     20  C   UNL     1      -0.753  13.830  22.888  0.00  0.00    +0.000 A 
ATOM     21  C   UNL     1      -2.034  13.332  22.709  0.00  0.00    +0.000 A 
ATOM     22  F   UNL     1      -2.169  12.042  23.010  0.00  0.00    +0.000 F 
BRANCH  19  23
ATOM     23  C   UNL     1       0.934  15.494  22.369  0.00  0.00    +0.000 C 
ATOM     24  N   UNL     1       2.052  15.897  22.439  0.00  0.00    +0.000 NA
ENDBRANCH  19  23
ENDBRANCH  11  16
BRANCH   1  26
ATOM     25  C   UNL     1      -3.344  10.725  14.961  0.00  0.00    +0.000 C 
ATOM     26  O   UNL     1      -2.919  10.079  16.155  0.00  0.00    +0.000 OA
ENDBRANCH   1  26
BRANCH  10  27
ATOM     27  O   UNL     1      -1.001  11.677  17.919  0.00  0.00    +0.000 OA
BRANCH  27  28
ATOM     28  C   UNL     1      -0.199  11.565  19.118  0.00  0.00    +0.000 C 
BRANCH  28  29
ATOM     29  C   UNL     1       0.437  10.250  19.397  0.00  0.00    +0.000 A 
ATOM     30  C   UNL     1       0.372   9.681  20.661  0.00  0.00    +0.000 A 
ATOM     31  C   UNL     1       1.111   8.535  20.919  0.00  0.00    +0.000 A 
ATOM     32  C   UNL     1       1.877   7.943  19.914  0.00  0.00    +0.000 A 
ATOM     33  C   UNL     1       1.924   8.504  18.640  0.00  0.00    +0.000 A 
ATOM     34  C   UNL     1       1.206   9.659  18.381  0.00  0.00    +0.000 A 
ENDBRANCH  28  29
ENDBRANCH  27  28
ENDBRANCH  10  27
TORSDOF 6
ENDMDL
MODEL 8
REMARK VINA RESULT:      -6.0      1.241      1.699
REMARK  Name = 
REMARK  8 active torsions:
REMARK  status: ('A' for Active; 'I' for Inactive)
REMARK    1  A    between atoms: C_1  and  O_2
REMARK    2  A    between atoms: O_2  and  C_3
REMARK    3  A    between atoms: C_12  and  O_13
REMARK    4  A    between atoms: O_13  and  C_14
REMARK    5  A    between atoms: C_14  and  C_15
REMARK    6  A    between atoms: N_21  and  C_22
REMARK    7  A    between atoms: C_25  and  C_26
REMARK    8  A    between atoms: N_33  and  C_34
REMARK                            x       y       z     vdW  Elec       q    Type
REMARK                         _______ _______ _______ _____ _____    ______ ____
ROOT
ATOM      1  C   UNL     1      -5.392  12.223  17.701  0.00  0.00    +0.000 A 
ATOM      2  C   UNL     1      -4.456  11.390  17.058  0.00  0.00    +0.000 A 
ATOM      3  C   UNL     1      -3.222  11.038  17.611  0.00  0.00    +0.000 A 
ATOM      4  N   UNL     1      -2.440  10.187  16.935  0.00  0.00    +0.000 NA
ATOM      5  C   UNL     1      -1.247   9.832  17.452  0.00  0.00    +0.000 A 
ATOM      6  C   UNL     1      -0.811  10.325  18.653  0.00  0.00    +0.000 A 
ATOM      7  C   UNL     1      -1.603  11.207  19.392  0.00  0.00    +0.000 A 
ATOM      8  C   UNL     1      -2.851  11.590  18.849  0.00  0.00    +0.000 A 
ATOM      9  C   UNL     1      -3.763  12.498  19.382  0.00  0.00    +0.000 A 
ATOM     10  C   UNL     1      -5.045  12.777  18.912  0.00  0.00    +0.000 A 
ATOM     11  N   UNL     1      -0.840  11.544  20.552  0.00  0.00    +0.000 N 
ATOM     12  C   UNL     1       0.420  10.866  20.481  0.00  0.00    +0.000 A 
ATOM     13  O   UNL     1       1.344  10.891  21.281  0.00  0.00    +0.000 OA
ATOM     14  N   UNL     1       0.401  10.112  19.306  0.00  0.00    +0.000 N 
ATOM     15  C   UNL     1       1.459   9.256  18.847  0.00  0.00    +0.000 C 
ENDROOT
BRANCH  11  16
ATOM     16  C   UNL     1      -1.194  12.343  21.662  0.00  0.00    +0.000 A 
ATOM     17  C   UNL     1      -2.187  11.899  22.543  0.00  0.00    +0.000 A 
ATOM     18  C   UNL     1      -2.663  12.703  23.585  0.00  0.00    +0.000 A 
ATOM     19  C   UNL     1      -2.128  13.973  23.786  0.00  0.00    +0.000 A 
ATOM     20  C   UNL     1      -1.136  14.433  22.941  0.00  0.00    +0.000 A 
ATOM     21  C   UNL     1      -0.738  13.647  21.871  0.00  0.00    +0.000 A 
ATOM     22  F   UNL     1      -0.067  14.302  20.927  0.00  0.00    +0.000 F 
BRANCH  19  23
ATOM     23  C   UNL     1      -2.619  14.806  24.824  0.00  0.00    +0.000 C 
ATOM     24  N   UNL     1      -3.027  15.502  25.700  0.00  0.00    +0.000 NA
ENDBRANCH  19  23
ENDBRANCH  11  16
BRANCH   1  26
ATOM     25  C   UNL     1      -7.177  13.505  16.700  0.00  0.00    +0.000 C 
ATOM     26  O   UNL     1      -6.608  12.256  17.075  0.00  0.00    +0.000 OA
ENDBRANCH   1  26
BRANCH  10  27
ATOM     27  O   UNL     1      -5.849  13.538  19.743  0.00  0.00    +0.000 OA
BRANCH  27  28
ATOM     28  C   UNL     1      -5.205  13.818  21.008  0.00  0.00    +0.000 C 
BRANCH  28  29
ATOM     29  C   UNL     1      -6.051  13.780  22.230  0.00  0.00    +0.000 A 
ATOM     30  C   UNL     1      -6.626  12.593  22.663  0.00  0.00    +0.000 A 
ATOM     31  C   UNL     1      -7.534  12.631  23.712  0.00  0.00    +0.000 A 
ATOM     32  C   UNL     1      -7.836  13.837  24.347  0.00  0.00    +0.000 A 
ATOM     33  C   UNL     1      -7.241  15.024  23.925  0.00  0.00    +0.000 A 
ATOM     34  C   UNL     1      -6.351  14.996  22.865  0.00  0.00    +0.000 A 
ENDBRANCH  28  29
ENDBRANCH  27  28
ENDBRANCH  10  27
TORSDOF 6
ENDMDL
MODEL 9
REMARK VINA RESULT:      -6.0      2.090      5.590
REMARK  Name = 
REMARK  8 active torsions:
REMARK  status: ('A' for Active; 'I' for Inactive)
REMARK    1  A    between atoms: C_1  and  O_2
REMARK    2  A    between atoms: O_2  and  C_3
REMARK    3  A    between atoms: C_12  and  O_13
REMARK    4  A    between atoms: O_13  and  C_14
REMARK    5  A    between atoms: C_14  and  C_15
REMARK    6  A    between atoms: N_21  and  C_22
REMARK    7  A    between atoms: C_25  and  C_26
REMARK    8  A    between atoms: N_33  and  C_34
REMARK                            x       y       z     vdW  Elec       q    Type
REMARK                         _______ _______ _______ _____ _____    ______ ____
ROOT
ATOM      1  C   UNL     1       0.201  10.119  18.270  0.00  0.00    +0.000 A 
ATOM      2  C   UNL     1      -0.936   9.978  17.450  0.00  0.00    +0.000 A 
ATOM      3  C   UNL     1      -2.169  10.576  17.726  0.00  0.00    +0.000 A 
ATOM      4  N   UNL     1      -3.162  10.424  16.841  0.00  0.00    +0.000 NA
ATOM      5  C   UNL     1      -4.358  10.994  17.085  0.00  0.00    +0.000 A 
ATOM      6  C   UNL     1      -4.586  11.723  18.223  0.00  0.00    +0.000 A 
ATOM      7  C   UNL     1      -3.572  11.911  19.164  0.00  0.00    +0.000 A 
ATOM      8  C   UNL     1      -2.318  11.307  18.917  0.00  0.00    +0.000 A 
ATOM      9  C   UNL     1      -1.197  11.313  19.744  0.00  0.00    +0.000 A 
ATOM     10  C   UNL     1       0.074  10.827  19.443  0.00  0.00    +0.000 A 
ATOM     11  N   UNL     1      -4.155  12.673  20.223  0.00  0.00    +0.000 N 
ATOM     12  C   UNL     1      -5.529  12.918  19.906  0.00  0.00    +0.000 A 
ATOM     13  O   UNL     1      -6.362  13.535  20.553  0.00  0.00    +0.000 OA
ATOM     14  N   UNL     1      -5.761  12.331  18.659  0.00  0.00    +0.000 N 
ATOM     15  C   UNL     1      -7.007  12.352  17.946  0.00  0.00    +0.000 C 
ENDROOT
BRANCH  11  16
ATOM     16  C   UNL     1      -3.555  13.199  21.390  0.00  0.00    +0.000 A 
ATOM     17  C   UNL     1      -3.851  12.631  22.635  0.00  0.00    +0.000 A 
ATOM     18  C   UNL     1      -3.385  13.189  23.831  0.00  0.00    +0.000 A 
ATOM     19  C   UNL     1      -2.580  14.325  23.803  0.00  0.00    +0.000 A 
ATOM     20  C   UNL     1      -2.258  14.899  22.588  0.00  0.00    +0.000 A 
ATOM     21  C   UNL     1      -2.797  14.372  21.425  0.00  0.00    +0.000 A 
ATOM     22  F   UNL     1      -2.736  15.185  20.372  0.00  0.00    +0.000 F 
BRANCH  19  23
ATOM     23  C   UNL     1      -2.121  14.912  25.009  0.00  0.00    +0.000 C 
ATOM     24  N   UNL     1      -1.737  15.412  26.020  0.00  0.00    +0.000 NA
ENDBRANCH  19  23
ENDBRANCH  11  16
BRANCH   1  26
ATOM     25  C   UNL     1       1.997   8.505  18.274  0.00  0.00    +0.000 C 
ATOM     26  O   UNL     1       1.344   9.630  17.699  0.00  0.00    +0.000 OA
ENDBRANCH   1  26
BRANCH  10  27
ATOM     27  O   UNL     1       1.082  11.158  20.332  0.00  0.00    +0.000 OA
BRANCH  27  28
ATOM     28  C   UNL     1       0.951  12.516  20.814  0.00  0.00    +0.000 C 
BRANCH  28  29
ATOM     29  C   UNL     1       1.386  13.611  19.905  0.00  0.00    +0.000 A 
ATOM     30  C   UNL     1       2.673  13.639  19.386  0.00  0.00    +0.000 A 
ATOM     31  C   UNL     1       3.086  14.756  18.674  0.00  0.00    +0.000 A 
ATOM     32  C   UNL     1       2.209  15.819  18.451  0.00  0.00    +0.000 A 
ATOM     33  C   UNL     1       0.910  15.779  18.953  0.00  0.00    +0.000 A 
ATOM     34  C   UNL     1       0.499  14.676  19.683  0.00  0.00    +0.000 A 
ENDBRANCH  28  29
ENDBRANCH  27  28
ENDBRANCH  10  27
TORSDOF 6
ENDMDL
