MODEL 1
REMARK VINA RESULT:      -7.0      0.000      0.000
REMARK  Name = 
REMARK  4 active torsions:
REMARK  status: ('A' for Active; 'I' for Inactive)
REMARK    1  A    between atoms: C_1  and  N_2
REMARK    2  A    between atoms: C_6  and  C_7
REMARK    3  A    between atoms: C_16  and  O_17
REMARK    4  A    between atoms: O_17  and  C_18
REMARK                            x       y       z     vdW  Elec       q    Type
REMARK                         _______ _______ _______ _____ _____    ______ ____
ROOT
ATOM      1  C   UNL     1       2.422   5.691  20.060  0.00  0.00    +0.000 C 
ATOM      2  O   UNL     1       1.919   4.968  20.912  0.00  0.00    +0.000 OA
ATOM      3  N   UNL     1       2.040   7.052  19.903  0.00  0.00    +0.000 N 
ATOM      4  C   UNL     1       2.416   7.831  18.722  0.00  0.00    +0.000 C 
ATOM      5  C   UNL     1       1.236   8.660  18.278  0.00  0.00    +0.000 C 
ATOM      6  C   UNL     1       0.708   9.609  19.357  0.00  0.00    +0.000 C 
ATOM      7  C   UNL     1       0.750   9.038  20.793  0.00  0.00    +0.000 C 
ATOM      8  C   UNL     1       1.733   7.876  21.064  0.00  0.00    +0.000 C 
ATOM      9  C   UNL     1      -0.699  10.060  18.920  0.00  0.00    +0.000 C 
ATOM     10  C   UNL     1      -0.697  11.570  18.989  0.00  0.00    +0.000 C 
ATOM     11  C   UNL     1       0.775  11.895  18.822  0.00  0.00    +0.000 C 
ATOM     12  O   UNL     1       1.528  10.798  19.354  0.00  0.00    +0.000 OA
ENDROOT
BRANCH   1  18
ATOM     13  C   UNL     1       2.289   3.826  17.399  0.00  0.00    +0.000 C 
ATOM     14  N   UNL     1       3.433   4.374  18.084  0.00  0.00    +0.000 N 
ATOM     15  C   UNL     1       4.722   4.174  17.626  0.00  0.00    +0.000 A 
ATOM     16  C   UNL     1       5.520   4.915  18.458  0.00  0.00    +0.000 A 
ATOM     17  N   UNL     1       4.769   5.519  19.417  0.00  0.00    +0.000 NA
ATOM     18  C   UNL     1       3.498   5.210  19.178  0.00  0.00    +0.000 A 
ENDBRANCH   1  18
BRANCH  10  19
ATOM     19  O   UNL     1      -1.501  12.063  17.915  0.00  0.00    +0.000 OA
BRANCH  19  20
ATOM     20  C   UNL     1      -2.846  11.859  17.982  0.00  0.00    +0.000 A 
ATOM     21  C   UNL     1      -3.641  11.324  16.976  0.00  0.00    +0.000 A 
ATOM     22  C   UNL     1      -5.013  11.188  17.182  0.00  0.00    +0.000 A 
ATOM     23  C   UNL     1      -5.545  11.592  18.396  0.00  0.00    +0.000 A 
ATOM     24  N   UNL     1      -4.805  12.091  19.404  0.00  0.00    +0.000 NA
ATOM     25  C   UNL     1      -3.475  12.206  19.176  0.00  0.00    +0.000 A 
ENDBRANCH  19  20
ENDBRANCH  10  19
TORSDOF 3
ENDMDL
MODEL 2
REMARK VINA RESULT:      -6.9      2.561      8.488
REMARK  Name = 
REMARK  4 active torsions:
REMARK  status: ('A' for Active; 'I' for Inactive)
REMARK    1  A    between atoms: C_1  and  N_2
REMARK    2  A    between atoms: C_6  and  C_7
REMARK    3  A    between atoms: C_16  and  O_17
REMARK    4  A    between atoms: O_17  and  C_18
REMARK                            x       y       z     vdW  Elec       q    Type
REMARK                         _______ _______ _______ _____ _____    ______ ____
ROOT
ATOM      1  C   UNL     1       0.809  10.249  20.712  0.00  0.00    +0.000 C 
ATOM      2  O   UNL     1       0.890  10.506  21.907  0.00  0.00    +0.000 OA
ATOM      3  N   UNL     1       1.180   8.981  20.185  0.00  0.00    +0.000 N 
ATOM      4  C   UNL     1       1.359   8.761  18.749  0.00  0.00    +0.000 C 
ATOM      5  C   UNL     1       2.587   7.911  18.528  0.00  0.00    +0.000 C 
ATOM      6  C   UNL     1       2.536   6.557  19.239  0.00  0.00    +0.000 C 
ATOM      7  C   UNL     1       1.862   6.586  20.631  0.00  0.00    +0.000 C 
ATOM      8  C   UNL     1       0.898   7.759  20.925  0.00  0.00    +0.000 C 
ATOM      9  C   UNL     1       3.974   6.002  19.270  0.00  0.00    +0.000 C 
ATOM     10  C   UNL     1       3.894   4.600  18.711  0.00  0.00    +0.000 C 
ATOM     11  C   UNL     1       2.652   4.670  17.845  0.00  0.00    +0.000 C 
ATOM     12  O   UNL     1       1.772   5.644  18.421  0.00  0.00    +0.000 OA
ENDROOT
BRANCH   1  18
ATOM     13  C   UNL     1       2.179  12.883  19.386  0.00  0.00    +0.000 C 
ATOM     14  N   UNL     1       0.842  12.366  19.237  0.00  0.00    +0.000 N 
ATOM     15  C   UNL     1      -0.087  12.972  18.411  0.00  0.00    +0.000 A 
ATOM     16  C   UNL     1      -1.188  12.158  18.446  0.00  0.00    +0.000 A 
ATOM     17  N   UNL     1      -0.973  11.109  19.285  0.00  0.00    +0.000 NA
ATOM     18  C   UNL     1       0.268  11.223  19.749  0.00  0.00    +0.000 A 
ENDBRANCH   1  18
BRANCH  10  19
ATOM     19  O   UNL     1       5.085   4.356  17.959  0.00  0.00    +0.000 OA
BRANCH  19  20
ATOM     20  C   UNL     1       6.023   5.341  17.913  0.00  0.00    +0.000 A 
ATOM     21  C   UNL     1       7.067   5.515  18.812  0.00  0.00    +0.000 A 
ATOM     22  C   UNL     1       7.946   6.585  18.647  0.00  0.00    +0.000 A 
ATOM     23  C   UNL     1       7.749   7.448  17.581  0.00  0.00    +0.000 A 
ATOM     24  N   UNL     1       6.765   7.299  16.675  0.00  0.00    +0.000 NA
ATOM     25  C   UNL     1       5.930   6.247  16.859  0.00  0.00    +0.000 A 
ENDBRANCH  19  20
ENDBRANCH  10  19
TORSDOF 3
ENDMDL
MODEL 3
REMARK VINA RESULT:      -6.9      2.535      8.390
REMARK  Name = 
REMARK  4 active torsions:
REMARK  status: ('A' for Active; 'I' for Inactive)
REMARK    1  A    between atoms: C_1  and  N_2
REMARK    2  A    between atoms: C_6  and  C_7
REMARK    3  A    between atoms: C_16  and  O_17
REMARK    4  A    between atoms: O_17  and  C_18
REMARK                            x       y       z     vdW  Elec       q    Type
REMARK                         _______ _______ _______ _____ _____    ______ ____
ROOT
ATOM      1  C   UNL     1       0.979  10.178  20.784  0.00  0.00    +0.000 C 
ATOM      2  O   UNL     1       0.965  10.362  21.996  0.00  0.00    +0.000 OA
ATOM      3  N   UNL     1       1.304   8.916  20.215  0.00  0.00    +0.000 N 
ATOM      4  C   UNL     1       1.601   8.761  18.791  0.00  0.00    +0.000 C 
ATOM      5  C   UNL     1       2.779   7.832  18.628  0.00  0.00    +0.000 C 
ATOM      6  C   UNL     1       2.564   6.449  19.247  0.00  0.00    +0.000 C 
ATOM      7  C   UNL     1       1.766   6.454  20.572  0.00  0.00    +0.000 C 
ATOM      8  C   UNL     1       0.867   7.680  20.850  0.00  0.00    +0.000 C 
ATOM      9  C   UNL     1       3.948   5.783  19.372  0.00  0.00    +0.000 C 
ATOM     10  C   UNL     1       3.820   4.423  18.723  0.00  0.00    +0.000 C 
ATOM     11  C   UNL     1       2.672   4.638  17.755  0.00  0.00    +0.000 C 
ATOM     12  O   UNL     1       1.815   5.644  18.309  0.00  0.00    +0.000 OA
ENDROOT
BRANCH   1  18
ATOM     13  C   UNL     1      -1.702  10.542  18.980  0.00  0.00    +0.000 C 
ATOM     14  N   UNL     1      -0.514  11.355  19.039  0.00  0.00    +0.000 N 
ATOM     15  C   UNL     1      -0.381  12.507  18.286  0.00  0.00    +0.000 A 
ATOM     16  C   UNL     1       0.813  13.057  18.674  0.00  0.00    +0.000 A 
ATOM     17  N   UNL     1       1.418  12.265  19.600  0.00  0.00    +0.000 NA
ATOM     18  C   UNL     1       0.603  11.242  19.839  0.00  0.00    +0.000 A 
ENDBRANCH   1  18
BRANCH  10  19
ATOM     19  O   UNL     1       5.055   4.129  18.066  0.00  0.00    +0.000 OA
BRANCH  19  20
ATOM     20  C   UNL     1       5.971   5.130  17.954  0.00  0.00    +0.000 A 
ATOM     21  C   UNL     1       6.989   5.409  18.856  0.00  0.00    +0.000 A 
ATOM     22  C   UNL     1       7.847   6.482  18.617  0.00  0.00    +0.000 A 
ATOM     23  C   UNL     1       7.656   7.242  17.474  0.00  0.00    +0.000 A 
ATOM     24  N   UNL     1       6.698   6.988  16.562  0.00  0.00    +0.000 NA
ATOM     25  C   UNL     1       5.884   5.936  16.821  0.00  0.00    +0.000 A 
ENDBRANCH  19  20
ENDBRANCH  10  19
TORSDOF 3
ENDMDL
MODEL 4
REMARK VINA RESULT:      -6.7      1.038      1.559
REMARK  Name = 
REMARK  4 active torsions:
REMARK  status: ('A' for Active; 'I' for Inactive)
REMARK    1  A    between atoms: C_1  and  N_2
REMARK    2  A    between atoms: C_6  and  C_7
REMARK    3  A    between atoms: C_16  and  O_17
REMARK    4  A    between atoms: O_17  and  C_18
REMARK                            x       y       z     vdW  Elec       q    Type
REMARK                         _______ _______ _______ _____ _____    ______ ____
ROOT
ATOM      1  C   UNL     1       2.882   5.318  18.903  0.00  0.00    +0.000 C 
ATOM      2  O   UNL     1       2.334   4.452  19.574  0.00  0.00    +0.000 OA
ATOM      3  N   UNL     1       2.518   6.689  18.995  0.00  0.00    +0.000 N 
ATOM      4  C   UNL     1       2.956   7.676  18.007  0.00  0.00    +0.000 C 
ATOM      5  C   UNL     1       1.804   8.594  17.678  0.00  0.00    +0.000 C 
ATOM      6  C   UNL     1       1.231   9.325  18.895  0.00  0.00    +0.000 C 
ATOM      7  C   UNL     1       1.199   8.486  20.194  0.00  0.00    +0.000 C 
ATOM      8  C   UNL     1       2.160   7.278  20.278  0.00  0.00    +0.000 C 
ATOM      9  C   UNL     1      -0.151   9.874  18.489  0.00  0.00    +0.000 C 
ATOM     10  C   UNL     1      -0.141  11.342  18.850  0.00  0.00    +0.000 C 
ATOM     11  C   UNL     1       1.339  11.670  18.817  0.00  0.00    +0.000 C 
ATOM     12  O   UNL     1       2.058  10.479  19.161  0.00  0.00    +0.000 OA
ENDROOT
BRANCH   1  18
ATOM     13  C   UNL     1       6.096   5.482  19.375  0.00  0.00    +0.000 C 
ATOM     14  N   UNL     1       5.356   5.126  18.190  0.00  0.00    +0.000 N 
ATOM     15  C   UNL     1       5.988   4.749  17.021  0.00  0.00    +0.000 A 
ATOM     16  C   UNL     1       4.981   4.392  16.163  0.00  0.00    +0.000 A 
ATOM     17  N   UNL     1       3.771   4.575  16.755  0.00  0.00    +0.000 NA
ATOM     18  C   UNL     1       3.997   4.999  17.995  0.00  0.00    +0.000 A 
ENDBRANCH   1  18
BRANCH  10  19
ATOM     19  O   UNL     1      -0.890  12.046  17.856  0.00  0.00    +0.000 OA
BRANCH  19  20
ATOM     20  C   UNL     1      -2.198  11.710  17.687  0.00  0.00    +0.000 A 
ATOM     21  C   UNL     1      -2.757  11.159  16.541  0.00  0.00    +0.000 A 
ATOM     22  C   UNL     1      -4.123  10.880  16.508  0.00  0.00    +0.000 A 
ATOM     23  C   UNL     1      -4.886  11.160  17.630  0.00  0.00    +0.000 A 
ATOM     24  N   UNL     1      -4.377  11.669  18.768  0.00  0.00    +0.000 NA
ATOM     25  C   UNL     1      -3.046  11.926  18.771  0.00  0.00    +0.000 A 
ENDBRANCH  19  20
ENDBRANCH  10  19
TORSDOF 3
ENDMDL
MODEL 5
REMARK VINA RESULT:      -6.6      6.603      8.615
REMARK  Name = 
REMARK  4 active torsions:
REMARK  status: ('A' for Active; 'I' for Inactive)
REMARK    1  A    between atoms: C_1  and  N_2
REMARK    2  A    between atoms: C_6  and  C_7
REMARK    3  A    between atoms: C_16  and  O_17
REMARK    4  A    between atoms: O_17  and  C_18
REMARK                            x       y       z     vdW  Elec       q    Type
REMARK                         _______ _______ _______ _____ _____    ______ ____
ROOT
ATOM      1  C   UNL     1       3.862   2.649  17.969  0.00  0.00    +0.000 C 
ATOM      2  O   UNL     1       4.298   1.585  17.546  0.00  0.00    +0.000 OA
ATOM      3  N   UNL     1       4.564   3.873  17.799  0.00  0.00    +0.000 N 
ATOM      4  C   UNL     1       4.202   5.083  18.538  0.00  0.00    +0.000 C 
ATOM      5  C   UNL     1       5.460   5.773  19.007  0.00  0.00    +0.000 C 
ATOM      6  C   UNL     1       6.417   6.148  17.872  0.00  0.00    +0.000 C 
ATOM      7  C   UNL     1       6.489   5.115  16.723  0.00  0.00    +0.000 C 
ATOM      8  C   UNL     1       5.294   4.147  16.568  0.00  0.00    +0.000 C 
ATOM      9  C   UNL     1       7.788   6.447  18.511  0.00  0.00    +0.000 C 
ATOM     10  C   UNL     1       8.209   7.800  17.985  0.00  0.00    +0.000 C 
ATOM     11  C   UNL     1       6.878   8.440  17.645  0.00  0.00    +0.000 C 
ATOM     12  O   UNL     1       5.966   7.392  17.292  0.00  0.00    +0.000 OA
ENDROOT
BRANCH   1  18
ATOM     13  C   UNL     1       3.098   2.633  21.130  0.00  0.00    +0.000 C 
ATOM     14  N   UNL     1       2.238   2.672  19.974  0.00  0.00    +0.000 N 
ATOM     15  C   UNL     1       0.862   2.745  20.091  0.00  0.00    +0.000 A 
ATOM     16  C   UNL     1       0.395   2.865  18.808  0.00  0.00    +0.000 A 
ATOM     17  N   UNL     1       1.429   2.830  17.925  0.00  0.00    +0.000 NA
ATOM     18  C   UNL     1       2.551   2.735  18.634  0.00  0.00    +0.000 A 
ENDBRANCH   1  18
BRANCH  10  19
ATOM     19  O   UNL     1       8.904   8.483  19.031  0.00  0.00    +0.000 OA
BRANCH  19  20
ATOM     20  C   UNL     1       9.038   9.834  18.930  0.00  0.00    +0.000 A 
ATOM     21  C   UNL     1       8.954  10.577  17.760  0.00  0.00    +0.000 A 
ATOM     22  C   UNL     1       9.128  11.960  17.808  0.00  0.00    +0.000 A 
ATOM     23  C   UNL     1       9.379  12.555  19.034  0.00  0.00    +0.000 A 
ATOM     24  N   UNL     1       9.443  11.873  20.194  0.00  0.00    +0.000 NA
ATOM     25  C   UNL     1       9.265  10.532  20.115  0.00  0.00    +0.000 A 
ENDBRANCH  19  20
ENDBRANCH  10  19
TORSDOF 3
ENDMDL
MODEL 6
REMARK VINA RESULT:      -6.6      1.035      1.679
REMARK  Name = 
REMARK  4 active torsions:
REMARK  status: ('A' for Active; 'I' for Inactive)
REMARK    1  A    between atoms: C_1  and  N_2
REMARK    2  A    between atoms: C_6  and  C_7
REMARK    3  A    between atoms: C_16  and  O_17
REMARK    4  A    between atoms: O_17  and  C_18
REMARK                            x       y       z     vdW  Elec       q    Type
REMARK                         _______ _______ _______ _____ _____    ______ ____
ROOT
ATOM      1  C   UNL     1       2.589   5.350  19.277  0.00  0.00    +0.000 C 
ATOM      2  O   UNL     1       2.081   4.578  20.081  0.00  0.00    +0.000 OA
ATOM      3  N   UNL     1       2.283   6.738  19.266  0.00  0.00    +0.000 N 
ATOM      4  C   UNL     1       2.655   7.605  18.147  0.00  0.00    +0.000 C 
ATOM      5  C   UNL     1       1.508   8.536  17.838  0.00  0.00    +0.000 C 
ATOM      6  C   UNL     1       1.083   9.405  19.023  0.00  0.00    +0.000 C 
ATOM      7  C   UNL     1       1.150   8.698  20.397  0.00  0.00    +0.000 C 
ATOM      8  C   UNL     1       2.073   7.463  20.511  0.00  0.00    +0.000 C 
ATOM      9  C   UNL     1      -0.313   9.973  18.697  0.00  0.00    +0.000 C 
ATOM     10  C   UNL     1      -0.218  11.467  18.906  0.00  0.00    +0.000 C 
ATOM     11  C   UNL     1       1.262  11.725  18.701  0.00  0.00    +0.000 C 
ATOM     12  O   UNL     1       1.971  10.543  19.093  0.00  0.00    +0.000 OA
ENDROOT
BRANCH   1  18
ATOM     13  C   UNL     1       5.835   5.529  19.371  0.00  0.00    +0.000 C 
ATOM     14  N   UNL     1       4.970   5.029  18.332  0.00  0.00    +0.000 N 
ATOM     15  C   UNL     1       5.470   4.490  17.162  0.00  0.00    +0.000 A 
ATOM     16  C   UNL     1       4.375   4.036  16.474  0.00  0.00    +0.000 A 
ATOM     17  N   UNL     1       3.237   4.314  17.165  0.00  0.00    +0.000 NA
ATOM     18  C   UNL     1       3.598   4.897  18.305  0.00  0.00    +0.000 A 
ENDBRANCH   1  18
BRANCH  10  19
ATOM     19  O   UNL     1      -1.036  12.104  17.922  0.00  0.00    +0.000 OA
BRANCH  19  20
ATOM     20  C   UNL     1      -2.365  11.809  17.912  0.00  0.00    +0.000 A 
ATOM     21  C   UNL     1      -3.254  12.012  18.959  0.00  0.00    +0.000 A 
ATOM     22  C   UNL     1      -4.591  11.646  18.809  0.00  0.00    +0.000 A 
ATOM     23  C   UNL     1      -4.995  11.088  17.607  0.00  0.00    +0.000 A 
ATOM     24  N   UNL     1      -4.171  10.899  16.559  0.00  0.00    +0.000 NA
ATOM     25  C   UNL     1      -2.879  11.269  16.734  0.00  0.00    +0.000 A 
ENDBRANCH  19  20
ENDBRANCH  10  19
TORSDOF 3
ENDMDL
MODEL 7
REMARK VINA RESULT:      -6.4      2.505      8.452
REMARK  Name = 
REMARK  4 active torsions:
REMARK  status: ('A' for Active; 'I' for Inactive)
REMARK    1  A    between atoms: C_1  and  N_2
REMARK    2  A    between atoms: C_6  and  C_7
REMARK    3  A    between atoms: C_16  and  O_17
REMARK    4  A    between atoms: O_17  and  C_18
REMARK                            x       y       z     vdW  Elec       q    Type
REMARK                         _______ _______ _______ _____ _____    ______ ____
ROOT
ATOM      1  C   UNL     1       0.929  10.259  20.796  0.00  0.00    +0.000 C 
ATOM      2  O   UNL     1       0.926  10.442  22.007  0.00  0.00    +0.000 OA
ATOM      3  N   UNL     1       1.227   8.992  20.224  0.00  0.00    +0.000 N 
ATOM      4  C   UNL     1       1.513   8.833  18.798  0.00  0.00    +0.000 C 
ATOM      5  C   UNL     1       2.672   7.881  18.628  0.00  0.00    +0.000 C 
ATOM      6  C   UNL     1       2.434   6.502  19.247  0.00  0.00    +0.000 C 
ATOM      7  C   UNL     1       1.644   6.521  20.576  0.00  0.00    +0.000 C 
ATOM      8  C   UNL     1       0.770   7.764  20.861  0.00  0.00    +0.000 C 
ATOM      9  C   UNL     1       3.806   5.810  19.363  0.00  0.00    +0.000 C 
ATOM     10  C   UNL     1       3.649   4.454  18.714  0.00  0.00    +0.000 C 
ATOM     11  C   UNL     1       2.500   4.690  17.753  0.00  0.00    +0.000 C 
ATOM     12  O   UNL     1       1.665   5.712  18.313  0.00  0.00    +0.000 OA
ENDROOT
BRANCH   1  18
ATOM     13  C   UNL     1      -1.741  10.657  18.982  0.00  0.00    +0.000 C 
ATOM     14  N   UNL     1      -0.545  11.459  19.049  0.00  0.00    +0.000 N 
ATOM     15  C   UNL     1      -0.397  12.613  18.302  0.00  0.00    +0.000 A 
ATOM     16  C   UNL     1       0.801  13.149  18.697  0.00  0.00    +0.000 A 
ATOM     17  N   UNL     1       1.394  12.347  19.622  0.00  0.00    +0.000 NA
ATOM     18  C   UNL     1       0.567  11.331  19.853  0.00  0.00    +0.000 A 
ENDBRANCH   1  18
BRANCH  10  19
ATOM     19  O   UNL     1       4.874   4.136  18.050  0.00  0.00    +0.000 OA
BRANCH  19  20
ATOM     20  C   UNL     1       5.893   5.036  18.130  0.00  0.00    +0.000 A 
ATOM     21  C   UNL     1       6.172   6.037  17.207  0.00  0.00    +0.000 A 
ATOM     22  C   UNL     1       7.264   6.878  17.414  0.00  0.00    +0.000 A 
ATOM     23  C   UNL     1       8.042   6.691  18.545  0.00  0.00    +0.000 A 
ATOM     24  N   UNL     1       7.790   5.750  19.475  0.00  0.00    +0.000 NA
ATOM     25  C   UNL     1       6.719   4.951  19.248  0.00  0.00    +0.000 A 
ENDBRANCH  19  20
ENDBRANCH  10  19
TORSDOF 3
ENDMDL
MODEL 8
REMARK VINA RESULT:      -6.4      1.243      1.637
REMARK  Name = 
REMARK  4 active torsions:
REMARK  status: ('A' for Active; 'I' for Inactive)
REMARK    1  A    between atoms: C_1  and  N_2
REMARK    2  A    between atoms: C_6  and  C_7
REMARK    3  A    between atoms: C_16  and  O_17
REMARK    4  A    between atoms: O_17  and  C_18
REMARK                            x       y       z     vdW  Elec       q    Type
REMARK                         _______ _______ _______ _____ _____    ______ ____
ROOT
ATOM      1  C   UNL     1       2.964   6.235  18.883  0.00  0.00    +0.000 C 
ATOM      2  O   UNL     1       2.604   5.219  19.465  0.00  0.00    +0.000 OA
ATOM      3  N   UNL     1       2.338   7.493  19.100  0.00  0.00    +0.000 N 
ATOM      4  C   UNL     1       2.563   8.635  18.213  0.00  0.00    +0.000 C 
ATOM      5  C   UNL     1       1.250   9.335  17.962  0.00  0.00    +0.000 C 
ATOM      6  C   UNL     1       0.556   9.821  19.236  0.00  0.00    +0.000 C 
ATOM      7  C   UNL     1       0.702   8.873  20.450  0.00  0.00    +0.000 C 
ATOM      8  C   UNL     1       1.884   7.877  20.430  0.00  0.00    +0.000 C 
ATOM      9  C   UNL     1      -0.911  10.123  18.872  0.00  0.00    +0.000 C 
ATOM     10  C   UNL     1      -1.187  11.523  19.369  0.00  0.00    +0.000 C 
ATOM     11  C   UNL     1       0.199  12.138  19.381  0.00  0.00    +0.000 C 
ATOM     12  O   UNL     1       1.142  11.085  19.617  0.00  0.00    +0.000 OA
ENDROOT
BRANCH   1  18
ATOM     13  C   UNL     1       6.042   5.297  19.352  0.00  0.00    +0.000 C 
ATOM     14  N   UNL     1       5.425   5.880  18.188  0.00  0.00    +0.000 N 
ATOM     15  C   UNL     1       6.130   6.098  17.019  0.00  0.00    +0.000 A 
ATOM     16  C   UNL     1       5.206   6.560  16.119  0.00  0.00    +0.000 A 
ATOM     17  N   UNL     1       3.985   6.663  16.708  0.00  0.00    +0.000 NA
ATOM     18  C   UNL     1       4.111   6.229  17.959  0.00  0.00    +0.000 A 
ENDBRANCH   1  18
BRANCH  10  19
ATOM     19  O   UNL     1      -2.069  12.156  18.439  0.00  0.00    +0.000 OA
BRANCH  19  20
ATOM     20  C   UNL     1      -3.405  11.929  18.573  0.00  0.00    +0.000 A 
ATOM     21  C   UNL     1      -4.214  11.261  17.663  0.00  0.00    +0.000 A 
ATOM     22  C   UNL     1      -5.576  11.118  17.929  0.00  0.00    +0.000 A 
ATOM     23  C   UNL     1      -6.083  11.648  19.104  0.00  0.00    +0.000 A 
ATOM     24  N   UNL     1      -5.327  12.279  20.023  0.00  0.00    +0.000 NA
ATOM     25  C   UNL     1      -4.007  12.399  19.739  0.00  0.00    +0.000 A 
ENDBRANCH  19  20
ENDBRANCH  10  19
TORSDOF 3
ENDMDL
MODEL 9
REMARK VINA RESULT:      -6.4      2.783      8.570
REMARK  Name = 
REMARK  4 active torsions:
REMARK  status: ('A' for Active; 'I' for Inactive)
REMARK    1  A    between atoms: C_1  and  N_2
REMARK    2  A    between atoms: C_6  and  C_7
REMARK    3  A    between atoms: C_16  and  O_17
REMARK    4  A    between atoms: O_17  and  C_18
REMARK                            x       y       z     vdW  Elec       q    Type
REMARK                         _______ _______ _______ _____ _____    ______ ____
ROOT
ATOM      1  C   UNL     1       0.941   9.405  20.967  0.00  0.00    +0.000 C 
ATOM      2  O   UNL     1       0.687   9.394  22.166  0.00  0.00    +0.000 OA
ATOM      3  N   UNL     1       1.450   8.261  20.293  0.00  0.00    +0.000 N 
ATOM      4  C   UNL     1       2.021   8.343  18.948  0.00  0.00    +0.000 C 
ATOM      5  C   UNL     1       3.267   7.494  18.885  0.00  0.00    +0.000 C 
ATOM      6  C   UNL     1       3.029   6.024  19.238  0.00  0.00    +0.000 C 
ATOM      7  C   UNL     1       1.997   5.791  20.365  0.00  0.00    +0.000 C 
ATOM      8  C   UNL     1       0.983   6.925  20.640  0.00  0.00    +0.000 C 
ATOM      9  C   UNL     1       4.406   5.396  19.532  0.00  0.00    +0.000 C 
ATOM     10  C   UNL     1       4.492   4.152  18.677  0.00  0.00    +0.000 C 
ATOM     11  C   UNL     1       3.536   4.476  17.545  0.00  0.00    +0.000 C 
ATOM     12  O   UNL     1       2.526   5.351  18.062  0.00  0.00    +0.000 OA
ENDROOT
BRANCH   1  18
ATOM     13  C   UNL     1      -1.366   9.951  18.742  0.00  0.00    +0.000 C 
ATOM     14  N   UNL     1      -0.268  10.788  19.154  0.00  0.00    +0.000 N 
ATOM     15  C   UNL     1      -0.071  12.049  18.622  0.00  0.00    +0.000 A 
ATOM     16  C   UNL     1       0.988  12.574  19.316  0.00  0.00    +0.000 A 
ATOM     17  N   UNL     1       1.458  11.668  20.216  0.00  0.00    +0.000 NA
ATOM     18  C   UNL     1       0.682  10.590  20.134  0.00  0.00    +0.000 A 
ENDBRANCH   1  18
BRANCH  10  19
ATOM     19  O   UNL     1       5.845   4.010  18.240  0.00  0.00    +0.000 OA
BRANCH  19  20
ATOM     20  C   UNL     1       6.121   4.262  16.931  0.00  0.00    +0.000 A 
ATOM     21  C   UNL     1       5.650   3.538  15.843  0.00  0.00    +0.000 A 
ATOM     22  C   UNL     1       6.032   3.906  14.554  0.00  0.00    +0.000 A 
ATOM     23  C   UNL     1       6.876   4.994  14.396  0.00  0.00    +0.000 A 
ATOM     24  N   UNL     1       7.333   5.736  15.422  0.00  0.00    +0.000 NA
ATOM     25  C   UNL     1       6.940   5.357  16.662  0.00  0.00    +0.000 A 
ENDBRANCH  19  20
ENDBRANCH  10  19
TORSDOF 3
ENDMDL
