MODEL 1
REMARK VINA RESULT:      -7.7      0.000      0.000
REMARK  Name = 
REMARK  5 active torsions:
REMARK  status: ('A' for Active; 'I' for Inactive)
REMARK    1  A    between atoms: C_1  and  C_2
REMARK    2  A    between atoms: C_5  and  S_6
REMARK    3  A    between atoms: S_6  and  N_9
REMARK    4  A    between atoms: N_9  and  C_10
REMARK    5  A    between atoms: C_13  and  N_14
REMARK                            x       y       z     vdW  Elec       q    Type
REMARK                         _______ _______ _______ _____ _____    ______ ____
ROOT
ATOM      1  N   UNL     1       3.495   2.895  20.044  0.00  0.00    +0.000 N 
ATOM      2  H   UNL     1       3.921   2.391  20.816  0.00  0.00    +0.000 HD
ENDROOT
BRANCH   1   3
ATOM      3  C   UNL     1       4.254   3.302  18.926  0.00  0.00    +0.000 A 
ATOM      4  C   UNL     1       5.293   4.216  19.068  0.00  0.00    +0.000 A 
ATOM      5  C   UNL     1       6.024   4.621  17.946  0.00  0.00    +0.000 A 
ATOM      6  C   UNL     1       5.708   4.106  16.679  0.00  0.00    +0.000 A 
ATOM      7  C   UNL     1       4.662   3.180  16.549  0.00  0.00    +0.000 A 
ATOM      8  C   UNL     1       3.949   2.769  17.676  0.00  0.00    +0.000 A 
BRANCH   6   9
ATOM      9  N   UNL     1       6.427   4.511  15.530  0.00  0.00    +0.000 N 
ATOM     10  C   UNL     1       6.295   4.102  14.228  0.00  0.00    +0.000 A 
ATOM     11  N   UNL     1       7.190   4.712  13.486  0.00  0.00    +0.000 NA
ATOM     12  N   UNL     1       7.881   5.532  14.338  0.00  0.00    +0.000 NA
ATOM     13  N   UNL     1       7.418   5.433  15.576  0.00  0.00    +0.000 NA
ENDBRANCH   6   9
ENDBRANCH   1   3
BRANCH   1  14
ATOM     14  S   UNL     1       1.927   3.438  20.259  0.00  0.00    +0.000 S 
ATOM     15  O   UNL     1       1.645   3.520  21.678  0.00  0.00    +0.000 OA
ATOM     16  O   UNL     1       1.104   2.639  19.380  0.00  0.00    +0.000 OA
BRANCH  14  21
ATOM     17  C   UNL     1       2.197   9.087  18.024  0.00  0.00    +0.000 C 
ATOM     18  C   UNL     1       2.111   7.696  18.579  0.00  0.00    +0.000 A 
ATOM     19  C   UNL     1       2.135   7.473  19.962  0.00  0.00    +0.000 A 
ATOM     20  C   UNL     1       2.068   6.176  20.472  0.00  0.00    +0.000 A 
ATOM     21  C   UNL     1       1.973   5.091  19.600  0.00  0.00    +0.000 A 
ATOM     22  C   UNL     1       1.965   5.296  18.213  0.00  0.00    +0.000 A 
ATOM     23  C   UNL     1       2.023   6.599  17.710  0.00  0.00    +0.000 A 
ENDBRANCH  14  21
ENDBRANCH   1  14
TORSDOF 4
ENDMDL
MODEL 2
REMARK VINA RESULT:      -7.7      0.077      1.036
REMARK  Name = 
REMARK  5 active torsions:
REMARK  status: ('A' for Active; 'I' for Inactive)
REMARK    1  A    between atoms: C_1  and  C_2
REMARK    2  A    between atoms: C_5  and  S_6
REMARK    3  A    between atoms: S_6  and  N_9
REMARK    4  A    between atoms: N_9  and  C_10
REMARK    5  A    between atoms: C_13  and  N_14
REMARK                            x       y       z     vdW  Elec       q    Type
REMARK                         _______ _______ _______ _____ _____    ______ ____
ROOT
ATOM      1  N   UNL     1       3.409   2.811  20.011  0.00  0.00    +0.000 N 
ATOM      2  H   UNL     1       3.806   2.225  20.739  0.00  0.00    +0.000 HD
ENDROOT
BRANCH   1   3
ATOM      3  C   UNL     1       4.181   3.241  18.912  0.00  0.00    +0.000 A 
ATOM      4  C   UNL     1       5.235   4.133  19.091  0.00  0.00    +0.000 A 
ATOM      5  C   UNL     1       5.980   4.561  17.988  0.00  0.00    +0.000 A 
ATOM      6  C   UNL     1       5.665   4.094  16.702  0.00  0.00    +0.000 A 
ATOM      7  C   UNL     1       4.604   3.191  16.534  0.00  0.00    +0.000 A 
ATOM      8  C   UNL     1       3.876   2.755  17.643  0.00  0.00    +0.000 A 
BRANCH   6   9
ATOM      9  N   UNL     1       6.398   4.525  15.571  0.00  0.00    +0.000 N 
ATOM     10  C   UNL     1       6.253   4.178  14.253  0.00  0.00    +0.000 A 
ATOM     11  N   UNL     1       7.169   4.790  13.538  0.00  0.00    +0.000 NA
ATOM     12  N   UNL     1       7.887   5.547  14.425  0.00  0.00    +0.000 NA
ATOM     13  N   UNL     1       7.420   5.409  15.658  0.00  0.00    +0.000 NA
ENDBRANCH   6   9
ENDBRANCH   1   3
BRANCH   1  14
ATOM     14  S   UNL     1       1.886   3.445  20.289  0.00  0.00    +0.000 S 
ATOM     15  O   UNL     1       1.663   3.535  21.717  0.00  0.00    +0.000 OA
ATOM     16  O   UNL     1       0.983   2.702  19.438  0.00  0.00    +0.000 OA
BRANCH  14  21
ATOM     17  C   UNL     1       2.178   9.084  18.031  0.00  0.00    +0.000 C 
ATOM     18  C   UNL     1       2.125   7.691  18.585  0.00  0.00    +0.000 A 
ATOM     19  C   UNL     1       2.075   6.581  17.731  0.00  0.00    +0.000 A 
ATOM     20  C   UNL     1       2.013   5.288  18.252  0.00  0.00    +0.000 A 
ATOM     21  C   UNL     1       2.004   5.096  19.634  0.00  0.00    +0.000 A 
ATOM     22  C   UNL     1       2.036   6.197  20.501  0.00  0.00    +0.000 A 
ATOM     23  C   UNL     1       2.107   7.489  19.973  0.00  0.00    +0.000 A 
ENDBRANCH  14  21
ENDBRANCH   1  14
TORSDOF 4
ENDMDL
MODEL 3
REMARK VINA RESULT:      -7.6      4.006      6.889
REMARK  Name = 
REMARK  5 active torsions:
REMARK  status: ('A' for Active; 'I' for Inactive)
REMARK    1  A    between atoms: C_1  and  C_2
REMARK    2  A    between atoms: C_5  and  S_6
REMARK    3  A    between atoms: S_6  and  N_9
REMARK    4  A    between atoms: N_9  and  C_10
REMARK    5  A    between atoms: C_13  and  N_14
REMARK                            x       y       z     vdW  Elec       q    Type
REMARK                         _______ _______ _______ _____ _____    ______ ____
ROOT
ATOM      1  N   UNL     1       3.164   4.665  18.777  0.00  0.00    +0.000 N 
ATOM      2  H   UNL     1       2.632   4.006  18.216  0.00  0.00    +0.000 HD
ENDROOT
BRANCH   1   3
ATOM      3  C   UNL     1       2.618   5.907  19.164  0.00  0.00    +0.000 A 
ATOM      4  C   UNL     1       2.672   7.004  18.310  0.00  0.00    +0.000 A 
ATOM      5  C   UNL     1       2.141   8.232  18.717  0.00  0.00    +0.000 A 
ATOM      6  C   UNL     1       1.554   8.357  19.986  0.00  0.00    +0.000 A 
ATOM      7  C   UNL     1       1.499   7.243  20.837  0.00  0.00    +0.000 A 
ATOM      8  C   UNL     1       2.016   6.017  20.416  0.00  0.00    +0.000 A 
BRANCH   6   9
ATOM      9  N   UNL     1       1.021   9.593  20.422  0.00  0.00    +0.000 N 
ATOM     10  C   UNL     1       0.377  10.568  19.705  0.00  0.00    +0.000 A 
ATOM     11  N   UNL     1       0.078  11.569  20.500  0.00  0.00    +0.000 NA
ATOM     12  N   UNL     1       0.527  11.203  21.741  0.00  0.00    +0.000 NA
ATOM     13  N   UNL     1       1.086  10.002  21.711  0.00  0.00    +0.000 NA
ENDBRANCH   6   9
ENDBRANCH   1   3
BRANCH   1  14
ATOM     14  S   UNL     1       4.786   4.332  19.012  0.00  0.00    +0.000 S 
ATOM     15  O   UNL     1       4.928   2.962  19.461  0.00  0.00    +0.000 OA
ATOM     16  O   UNL     1       5.311   5.431  19.791  0.00  0.00    +0.000 OA
BRANCH  14  21
ATOM     17  C   UNL     1       7.167   4.657  13.425  0.00  0.00    +0.000 C 
ATOM     18  C   UNL     1       6.579   4.596  14.805  0.00  0.00    +0.000 A 
ATOM     19  C   UNL     1       7.392   4.743  15.937  0.00  0.00    +0.000 A 
ATOM     20  C   UNL     1       6.842   4.672  17.218  0.00  0.00    +0.000 A 
ATOM     21  C   UNL     1       5.472   4.459  17.374  0.00  0.00    +0.000 A 
ATOM     22  C   UNL     1       4.649   4.293  16.251  0.00  0.00    +0.000 A 
ATOM     23  C   UNL     1       5.205   4.374  14.972  0.00  0.00    +0.000 A 
ENDBRANCH  14  21
ENDBRANCH   1  14
TORSDOF 4
ENDMDL
MODEL 4
REMARK VINA RESULT:      -7.6      4.009      6.950
REMARK  Name = 
REMARK  5 active torsions:
REMARK  status: ('A' for Active; 'I' for Inactive)
REMARK    1  A    between atoms: C_1  and  C_2
REMARK    2  A    between atoms: C_5  and  S_6
REMARK    3  A    between atoms: S_6  and  N_9
REMARK    4  A    between atoms: N_9  and  C_10
REMARK    5  A    between atoms: C_13  and  N_14
REMARK                            x       y       z     vdW  Elec       q    Type
REMARK                         _______ _______ _______ _____ _____    ______ ____
ROOT
ATOM      1  N   UNL     1       3.238   4.674  18.718  0.00  0.00    +0.000 N 
ATOM      2  H   UNL     1       2.737   4.062  18.080  0.00  0.00    +0.000 HD
ENDROOT
BRANCH   1   3
ATOM      3  C   UNL     1       2.662   5.872  19.190  0.00  0.00    +0.000 A 
ATOM      4  C   UNL     1       2.054   5.923  20.441  0.00  0.00    +0.000 A 
ATOM      5  C   UNL     1       1.474   7.115  20.885  0.00  0.00    +0.000 A 
ATOM      6  C   UNL     1       1.505   8.258  20.071  0.00  0.00    +0.000 A 
ATOM      7  C   UNL     1       2.126   8.197  18.815  0.00  0.00    +0.000 A 
ATOM      8  C   UNL     1       2.717   7.008  18.385  0.00  0.00    +0.000 A 
BRANCH   6   9
ATOM      9  N   UNL     1       0.913   9.470  20.498  0.00  0.00    +0.000 N 
ATOM     10  C   UNL     1      -0.032  10.246  19.877  0.00  0.00    +0.000 A 
ATOM     11  N   UNL     1      -0.275  11.307  20.611  0.00  0.00    +0.000 NA
ATOM     12  N   UNL     1       0.521  11.183  21.718  0.00  0.00    +0.000 NA
ATOM     13  N   UNL     1       1.233  10.066  21.670  0.00  0.00    +0.000 NA
ENDBRANCH   6   9
ENDBRANCH   1   3
BRANCH   1  14
ATOM     14  S   UNL     1       4.853   4.333  18.990  0.00  0.00    +0.000 S 
ATOM     15  O   UNL     1       4.977   2.971  19.467  0.00  0.00    +0.000 OA
ATOM     16  O   UNL     1       5.370   5.443  19.760  0.00  0.00    +0.000 OA
BRANCH  14  21
ATOM     17  C   UNL     1       7.260   4.758  13.422  0.00  0.00    +0.000 C 
ATOM     18  C   UNL     1       6.668   4.634  14.795  0.00  0.00    +0.000 A 
ATOM     19  C   UNL     1       5.312   4.321  14.966  0.00  0.00    +0.000 A 
ATOM     20  C   UNL     1       4.764   4.220  16.245  0.00  0.00    +0.000 A 
ATOM     21  C   UNL     1       5.571   4.427  17.364  0.00  0.00    +0.000 A 
ATOM     22  C   UNL     1       6.924   4.758  17.210  0.00  0.00    +0.000 A 
ATOM     23  C   UNL     1       7.469   4.849  15.926  0.00  0.00    +0.000 A 
ENDBRANCH  14  21
ENDBRANCH   1  14
TORSDOF 4
ENDMDL
MODEL 5
REMARK VINA RESULT:      -7.6      0.506      1.147
REMARK  Name = 
REMARK  5 active torsions:
REMARK  status: ('A' for Active; 'I' for Inactive)
REMARK    1  A    between atoms: C_1  and  C_2
REMARK    2  A    between atoms: C_5  and  S_6
REMARK    3  A    between atoms: S_6  and  N_9
REMARK    4  A    between atoms: N_9  and  C_10
REMARK    5  A    between atoms: C_13  and  N_14
REMARK                            x       y       z     vdW  Elec       q    Type
REMARK                         _______ _______ _______ _____ _____    ______ ____
ROOT
ATOM      1  N   UNL     1       3.921   3.472  19.974  0.00  0.00    +0.000 N 
ATOM      2  H   UNL     1       4.446   3.173  20.790  0.00  0.00    +0.000 HD
ENDROOT
BRANCH   1   3
ATOM      3  C   UNL     1       4.566   3.768  18.755  0.00  0.00    +0.000 A 
ATOM      4  C   UNL     1       4.120   3.206  17.561  0.00  0.00    +0.000 A 
ATOM      5  C   UNL     1       4.781   3.498  16.364  0.00  0.00    +0.000 A 
ATOM      6  C   UNL     1       5.893   4.355  16.366  0.00  0.00    +0.000 A 
ATOM      7  C   UNL     1       6.329   4.921  17.574  0.00  0.00    +0.000 A 
ATOM      8  C   UNL     1       5.654   4.638  18.762  0.00  0.00    +0.000 A 
BRANCH   6   9
ATOM      9  N   UNL     1       6.583   4.654  15.168  0.00  0.00    +0.000 N 
ATOM     10  C   UNL     1       6.403   4.147  13.907  0.00  0.00    +0.000 A 
ATOM     11  N   UNL     1       7.286   4.678  13.093  0.00  0.00    +0.000 NA
ATOM     12  N   UNL     1       8.019   5.547  13.857  0.00  0.00    +0.000 NA
ATOM     13  N   UNL     1       7.593   5.554  15.112  0.00  0.00    +0.000 NA
ENDBRANCH   6   9
ENDBRANCH   1   3
BRANCH   1  14
ATOM     14  S   UNL     1       2.303   3.834  20.198  0.00  0.00    +0.000 S 
ATOM     15  O   UNL     1       2.012   3.844  21.617  0.00  0.00    +0.000 OA
ATOM     16  O   UNL     1       1.573   2.976  19.292  0.00  0.00    +0.000 OA
BRANCH  14  21
ATOM     17  C   UNL     1       1.954   9.545  18.138  0.00  0.00    +0.000 C 
ATOM     18  C   UNL     1       2.021   8.135  18.648  0.00  0.00    +0.000 A 
ATOM     19  C   UNL     1       1.923   7.863  20.019  0.00  0.00    +0.000 A 
ATOM     20  C   UNL     1       1.998   6.551  20.488  0.00  0.00    +0.000 A 
ATOM     21  C   UNL     1       2.169   5.501  19.586  0.00  0.00    +0.000 A 
ATOM     22  C   UNL     1       2.286   5.758  18.213  0.00  0.00    +0.000 A 
ATOM     23  C   UNL     1       2.200   7.074  17.750  0.00  0.00    +0.000 A 
ENDBRANCH  14  21
ENDBRANCH   1  14
TORSDOF 4
ENDMDL
MODEL 6
REMARK VINA RESULT:      -7.6      1.659      2.423
REMARK  Name = 
REMARK  5 active torsions:
REMARK  status: ('A' for Active; 'I' for Inactive)
REMARK    1  A    between atoms: C_1  and  C_2
REMARK    2  A    between atoms: C_5  and  S_6
REMARK    3  A    between atoms: S_6  and  N_9
REMARK    4  A    between atoms: N_9  and  C_10
REMARK    5  A    between atoms: C_13  and  N_14
REMARK                            x       y       z     vdW  Elec       q    Type
REMARK                         _______ _______ _______ _____ _____    ______ ____
ROOT
ATOM      1  N   UNL     1       4.140   5.613  19.554  0.00  0.00    +0.000 N 
ATOM      2  H   UNL     1       4.703   5.971  20.319  0.00  0.00    +0.000 HD
ENDROOT
BRANCH   1   3
ATOM      3  C   UNL     1       4.699   5.376  18.280  0.00  0.00    +0.000 A 
ATOM      4  C   UNL     1       4.953   4.078  17.846  0.00  0.00    +0.000 A 
ATOM      5  C   UNL     1       5.522   3.863  16.588  0.00  0.00    +0.000 A 
ATOM      6  C   UNL     1       5.837   4.954  15.763  0.00  0.00    +0.000 A 
ATOM      7  C   UNL     1       5.571   6.258  16.207  0.00  0.00    +0.000 A 
ATOM      8  C   UNL     1       4.987   6.463  17.458  0.00  0.00    +0.000 A 
BRANCH   6   9
ATOM      9  N   UNL     1       6.425   4.758  14.491  0.00  0.00    +0.000 N 
ATOM     10  C   UNL     1       6.075   3.887  13.492  0.00  0.00    +0.000 A 
ATOM     11  N   UNL     1       6.912   4.015  12.489  0.00  0.00    +0.000 NA
ATOM     12  N   UNL     1       7.790   4.997  12.861  0.00  0.00    +0.000 NA
ATOM     13  N   UNL     1       7.497   5.468  14.065  0.00  0.00    +0.000 NA
ENDBRANCH   6   9
ENDBRANCH   1   3
BRANCH   1  14
ATOM     14  S   UNL     1       2.485   5.548  19.789  0.00  0.00    +0.000 S 
ATOM     15  O   UNL     1       2.216   5.117  21.146  0.00  0.00    +0.000 OA
ATOM     16  O   UNL     1       1.949   4.826  18.657  0.00  0.00    +0.000 OA
BRANCH  14  21
ATOM     17  C   UNL     1       0.668  11.321  19.194  0.00  0.00    +0.000 C 
ATOM     18  C   UNL     1       1.135   9.902  19.343  0.00  0.00    +0.000 A 
ATOM     19  C   UNL     1       1.674   9.207  18.252  0.00  0.00    +0.000 A 
ATOM     20  C   UNL     1       2.094   7.884  18.393  0.00  0.00    +0.000 A 
ATOM     21  C   UNL     1       1.982   7.248  19.629  0.00  0.00    +0.000 A 
ATOM     22  C   UNL     1       1.429   7.924  20.725  0.00  0.00    +0.000 A 
ATOM     23  C   UNL     1       1.018   9.252  20.579  0.00  0.00    +0.000 A 
ENDBRANCH  14  21
ENDBRANCH   1  14
TORSDOF 4
ENDMDL
MODEL 7
REMARK VINA RESULT:      -7.5      0.228      1.477
REMARK  Name = 
REMARK  5 active torsions:
REMARK  status: ('A' for Active; 'I' for Inactive)
REMARK    1  A    between atoms: C_1  and  C_2
REMARK    2  A    between atoms: C_5  and  S_6
REMARK    3  A    between atoms: S_6  and  N_9
REMARK    4  A    between atoms: N_9  and  C_10
REMARK    5  A    between atoms: C_13  and  N_14
REMARK                            x       y       z     vdW  Elec       q    Type
REMARK                         _______ _______ _______ _____ _____    ______ ____
ROOT
ATOM      1  N   UNL     1       3.490   2.719  20.097  0.00  0.00    +0.000 N 
ATOM      2  H   UNL     1       3.919   2.071  20.751  0.00  0.00    +0.000 HD
ENDROOT
BRANCH   1   3
ATOM      3  C   UNL     1       4.186   3.184  18.962  0.00  0.00    +0.000 A 
ATOM      4  C   UNL     1       3.848   2.737  17.688  0.00  0.00    +0.000 A 
ATOM      5  C   UNL     1       4.559   3.196  16.576  0.00  0.00    +0.000 A 
ATOM      6  C   UNL     1       5.614   4.107  16.744  0.00  0.00    +0.000 A 
ATOM      7  C   UNL     1       5.942   4.557  18.031  0.00  0.00    +0.000 A 
ATOM      8  C   UNL     1       5.216   4.106  19.135  0.00  0.00    +0.000 A 
BRANCH   6   9
ATOM      9  N   UNL     1       6.355   4.575  15.633  0.00  0.00    +0.000 N 
ATOM     10  C   UNL     1       6.227   4.263  14.304  0.00  0.00    +0.000 A 
ATOM     11  N   UNL     1       7.144   4.902  13.616  0.00  0.00    +0.000 NA
ATOM     12  N   UNL     1       7.846   5.642  14.530  0.00  0.00    +0.000 NA
ATOM     13  N   UNL     1       7.367   5.466  15.753  0.00  0.00    +0.000 NA
ENDBRANCH   6   9
ENDBRANCH   1   3
BRANCH   1  14
ATOM     14  S   UNL     1       2.028   3.399  20.544  0.00  0.00    +0.000 S 
ATOM     15  O   UNL     1       2.000   3.556  21.984  0.00  0.00    +0.000 OA
ATOM     16  O   UNL     1       1.008   2.640  19.856  0.00  0.00    +0.000 OA
BRANCH  14  21
ATOM     17  C   UNL     1       2.113   8.921  17.999  0.00  0.00    +0.000 C 
ATOM     18  C   UNL     1       2.111   7.557  18.624  0.00  0.00    +0.000 A 
ATOM     19  C   UNL     1       2.048   6.405  17.828  0.00  0.00    +0.000 A 
ATOM     20  C   UNL     1       2.034   5.139  18.415  0.00  0.00    +0.000 A 
ATOM     21  C   UNL     1       2.086   5.017  19.804  0.00  0.00    +0.000 A 
ATOM     22  C   UNL     1       2.132   6.160  20.614  0.00  0.00    +0.000 A 
ATOM     23  C   UNL     1       2.155   7.425  20.019  0.00  0.00    +0.000 A 
ENDBRANCH  14  21
ENDBRANCH   1  14
TORSDOF 4
ENDMDL
MODEL 8
REMARK VINA RESULT:      -7.5      1.833      2.417
REMARK  Name = 
REMARK  5 active torsions:
REMARK  status: ('A' for Active; 'I' for Inactive)
REMARK    1  A    between atoms: C_1  and  C_2
REMARK    2  A    between atoms: C_5  and  S_6
REMARK    3  A    between atoms: S_6  and  N_9
REMARK    4  A    between atoms: N_9  and  C_10
REMARK    5  A    between atoms: C_13  and  N_14
REMARK                            x       y       z     vdW  Elec       q    Type
REMARK                         _______ _______ _______ _____ _____    ______ ____
ROOT
ATOM      1  N   UNL     1       4.261   5.860  19.150  0.00  0.00    +0.000 N 
ATOM      2  H   UNL     1       4.806   6.371  19.838  0.00  0.00    +0.000 HD
ENDROOT
BRANCH   1   3
ATOM      3  C   UNL     1       4.793   5.539  17.884  0.00  0.00    +0.000 A 
ATOM      4  C   UNL     1       5.288   4.264  17.624  0.00  0.00    +0.000 A 
ATOM      5  C   UNL     1       5.827   3.968  16.368  0.00  0.00    +0.000 A 
ATOM      6  C   UNL     1       5.870   4.955  15.372  0.00  0.00    +0.000 A 
ATOM      7  C   UNL     1       5.364   6.235  15.643  0.00  0.00    +0.000 A 
ATOM      8  C   UNL     1       4.811   6.518  16.893  0.00  0.00    +0.000 A 
BRANCH   6   9
ATOM      9  N   UNL     1       6.423   4.680  14.099  0.00  0.00    +0.000 N 
ATOM     10  C   UNL     1       6.074   3.720  13.184  0.00  0.00    +0.000 A 
ATOM     11  N   UNL     1       6.872   3.798  12.145  0.00  0.00    +0.000 NA
ATOM     12  N   UNL     1       7.724   4.836  12.408  0.00  0.00    +0.000 NA
ATOM     13  N   UNL     1       7.453   5.391  13.581  0.00  0.00    +0.000 NA
ENDBRANCH   6   9
ENDBRANCH   1   3
BRANCH   1  14
ATOM     14  S   UNL     1       2.636   5.631  19.479  0.00  0.00    +0.000 S 
ATOM     15  O   UNL     1       2.498   5.052  20.800  0.00  0.00    +0.000 OA
ATOM     16  O   UNL     1       2.081   4.978  18.315  0.00  0.00    +0.000 OA
BRANCH  14  21
ATOM     17  C   UNL     1       0.528  11.332  19.683  0.00  0.00    +0.000 C 
ATOM     18  C   UNL     1       1.030   9.919  19.630  0.00  0.00    +0.000 A 
ATOM     19  C   UNL     1       0.988   9.101  20.767  0.00  0.00    +0.000 A 
ATOM     20  C   UNL     1       1.469   7.791  20.716  0.00  0.00    +0.000 A 
ATOM     21  C   UNL     1       1.991   7.290  19.524  0.00  0.00    +0.000 A 
ATOM     22  C   UNL     1       2.055   8.101  18.383  0.00  0.00    +0.000 A 
ATOM     23  C   UNL     1       1.564   9.409  18.438  0.00  0.00    +0.000 A 
ENDBRANCH  14  21
ENDBRANCH   1  14
TORSDOF 4
ENDMDL
MODEL 9
REMARK VINA RESULT:      -7.5      1.761      2.250
REMARK  Name = 
REMARK  5 active torsions:
REMARK  status: ('A' for Active; 'I' for Inactive)
REMARK    1  A    between atoms: C_1  and  C_2
REMARK    2  A    between atoms: C_5  and  S_6
REMARK    3  A    between atoms: S_6  and  N_9
REMARK    4  A    between atoms: N_9  and  C_10
REMARK    5  A    between atoms: C_13  and  N_14
REMARK                            x       y       z     vdW  Elec       q    Type
REMARK                         _______ _______ _______ _____ _____    ______ ____
ROOT
ATOM      1  N   UNL     1       4.276   5.756  19.350  0.00  0.00    +0.000 N 
ATOM      2  H   UNL     1       4.806   6.193  20.098  0.00  0.00    +0.000 HD
ENDROOT
BRANCH   1   3
ATOM      3  C   UNL     1       4.844   5.539  18.078  0.00  0.00    +0.000 A 
ATOM      4  C   UNL     1       4.912   6.570  17.145  0.00  0.00    +0.000 A 
ATOM      5  C   UNL     1       5.464   6.332  15.883  0.00  0.00    +0.000 A 
ATOM      6  C   UNL     1       5.947   5.056  15.556  0.00  0.00    +0.000 A 
ATOM      7  C   UNL     1       5.879   4.025  16.505  0.00  0.00    +0.000 A 
ATOM      8  C   UNL     1       5.342   4.275  17.769  0.00  0.00    +0.000 A 
BRANCH   6   9
ATOM      9  N   UNL     1       6.498   4.791  14.280  0.00  0.00    +0.000 N 
ATOM     10  C   UNL     1       6.113   3.875  13.335  0.00  0.00    +0.000 A 
ATOM     11  N   UNL     1       6.924   3.944  12.305  0.00  0.00    +0.000 NA
ATOM     12  N   UNL     1       7.820   4.934  12.604  0.00  0.00    +0.000 NA
ATOM     13  N   UNL     1       7.564   5.468  13.790  0.00  0.00    +0.000 NA
ENDBRANCH   6   9
ENDBRANCH   1   3
BRANCH   1  14
ATOM     14  S   UNL     1       2.638   5.531  19.607  0.00  0.00    +0.000 S 
ATOM     15  O   UNL     1       2.439   4.959  20.924  0.00  0.00    +0.000 OA
ATOM     16  O   UNL     1       2.136   4.870  18.423  0.00  0.00    +0.000 OA
BRANCH  14  21
ATOM     17  C   UNL     1       0.530  11.235  19.673  0.00  0.00    +0.000 C 
ATOM     18  C   UNL     1       1.032   9.820  19.654  0.00  0.00    +0.000 A 
ATOM     19  C   UNL     1       1.000   9.034  20.814  0.00  0.00    +0.000 A 
ATOM     20  C   UNL     1       1.480   7.723  20.794  0.00  0.00    +0.000 A 
ATOM     21  C   UNL     1       1.992   7.190  19.612  0.00  0.00    +0.000 A 
ATOM     22  C   UNL     1       2.047   7.970  18.448  0.00  0.00    +0.000 A 
ATOM     23  C   UNL     1       1.556   9.278  18.473  0.00  0.00    +0.000 A 
ENDBRANCH  14  21
ENDBRANCH   1  14
TORSDOF 4
ENDMDL
