MODEL 1
REMARK VINA RESULT:      -8.8      0.000      0.000
REMARK  Name = 
REMARK  6 active torsions:
REMARK  status: ('A' for Active; 'I' for Inactive)
REMARK    1  A    between atoms: C_10  and  C_11
REMARK    2  A    between atoms: C_11  and  S_12
REMARK    3  A    between atoms: S_12  and  C_13
REMARK    4  A    between atoms: C_15  and  O_16
REMARK    5  A    between atoms: N_24  and  C_25
REMARK    6  A    between atoms: C_30  and  C_31
REMARK                            x       y       z     vdW  Elec       q    Type
REMARK                         _______ _______ _______ _____ _____    ______ ____
ROOT
ATOM      1  O   UNL     1       4.521   2.584  18.087  0.00  0.00    +0.000 OA
ATOM      2  C   UNL     1       4.364   3.763  17.779  0.00  0.00    +0.000 A 
ATOM      3  C   UNL     1       5.115   4.316  16.638  0.00  0.00    +0.000 A 
ATOM      4  C   UNL     1       5.965   3.521  15.863  0.00  0.00    +0.000 A 
ATOM      5  C   UNL     1       6.646   4.086  14.782  0.00  0.00    +0.000 A 
ATOM      6  C   UNL     1       6.475   5.437  14.482  0.00  0.00    +0.000 A 
ATOM      7  C   UNL     1       5.634   6.223  15.267  0.00  0.00    +0.000 A 
ATOM      8  C   UNL     1       4.952   5.665  16.352  0.00  0.00    +0.000 A 
ATOM      9  N   UNL     1       4.124   6.497  17.110  0.00  0.00    +0.000 NA
ATOM     10  C   UNL     1       3.440   5.996  18.089  0.00  0.00    +0.000 A 
ATOM     11  N   UNL     1       3.520   4.658  18.453  0.00  0.00    +0.000 N 
ENDROOT
BRANCH  11  12
ATOM     12  C   UNL     1       2.809   4.139  19.570  0.00  0.00    +0.000 A 
ATOM     13  C   UNL     1       3.288   4.463  20.850  0.00  0.00    +0.000 A 
ATOM     14  C   UNL     1       2.666   3.950  21.988  0.00  0.00    +0.000 A 
ATOM     15  C   UNL     1       1.556   3.122  21.858  0.00  0.00    +0.000 A 
ATOM     16  C   UNL     1       1.058   2.819  20.590  0.00  0.00    +0.000 A 
ATOM     17  C   UNL     1       1.672   3.325  19.425  0.00  0.00    +0.000 A 
BRANCH  17  18
ATOM     18  C   UNL     1       1.070   2.944  18.096  0.00  0.00    +0.000 C 
ATOM     19  F   UNL     1       1.843   2.136  17.321  0.00  0.00    +0.000 F 
ATOM     20  F   UNL     1      -0.102   2.262  18.259  0.00  0.00    +0.000 F 
ATOM     21  F   UNL     1       0.763   4.023  17.325  0.00  0.00    +0.000 F 
ENDBRANCH  17  18
ENDBRANCH  11  12
BRANCH  10  22
ATOM     22  C   UNL     1       2.542   6.960  18.864  0.00  0.00    +0.000 C 
BRANCH  22  23
ATOM     23  S   UNL     1       2.309   8.509  17.947  0.00  0.00    +0.000 S 
BRANCH  23  24
ATOM     24  C   UNL     1       1.109   9.346  18.966  0.00  0.00    +0.000 A 
ATOM     25  N   UNL     1       0.533  10.466  18.506  0.00  0.00    +0.000 NA
ATOM     26  C   UNL     1      -0.197  11.128  19.416  0.00  0.00    +0.000 A 
ATOM     27  C   UNL     1      -0.363  10.771  20.749  0.00  0.00    +0.000 A 
ATOM     28  C   UNL     1      -1.075  11.519  21.720  0.00  0.00    +0.000 A 
ATOM     29  C   UNL     1      -1.156  11.064  23.034  0.00  0.00    +0.000 A 
ATOM     30  C   UNL     1      -0.550   9.862  23.376  0.00  0.00    +0.000 A 
ATOM     31  C   UNL     1       0.147   9.132  22.406  0.00  0.00    +0.000 A 
ATOM     32  C   UNL     1       0.266   9.577  21.095  0.00  0.00    +0.000 A 
ATOM     33  N   UNL     1       0.996   8.873  20.221  0.00  0.00    +0.000 NA
BRANCH  26  34
ATOM     34  O   UNL     1      -0.787  12.254  18.923  0.00  0.00    +0.000 OA
ATOM     35  H   UNL     1      -0.392  12.296  18.036  0.00  0.00    +0.000 HD
ENDBRANCH  26  34
ENDBRANCH  23  24
ENDBRANCH  22  23
ENDBRANCH  10  22
TORSDOF 6
ENDMDL
MODEL 2
REMARK VINA RESULT:      -8.5      4.229      9.115
REMARK  Name = 
REMARK  6 active torsions:
REMARK  status: ('A' for Active; 'I' for Inactive)
REMARK    1  A    between atoms: C_10  and  C_11
REMARK    2  A    between atoms: C_11  and  S_12
REMARK    3  A    between atoms: S_12  and  C_13
REMARK    4  A    between atoms: C_15  and  O_16
REMARK    5  A    between atoms: N_24  and  C_25
REMARK    6  A    between atoms: C_30  and  C_31
REMARK                            x       y       z     vdW  Elec       q    Type
REMARK                         _______ _______ _______ _____ _____    ______ ____
ROOT
ATOM      1  O   UNL     1      -3.554  12.893  19.586  0.00  0.00    +0.000 OA
ATOM      2  C   UNL     1      -2.667  12.117  19.238  0.00  0.00    +0.000 A 
ATOM      3  C   UNL     1      -2.839  11.335  18.001  0.00  0.00    +0.000 A 
ATOM      4  C   UNL     1      -3.964  11.490  17.184  0.00  0.00    +0.000 A 
ATOM      5  C   UNL     1      -4.078  10.736  16.013  0.00  0.00    +0.000 A 
ATOM      6  C   UNL     1      -3.071   9.836  15.665  0.00  0.00    +0.000 A 
ATOM      7  C   UNL     1      -1.960   9.681  16.492  0.00  0.00    +0.000 A 
ATOM      8  C   UNL     1      -1.841  10.429  17.666  0.00  0.00    +0.000 A 
ATOM      9  N   UNL     1      -0.710  10.233  18.463  0.00  0.00    +0.000 NA
ATOM     10  C   UNL     1      -0.549  10.950  19.529  0.00  0.00    +0.000 A 
ATOM     11  N   UNL     1      -1.479  11.892  19.949  0.00  0.00    +0.000 N 
ENDROOT
BRANCH  11  12
ATOM     12  C   UNL     1      -1.315  12.624  21.156  0.00  0.00    +0.000 A 
ATOM     13  C   UNL     1      -1.891  12.091  22.321  0.00  0.00    +0.000 A 
ATOM     14  C   UNL     1      -1.808  12.781  23.530  0.00  0.00    +0.000 A 
ATOM     15  C   UNL     1      -1.138  13.999  23.589  0.00  0.00    +0.000 A 
ATOM     16  C   UNL     1      -0.539  14.520  22.442  0.00  0.00    +0.000 A 
ATOM     17  C   UNL     1      -0.613  13.841  21.208  0.00  0.00    +0.000 A 
BRANCH  17  18
ATOM     18  C   UNL     1       0.060  14.478  20.018  0.00  0.00    +0.000 C 
ATOM     19  F   UNL     1      -0.744  14.686  18.941  0.00  0.00    +0.000 F 
ATOM     20  F   UNL     1       0.558  15.711  20.331  0.00  0.00    +0.000 F 
ATOM     21  F   UNL     1       1.121  13.759  19.562  0.00  0.00    +0.000 F 
ENDBRANCH  17  18
ENDBRANCH  11  12
BRANCH  10  22
ATOM     22  C   UNL     1       0.720  10.695  20.343  0.00  0.00    +0.000 C 
BRANCH  22  23
ATOM     23  S   UNL     1       0.528   9.234  21.404  0.00  0.00    +0.000 S 
BRANCH  23  24
ATOM     24  C   UNL     1       1.475   8.019  20.506  0.00  0.00    +0.000 A 
ATOM     25  N   UNL     1       2.040   8.367  19.340  0.00  0.00    +0.000 NA
ATOM     26  C   UNL     1       2.556   7.342  18.648  0.00  0.00    +0.000 A 
ATOM     27  C   UNL     1       2.518   6.002  19.017  0.00  0.00    +0.000 A 
ATOM     28  C   UNL     1       3.000   4.918  18.241  0.00  0.00    +0.000 A 
ATOM     29  C   UNL     1       2.888   3.613  18.713  0.00  0.00    +0.000 A 
ATOM     30  C   UNL     1       2.320   3.388  19.961  0.00  0.00    +0.000 A 
ATOM     31  C   UNL     1       1.851   4.468  20.718  0.00  0.00    +0.000 A 
ATOM     32  C   UNL     1       1.925   5.777  20.257  0.00  0.00    +0.000 A 
ATOM     33  N   UNL     1       1.407   6.767  20.994  0.00  0.00    +0.000 NA
BRANCH  26  34
ATOM     34  O   UNL     1       3.141   7.718  17.474  0.00  0.00    +0.000 OA
ATOM     35  H   UNL     1       3.179   8.683  17.590  0.00  0.00    +0.000 HD
ENDBRANCH  26  34
ENDBRANCH  23  24
ENDBRANCH  22  23
ENDBRANCH  10  22
TORSDOF 6
ENDMDL
MODEL 3
REMARK VINA RESULT:      -8.5      2.019      2.434
REMARK  Name = 
REMARK  6 active torsions:
REMARK  status: ('A' for Active; 'I' for Inactive)
REMARK    1  A    between atoms: C_10  and  C_11
REMARK    2  A    between atoms: C_11  and  S_12
REMARK    3  A    between atoms: S_12  and  C_13
REMARK    4  A    between atoms: C_15  and  O_16
REMARK    5  A    between atoms: N_24  and  C_25
REMARK    6  A    between atoms: C_30  and  C_31
REMARK                            x       y       z     vdW  Elec       q    Type
REMARK                         _______ _______ _______ _____ _____    ______ ____
ROOT
ATOM      1  O   UNL     1       5.578   4.062  19.851  0.00  0.00    +0.000 OA
ATOM      2  C   UNL     1       5.154   5.020  19.209  0.00  0.00    +0.000 A 
ATOM      3  C   UNL     1       6.111   5.985  18.639  0.00  0.00    +0.000 A 
ATOM      4  C   UNL     1       7.493   5.813  18.766  0.00  0.00    +0.000 A 
ATOM      5  C   UNL     1       8.361   6.747  18.197  0.00  0.00    +0.000 A 
ATOM      6  C   UNL     1       7.847   7.845  17.507  0.00  0.00    +0.000 A 
ATOM      7  C   UNL     1       6.468   8.013  17.395  0.00  0.00    +0.000 A 
ATOM      8  C   UNL     1       5.594   7.084  17.965  0.00  0.00    +0.000 A 
ATOM      9  N   UNL     1       4.220   7.300  17.829  0.00  0.00    +0.000 NA
ATOM     10  C   UNL     1       3.386   6.429  18.302  0.00  0.00    +0.000 A 
ATOM     11  N   UNL     1       3.797   5.290  18.983  0.00  0.00    +0.000 N 
ENDROOT
BRANCH  11  12
ATOM     12  C   UNL     1       2.866   4.377  19.549  0.00  0.00    +0.000 A 
ATOM     13  C   UNL     1       2.364   4.673  20.827  0.00  0.00    +0.000 A 
ATOM     14  C   UNL     1       1.483   3.796  21.461  0.00  0.00    +0.000 A 
ATOM     15  C   UNL     1       1.086   2.627  20.819  0.00  0.00    +0.000 A 
ATOM     16  C   UNL     1       1.559   2.342  19.538  0.00  0.00    +0.000 A 
ATOM     17  C   UNL     1       2.452   3.212  18.879  0.00  0.00    +0.000 A 
BRANCH  17  18
ATOM     18  C   UNL     1       2.915   2.824  17.497  0.00  0.00    +0.000 C 
ATOM     19  F   UNL     1       4.238   2.525  17.392  0.00  0.00    +0.000 F 
ATOM     20  F   UNL     1       2.264   1.710  17.050  0.00  0.00    +0.000 F 
ATOM     21  F   UNL     1       2.673   3.789  16.568  0.00  0.00    +0.000 F 
ENDBRANCH  17  18
ENDBRANCH  11  12
BRANCH  10  22
ATOM     22  C   UNL     1       1.899   6.722  18.102  0.00  0.00    +0.000 C 
BRANCH  22  23
ATOM     23  S   UNL     1       1.637   8.455  17.631  0.00  0.00    +0.000 S 
BRANCH  23  24
ATOM     24  C   UNL     1       1.207   9.186  19.200  0.00  0.00    +0.000 A 
ATOM     25  N   UNL     1       1.665   8.620  20.327  0.00  0.00    +0.000 NA
ATOM     26  C   UNL     1       1.128   9.116  21.452  0.00  0.00    +0.000 A 
ATOM     27  C   UNL     1       0.152  10.101  21.529  0.00  0.00    +0.000 A 
ATOM     28  C   UNL     1      -0.462  10.564  22.720  0.00  0.00    +0.000 A 
ATOM     29  C   UNL     1      -1.446  11.548  22.665  0.00  0.00    +0.000 A 
ATOM     30  C   UNL     1      -1.802  12.086  21.435  0.00  0.00    +0.000 A 
ATOM     31  C   UNL     1      -1.186  11.622  20.267  0.00  0.00    +0.000 A 
ATOM     32  C   UNL     1      -0.221  10.622  20.291  0.00  0.00    +0.000 A 
ATOM     33  N   UNL     1       0.293  10.171  19.140  0.00  0.00    +0.000 NA
BRANCH  26  34
ATOM     34  O   UNL     1       1.619   8.540  22.587  0.00  0.00    +0.000 OA
ATOM     35  H   UNL     1       2.386   8.059  22.232  0.00  0.00    +0.000 HD
ENDBRANCH  26  34
ENDBRANCH  23  24
ENDBRANCH  22  23
ENDBRANCH  10  22
TORSDOF 6
ENDMDL
MODEL 4
REMARK VINA RESULT:      -8.4      1.750      1.939
REMARK  Name = 
REMARK  6 active torsions:
REMARK  status: ('A' for Active; 'I' for Inactive)
REMARK    1  A    between atoms: C_10  and  C_11
REMARK    2  A    between atoms: C_11  and  S_12
REMARK    3  A    between atoms: S_12  and  C_13
REMARK    4  A    between atoms: C_15  and  O_16
REMARK    5  A    between atoms: N_24  and  C_25
REMARK    6  A    between atoms: C_30  and  C_31
REMARK                            x       y       z     vdW  Elec       q    Type
REMARK                         _______ _______ _______ _____ _____    ______ ____
ROOT
ATOM      1  O   UNL     1       5.453   3.956  19.893  0.00  0.00    +0.000 OA
ATOM      2  C   UNL     1       5.130   4.950  19.246  0.00  0.00    +0.000 A 
ATOM      3  C   UNL     1       6.178   5.861  18.753  0.00  0.00    +0.000 A 
ATOM      4  C   UNL     1       7.536   5.598  18.959  0.00  0.00    +0.000 A 
ATOM      5  C   UNL     1       8.494   6.484  18.461  0.00  0.00    +0.000 A 
ATOM      6  C   UNL     1       8.093   7.623  17.764  0.00  0.00    +0.000 A 
ATOM      7  C   UNL     1       6.737   7.881  17.574  0.00  0.00    +0.000 A 
ATOM      8  C   UNL     1       5.773   7.001  18.072  0.00  0.00    +0.000 A 
ATOM      9  N   UNL     1       4.426   7.307  17.859  0.00  0.00    +0.000 NA
ATOM     10  C   UNL     1       3.512   6.484  18.264  0.00  0.00    +0.000 A 
ATOM     11  N   UNL     1       3.808   5.310  18.945  0.00  0.00    +0.000 N 
ENDROOT
BRANCH  11  12
ATOM     12  C   UNL     1       2.789   4.450  19.437  0.00  0.00    +0.000 A 
ATOM     13  C   UNL     1       2.216   4.767  20.680  0.00  0.00    +0.000 A 
ATOM     14  C   UNL     1       1.244   3.940  21.242  0.00  0.00    +0.000 A 
ATOM     15  C   UNL     1       0.827   2.799  20.564  0.00  0.00    +0.000 A 
ATOM     16  C   UNL     1       1.371   2.494  19.316  0.00  0.00    +0.000 A 
ATOM     17  C   UNL     1       2.357   3.314  18.729  0.00  0.00    +0.000 A 
BRANCH  17  18
ATOM     18  C   UNL     1       2.892   2.907  17.379  0.00  0.00    +0.000 C 
ATOM     19  F   UNL     1       4.228   2.652  17.339  0.00  0.00    +0.000 F 
ATOM     20  F   UNL     1       2.299   1.759  16.935  0.00  0.00    +0.000 F 
ATOM     21  F   UNL     1       2.658   3.838  16.414  0.00  0.00    +0.000 F 
ENDBRANCH  17  18
ENDBRANCH  11  12
BRANCH  10  22
ATOM     22  C   UNL     1       2.061   6.875  17.982  0.00  0.00    +0.000 C 
BRANCH  22  23
ATOM     23  S   UNL     1       1.943   8.618  17.491  0.00  0.00    +0.000 S 
BRANCH  23  24
ATOM     24  C   UNL     1       0.841   9.261  18.736  0.00  0.00    +0.000 A 
ATOM     25  N   UNL     1       0.001  10.255  18.410  0.00  0.00    +0.000 NA
ATOM     26  C   UNL     1      -0.639  10.803  19.453  0.00  0.00    +0.000 A 
ATOM     27  C   UNL     1      -0.475  10.456  20.789  0.00  0.00    +0.000 A 
ATOM     28  C   UNL     1      -1.101  11.094  21.890  0.00  0.00    +0.000 A 
ATOM     29  C   UNL     1      -0.842  10.664  23.189  0.00  0.00    +0.000 A 
ATOM     30  C   UNL     1       0.018   9.591  23.392  0.00  0.00    +0.000 A 
ATOM     31  C   UNL     1       0.626   8.969  22.295  0.00  0.00    +0.000 A 
ATOM     32  C   UNL     1       0.406   9.396  20.991  0.00  0.00    +0.000 A 
ATOM     33  N   UNL     1       1.060   8.806  19.983  0.00  0.00    +0.000 NA
BRANCH  26  34
ATOM     34  O   UNL     1      -1.500  11.800  19.099  0.00  0.00    +0.000 OA
ATOM     35  H   UNL     1      -2.251  11.611  19.687  0.00  0.00    +0.000 HD
ENDBRANCH  26  34
ENDBRANCH  23  24
ENDBRANCH  22  23
ENDBRANCH  10  22
TORSDOF 6
ENDMDL
MODEL 5
REMARK VINA RESULT:      -8.4      2.424      4.942
REMARK  Name = 
REMARK  6 active torsions:
REMARK  status: ('A' for Active; 'I' for Inactive)
REMARK    1  A    between atoms: C_10  and  C_11
REMARK    2  A    between atoms: C_11  and  S_12
REMARK    3  A    between atoms: S_12  and  C_13
REMARK    4  A    between atoms: C_15  and  O_16
REMARK    5  A    between atoms: N_24  and  C_25
REMARK    6  A    between atoms: C_30  and  C_31
REMARK                            x       y       z     vdW  Elec       q    Type
REMARK                         _______ _______ _______ _____ _____    ______ ____
ROOT
ATOM      1  O   UNL     1       4.471   2.310  17.840  0.00  0.00    +0.000 OA
ATOM      2  C   UNL     1       4.131   3.355  18.389  0.00  0.00    +0.000 A 
ATOM      3  C   UNL     1       3.254   3.295  19.571  0.00  0.00    +0.000 A 
ATOM      4  C   UNL     1       2.837   2.076  20.117  0.00  0.00    +0.000 A 
ATOM      5  C   UNL     1       2.016   2.070  21.247  0.00  0.00    +0.000 A 
ATOM      6  C   UNL     1       1.617   3.274  21.824  0.00  0.00    +0.000 A 
ATOM      7  C   UNL     1       2.029   4.484  21.266  0.00  0.00    +0.000 A 
ATOM      8  C   UNL     1       2.847   4.498  20.134  0.00  0.00    +0.000 A 
ATOM      9  N   UNL     1       3.228   5.736  19.610  0.00  0.00    +0.000 NA
ATOM     10  C   UNL     1       4.028   5.780  18.593  0.00  0.00    +0.000 A 
ATOM     11  N   UNL     1       4.504   4.638  17.962  0.00  0.00    +0.000 N 
ENDROOT
BRANCH  11  12
ATOM     12  C   UNL     1       5.330   4.707  16.807  0.00  0.00    +0.000 A 
ATOM     13  C   UNL     1       4.713   4.545  15.556  0.00  0.00    +0.000 A 
ATOM     14  C   UNL     1       5.472   4.555  14.387  0.00  0.00    +0.000 A 
ATOM     15  C   UNL     1       6.849   4.739  14.455  0.00  0.00    +0.000 A 
ATOM     16  C   UNL     1       7.465   4.928  15.692  0.00  0.00    +0.000 A 
ATOM     17  C   UNL     1       6.718   4.920  16.888  0.00  0.00    +0.000 A 
BRANCH  17  18
ATOM     18  C   UNL     1       7.466   5.128  18.181  0.00  0.00    +0.000 C 
ATOM     19  F   UNL     1       6.739   4.915  19.311  0.00  0.00    +0.000 F 
ATOM     20  F   UNL     1       8.532   4.279  18.281  0.00  0.00    +0.000 F 
ATOM     21  F   UNL     1       7.983   6.382  18.298  0.00  0.00    +0.000 F 
ENDBRANCH  17  18
ENDBRANCH  11  12
BRANCH  10  22
ATOM     22  C   UNL     1       4.417   7.169  18.084  0.00  0.00    +0.000 C 
BRANCH  22  23
ATOM     23  S   UNL     1       3.186   7.796  16.906  0.00  0.00    +0.000 S 
BRANCH  23  24
ATOM     24  C   UNL     1       2.168   8.806  17.965  0.00  0.00    +0.000 A 
ATOM     25  N   UNL     1       1.999  10.102  17.661  0.00  0.00    +0.000 NA
ATOM     26  C   UNL     1       1.389  10.818  18.616  0.00  0.00    +0.000 A 
ATOM     27  C   UNL     1       0.971  10.346  19.855  0.00  0.00    +0.000 A 
ATOM     28  C   UNL     1       0.396  11.130  20.886  0.00  0.00    +0.000 A 
ATOM     29  C   UNL     1       0.033  10.542  22.095  0.00  0.00    +0.000 A 
ATOM     30  C   UNL     1       0.221   9.177  22.270  0.00  0.00    +0.000 A 
ATOM     31  C   UNL     1       0.788   8.414  21.243  0.00  0.00    +0.000 A 
ATOM     32  C   UNL     1       1.183   8.981  20.037  0.00  0.00    +0.000 A 
ATOM     33  N   UNL     1       1.776   8.219  19.111  0.00  0.00    +0.000 NA
BRANCH  26  34
ATOM     34  O   UNL     1       1.211  12.129  18.281  0.00  0.00    +0.000 OA
ATOM     35  H   UNL     1       2.068  12.331  17.869  0.00  0.00    +0.000 HD
ENDBRANCH  26  34
ENDBRANCH  23  24
ENDBRANCH  22  23
ENDBRANCH  10  22
TORSDOF 6
ENDMDL
MODEL 6
REMARK VINA RESULT:      -8.3      2.550      7.864
REMARK  Name = 
REMARK  6 active torsions:
REMARK  status: ('A' for Active; 'I' for Inactive)
REMARK    1  A    between atoms: C_10  and  C_11
REMARK    2  A    between atoms: C_11  and  S_12
REMARK    3  A    between atoms: S_12  and  C_13
REMARK    4  A    between atoms: C_15  and  O_16
REMARK    5  A    between atoms: N_24  and  C_25
REMARK    6  A    between atoms: C_30  and  C_31
REMARK                            x       y       z     vdW  Elec       q    Type
REMARK                         _______ _______ _______ _____ _____    ______ ____
ROOT
ATOM      1  O   UNL     1       1.859   5.763  21.282  0.00  0.00    +0.000 OA
ATOM      2  C   UNL     1       2.165   6.344  20.244  0.00  0.00    +0.000 A 
ATOM      3  C   UNL     1       1.707   7.729  20.032  0.00  0.00    +0.000 A 
ATOM      4  C   UNL     1       0.974   8.418  21.004  0.00  0.00    +0.000 A 
ATOM      5  C   UNL     1       0.572   9.734  20.763  0.00  0.00    +0.000 A 
ATOM      6  C   UNL     1       0.904  10.353  19.558  0.00  0.00    +0.000 A 
ATOM      7  C   UNL     1       1.626   9.654  18.592  0.00  0.00    +0.000 A 
ATOM      8  C   UNL     1       2.027   8.336  18.824  0.00  0.00    +0.000 A 
ATOM      9  N   UNL     1       2.744   7.677  17.822  0.00  0.00    +0.000 NA
ATOM     10  C   UNL     1       3.174   6.474  18.031  0.00  0.00    +0.000 A 
ATOM     11  N   UNL     1       2.920   5.779  19.206  0.00  0.00    +0.000 N 
ENDROOT
BRANCH  11  12
ATOM     12  C   UNL     1       3.346   4.435  19.392  0.00  0.00    +0.000 A 
ATOM     13  C   UNL     1       4.661   4.228  19.838  0.00  0.00    +0.000 A 
ATOM     14  C   UNL     1       5.158   2.935  19.997  0.00  0.00    +0.000 A 
ATOM     15  C   UNL     1       4.344   1.840  19.723  0.00  0.00    +0.000 A 
ATOM     16  C   UNL     1       3.028   2.039  19.306  0.00  0.00    +0.000 A 
ATOM     17  C   UNL     1       2.504   3.338  19.137  0.00  0.00    +0.000 A 
BRANCH  17  18
ATOM     18  C   UNL     1       1.073   3.460  18.680  0.00  0.00    +0.000 C 
ATOM     19  F   UNL     1       0.877   4.259  17.597  0.00  0.00    +0.000 F 
ATOM     20  F   UNL     1       0.560   2.246  18.322  0.00  0.00    +0.000 F 
ATOM     21  F   UNL     1       0.246   3.936  19.651  0.00  0.00    +0.000 F 
ENDBRANCH  17  18
ENDBRANCH  11  12
BRANCH  10  22
ATOM     22  C   UNL     1       3.966   5.821  16.897  0.00  0.00    +0.000 C 
BRANCH  22  23
ATOM     23  S   UNL     1       5.737   6.191  17.047  0.00  0.00    +0.000 S 
BRANCH  23  24
ATOM     24  C   UNL     1       6.384   5.417  15.577  0.00  0.00    +0.000 A 
ATOM     25  N   UNL     1       7.545   5.857  15.068  0.00  0.00    +0.000 NA
ATOM     26  C   UNL     1       7.845   5.355  13.861  0.00  0.00    +0.000 A 
ATOM     27  C   UNL     1       7.061   4.481  13.119  0.00  0.00    +0.000 A 
ATOM     28  C   UNL     1       7.353   4.017  11.812  0.00  0.00    +0.000 A 
ATOM     29  C   UNL     1       6.475   3.153  11.162  0.00  0.00    +0.000 A 
ATOM     30  C   UNL     1       5.323   2.736  11.816  0.00  0.00    +0.000 A 
ATOM     31  C   UNL     1       5.048   3.200  13.108  0.00  0.00    +0.000 A 
ATOM     32  C   UNL     1       5.894   4.083  13.767  0.00  0.00    +0.000 A 
ATOM     33  N   UNL     1       5.554   4.544  14.977  0.00  0.00    +0.000 NA
BRANCH  26  34
ATOM     34  O   UNL     1       9.037   5.801  13.369  0.00  0.00    +0.000 OA
ATOM     35  H   UNL     1       8.876   5.738  12.413  0.00  0.00    +0.000 HD
ENDBRANCH  26  34
ENDBRANCH  23  24
ENDBRANCH  22  23
ENDBRANCH  10  22
TORSDOF 6
ENDMDL
MODEL 7
REMARK VINA RESULT:      -8.3      4.042      9.124
REMARK  Name = 
REMARK  6 active torsions:
REMARK  status: ('A' for Active; 'I' for Inactive)
REMARK    1  A    between atoms: C_10  and  C_11
REMARK    2  A    between atoms: C_11  and  S_12
REMARK    3  A    between atoms: S_12  and  C_13
REMARK    4  A    between atoms: C_15  and  O_16
REMARK    5  A    between atoms: N_24  and  C_25
REMARK    6  A    between atoms: C_30  and  C_31
REMARK                            x       y       z     vdW  Elec       q    Type
REMARK                         _______ _______ _______ _____ _____    ______ ____
ROOT
ATOM      1  O   UNL     1      -3.510  12.661  19.238  0.00  0.00    +0.000 OA
ATOM      2  C   UNL     1      -2.695  11.879  18.753  0.00  0.00    +0.000 A 
ATOM      3  C   UNL     1      -3.000  11.227  17.468  0.00  0.00    +0.000 A 
ATOM      4  C   UNL     1      -4.171  11.512  16.758  0.00  0.00    +0.000 A 
ATOM      5  C   UNL     1      -4.410  10.878  15.536  0.00  0.00    +0.000 A 
ATOM      6  C   UNL     1      -3.483   9.966  15.032  0.00  0.00    +0.000 A 
ATOM      7  C   UNL     1      -2.324   9.681  15.752  0.00  0.00    +0.000 A 
ATOM      8  C   UNL     1      -2.080  10.309  16.977  0.00  0.00    +0.000 A 
ATOM      9  N   UNL     1      -0.906   9.985  17.662  0.00  0.00    +0.000 NA
ATOM     10  C   UNL     1      -0.628  10.590  18.773  0.00  0.00    +0.000 A 
ATOM     11  N   UNL     1      -1.473  11.532  19.347  0.00  0.00    +0.000 N 
ENDROOT
BRANCH  11  12
ATOM     12  C   UNL     1      -1.181  12.138  20.599  0.00  0.00    +0.000 A 
ATOM     13  C   UNL     1      -1.680  11.514  21.754  0.00  0.00    +0.000 A 
ATOM     14  C   UNL     1      -1.470  12.081  23.011  0.00  0.00    +0.000 A 
ATOM     15  C   UNL     1      -0.751  13.266  23.126  0.00  0.00    +0.000 A 
ATOM     16  C   UNL     1      -0.229  13.877  21.985  0.00  0.00    +0.000 A 
ATOM     17  C   UNL     1      -0.431  13.323  20.704  0.00  0.00    +0.000 A 
BRANCH  17  18
ATOM     18  C   UNL     1       0.166  14.051  19.526  0.00  0.00    +0.000 C 
ATOM     19  F   UNL     1      -0.726  14.445  18.577  0.00  0.00    +0.000 F 
ATOM     20  F   UNL     1       0.795  15.198  19.918  0.00  0.00    +0.000 F 
ATOM     21  F   UNL     1       1.110  13.319  18.873  0.00  0.00    +0.000 F 
ENDBRANCH  17  18
ENDBRANCH  11  12
BRANCH  10  22
ATOM     22  C   UNL     1       0.680  10.198  19.460  0.00  0.00    +0.000 C 
BRANCH  22  23
ATOM     23  S   UNL     1       1.997   9.926  18.240  0.00  0.00    +0.000 S 
BRANCH  23  24
ATOM     24  C   UNL     1       2.379   8.206  18.513  0.00  0.00    +0.000 A 
ATOM     25  N   UNL     1       2.007   7.632  19.667  0.00  0.00    +0.000 NA
ATOM     26  C   UNL     1       2.511   6.405  19.862  0.00  0.00    +0.000 A 
ATOM     27  C   UNL     1       3.379   5.730  19.012  0.00  0.00    +0.000 A 
ATOM     28  C   UNL     1       3.965   4.465  19.265  0.00  0.00    +0.000 A 
ATOM     29  C   UNL     1       4.838   3.899  18.340  0.00  0.00    +0.000 A 
ATOM     30  C   UNL     1       5.110   4.577  17.158  0.00  0.00    +0.000 A 
ATOM     31  C   UNL     1       4.522   5.824  16.919  0.00  0.00    +0.000 A 
ATOM     32  C   UNL     1       3.669   6.424  17.839  0.00  0.00    +0.000 A 
ATOM     33  N   UNL     1       3.182   7.645  17.590  0.00  0.00    +0.000 NA
BRANCH  26  34
ATOM     34  O   UNL     1       2.108   5.832  21.033  0.00  0.00    +0.000 OA
ATOM     35  H   UNL     1       1.143   5.829  20.912  0.00  0.00    +0.000 HD
ENDBRANCH  26  34
ENDBRANCH  23  24
ENDBRANCH  22  23
ENDBRANCH  10  22
TORSDOF 6
ENDMDL
MODEL 8
REMARK VINA RESULT:      -8.3      1.043      1.648
REMARK  Name = 
REMARK  6 active torsions:
REMARK  status: ('A' for Active; 'I' for Inactive)
REMARK    1  A    between atoms: C_10  and  C_11
REMARK    2  A    between atoms: C_11  and  S_12
REMARK    3  A    between atoms: S_12  and  C_13
REMARK    4  A    between atoms: C_15  and  O_16
REMARK    5  A    between atoms: N_24  and  C_25
REMARK    6  A    between atoms: C_30  and  C_31
REMARK                            x       y       z     vdW  Elec       q    Type
REMARK                         _______ _______ _______ _____ _____    ______ ____
ROOT
ATOM      1  O   UNL     1       4.561   2.631  18.189  0.00  0.00    +0.000 OA
ATOM      2  C   UNL     1       4.339   3.806  17.904  0.00  0.00    +0.000 A 
ATOM      3  C   UNL     1       5.070   4.426  16.785  0.00  0.00    +0.000 A 
ATOM      4  C   UNL     1       5.975   3.699  16.005  0.00  0.00    +0.000 A 
ATOM      5  C   UNL     1       6.635   4.326  14.946  0.00  0.00    +0.000 A 
ATOM      6  C   UNL     1       6.389   5.671  14.673  0.00  0.00    +0.000 A 
ATOM      7  C   UNL     1       5.494   6.390  15.463  0.00  0.00    +0.000 A 
ATOM      8  C   UNL     1       4.832   5.770  16.526  0.00  0.00    +0.000 A 
ATOM      9  N   UNL     1       3.949   6.535  17.291  0.00  0.00    +0.000 NA
ATOM     10  C   UNL     1       3.283   5.973  18.250  0.00  0.00    +0.000 A 
ATOM     11  N   UNL     1       3.436   4.634  18.586  0.00  0.00    +0.000 N 
ENDROOT
BRANCH  11  12
ATOM     12  C   UNL     1       2.743   4.052  19.682  0.00  0.00    +0.000 A 
ATOM     13  C   UNL     1       3.185   4.377  20.975  0.00  0.00    +0.000 A 
ATOM     14  C   UNL     1       2.580   3.804  22.093  0.00  0.00    +0.000 A 
ATOM     15  C   UNL     1       1.523   2.914  21.931  0.00  0.00    +0.000 A 
ATOM     16  C   UNL     1       1.061   2.608  20.650  0.00  0.00    +0.000 A 
ATOM     17  C   UNL     1       1.659   3.173  19.505  0.00  0.00    +0.000 A 
BRANCH  17  18
ATOM     18  C   UNL     1       1.099   2.785  18.160  0.00  0.00    +0.000 C 
ATOM     19  F   UNL     1       1.903   1.989  17.405  0.00  0.00    +0.000 F 
ATOM     20  F   UNL     1      -0.067   2.086  18.291  0.00  0.00    +0.000 F 
ATOM     21  F   UNL     1       0.797   3.860  17.381  0.00  0.00    +0.000 F 
ENDBRANCH  17  18
ENDBRANCH  11  12
BRANCH  10  22
ATOM     22  C   UNL     1       2.321   6.867  19.033  0.00  0.00    +0.000 C 
BRANCH  22  23
ATOM     23  S   UNL     1       1.931   8.375  18.101  0.00  0.00    +0.000 S 
BRANCH  23  24
ATOM     24  C   UNL     1       1.216   9.401  19.372  0.00  0.00    +0.000 A 
ATOM     25  N   UNL     1       1.460   9.106  20.658  0.00  0.00    +0.000 NA
ATOM     26  C   UNL     1       0.723   9.804  21.534  0.00  0.00    +0.000 A 
ATOM     27  C   UNL     1      -0.254  10.741  21.221  0.00  0.00    +0.000 A 
ATOM     28  C   UNL     1      -1.079  11.418  22.154  0.00  0.00    +0.000 A 
ATOM     29  C   UNL     1      -2.039  12.324  21.713  0.00  0.00    +0.000 A 
ATOM     30  C   UNL     1      -2.165  12.574  20.352  0.00  0.00    +0.000 A 
ATOM     31  C   UNL     1      -1.341  11.902  19.441  0.00  0.00    +0.000 A 
ATOM     32  C   UNL     1      -0.394  10.972  19.853  0.00  0.00    +0.000 A 
ATOM     33  N   UNL     1       0.325  10.311  18.938  0.00  0.00    +0.000 NA
BRANCH  26  34
ATOM     34  O   UNL     1       0.998   9.503  22.836  0.00  0.00    +0.000 OA
ATOM     35  H   UNL     1       0.682   8.585  22.883  0.00  0.00    +0.000 HD
ENDBRANCH  26  34
ENDBRANCH  23  24
ENDBRANCH  22  23
ENDBRANCH  10  22
TORSDOF 6
ENDMDL
MODEL 9
REMARK VINA RESULT:      -8.3      4.227      8.733
REMARK  Name = 
REMARK  6 active torsions:
REMARK  status: ('A' for Active; 'I' for Inactive)
REMARK    1  A    between atoms: C_10  and  C_11
REMARK    2  A    between atoms: C_11  and  S_12
REMARK    3  A    between atoms: S_12  and  C_13
REMARK    4  A    between atoms: C_15  and  O_16
REMARK    5  A    between atoms: N_24  and  C_25
REMARK    6  A    between atoms: C_30  and  C_31
REMARK                            x       y       z     vdW  Elec       q    Type
REMARK                         _______ _______ _______ _____ _____    ______ ____
ROOT
ATOM      1  O   UNL     1      -0.341  13.718  17.815  0.00  0.00    +0.000 OA
ATOM      2  C   UNL     1       0.140  13.152  18.794  0.00  0.00    +0.000 A 
ATOM      3  C   UNL     1       1.322  13.734  19.455  0.00  0.00    +0.000 A 
ATOM      4  C   UNL     1       1.883  14.942  19.027  0.00  0.00    +0.000 A 
ATOM      5  C   UNL     1       2.996  15.461  19.692  0.00  0.00    +0.000 A 
ATOM      6  C   UNL     1       3.541  14.775  20.777  0.00  0.00    +0.000 A 
ATOM      7  C   UNL     1       2.981  13.567  21.189  0.00  0.00    +0.000 A 
ATOM      8  C   UNL     1       1.870  13.039  20.526  0.00  0.00    +0.000 A 
ATOM      9  N   UNL     1       1.349  11.823  20.974  0.00  0.00    +0.000 NA
ATOM     10  C   UNL     1       0.288  11.336  20.411  0.00  0.00    +0.000 A 
ATOM     11  N   UNL     1      -0.345  11.955  19.341  0.00  0.00    +0.000 N 
ENDROOT
BRANCH  11  12
ATOM     12  C   UNL     1      -1.470  11.374  18.697  0.00  0.00    +0.000 A 
ATOM     13  C   UNL     1      -1.224  10.457  17.662  0.00  0.00    +0.000 A 
ATOM     14  C   UNL     1      -2.282   9.885  16.957  0.00  0.00    +0.000 A 
ATOM     15  C   UNL     1      -3.593  10.213  17.287  0.00  0.00    +0.000 A 
ATOM     16  C   UNL     1      -3.846  11.102  18.332  0.00  0.00    +0.000 A 
ATOM     17  C   UNL     1      -2.792  11.694  19.057  0.00  0.00    +0.000 A 
BRANCH  17  18
ATOM     18  C   UNL     1      -3.156  12.646  20.168  0.00  0.00    +0.000 C 
ATOM     19  F   UNL     1      -4.487  12.888  20.311  0.00  0.00    +0.000 F 
ATOM     20  F   UNL     1      -2.751  12.170  21.383  0.00  0.00    +0.000 F 
ATOM     21  F   UNL     1      -2.565  13.865  20.036  0.00  0.00    +0.000 F 
ENDBRANCH  17  18
ENDBRANCH  11  12
BRANCH  10  22
ATOM     22  C   UNL     1      -0.236  10.011  20.965  0.00  0.00    +0.000 C 
BRANCH  22  23
ATOM     23  S   UNL     1       1.040   9.164  21.938  0.00  0.00    +0.000 S 
BRANCH  23  24
ATOM     24  C   UNL     1       1.633   7.956  20.769  0.00  0.00    +0.000 A 
ATOM     25  N   UNL     1       2.106   8.375  19.586  0.00  0.00    +0.000 NA
ATOM     26  C   UNL     1       2.337   7.392  18.703  0.00  0.00    +0.000 A 
ATOM     27  C   UNL     1       2.099   6.037  18.904  0.00  0.00    +0.000 A 
ATOM     28  C   UNL     1       2.277   5.016  17.937  0.00  0.00    +0.000 A 
ATOM     29  C   UNL     1       1.985   3.692  18.255  0.00  0.00    +0.000 A 
ATOM     30  C   UNL     1       1.540   3.381  19.534  0.00  0.00    +0.000 A 
ATOM     31  C   UNL     1       1.372   4.399  20.480  0.00  0.00    +0.000 A 
ATOM     32  C   UNL     1       1.630   5.732  20.180  0.00  0.00    +0.000 A 
ATOM     33  N   UNL     1       1.395   6.674  21.101  0.00  0.00    +0.000 NA
BRANCH  26  34
ATOM     34  O   UNL     1       2.834   7.836  17.513  0.00  0.00    +0.000 OA
ATOM     35  H   UNL     1       2.272   7.350  16.886  0.00  0.00    +0.000 HD
ENDBRANCH  26  34
ENDBRANCH  23  24
ENDBRANCH  22  23
ENDBRANCH  10  22
TORSDOF 6
ENDMDL
