MODEL 1
REMARK VINA RESULT:      -8.0      0.000      0.000
REMARK  Name = 
REMARK  6 active torsions:
REMARK  status: ('A' for Active; 'I' for Inactive)
REMARK    1  A    between atoms: C_2  and  C_20
REMARK    2  A    between atoms: N_3  and  C_4
REMARK    3  A    between atoms: C_4  and  C_5
REMARK    4  A    between atoms: C_8  and  N_9
REMARK    5  A    between atoms: N_9  and  S_10
REMARK    6  A    between atoms: S_10  and  C_13
REMARK                            x       y       z     vdW  Elec       q    Type
REMARK                         _______ _______ _______ _____ _____    ______ ____
ROOT
ATOM      1  C   UNL     1       2.027   8.523  18.638  0.00  0.00    +0.000 A 
ATOM      2  C   UNL     1       1.554   8.357  19.949  0.00  0.00    +0.000 A 
ATOM      3  C   UNL     1       1.818   7.178  20.661  0.00  0.00    +0.000 A 
ATOM      4  C   UNL     1       2.568   6.160  20.073  0.00  0.00    +0.000 A 
ATOM      5  C   UNL     1       3.031   6.305  18.767  0.00  0.00    +0.000 A 
ATOM      6  C   UNL     1       2.770   7.485  18.057  0.00  0.00    +0.000 A 
ENDROOT
BRANCH   4   7
ATOM      7  N   UNL     1       2.903   4.974  20.800  0.00  0.00    +0.000 N 
ATOM      8  H   UNL     1       3.253   5.155  21.744  0.00  0.00    +0.000 HD
BRANCH   7   9
ATOM      9  S   UNL     1       1.751   3.738  20.907  0.00  0.00    +0.000 S 
ATOM     10  O   UNL     1       1.992   3.117  22.194  0.00  0.00    +0.000 OA
ATOM     11  O   UNL     1       0.446   4.259  20.568  0.00  0.00    +0.000 OA
BRANCH   9  12
ATOM     12  C   UNL     1       2.270   2.601  19.628  0.00  0.00    +0.000 C 
ATOM     13  C   UNL     1       1.737   2.904  18.235  0.00  0.00    +0.000 C 
ATOM     14  C   UNL     1       2.637   2.066  17.331  0.00  0.00    +0.000 C 
ATOM     15  C   UNL     1       3.996   2.020  18.028  0.00  0.00    +0.000 C 
ATOM     16  C   UNL     1       3.783   2.635  19.411  0.00  0.00    +0.000 C 
ENDBRANCH   9  12
ENDBRANCH   7   9
ENDBRANCH   4   7
BRANCH   1  17
ATOM     17  C   UNL     1       1.765   9.800  17.878  0.00  0.00    +0.000 C 
BRANCH  17  20
ATOM     18  O   UNL     1       0.419  11.681  19.430  0.00  0.00    +0.000 OA
ATOM     19  C   UNL     1      -0.222  11.054  18.592  0.00  0.00    +0.000 C 
ATOM     20  N   UNL     1       0.354  10.094  17.791  0.00  0.00    +0.000 N 
ATOM     21  H   UNL     1      -0.181   9.682  17.041  0.00  0.00    +0.000 HD
BRANCH  19  22
ATOM     22  C   UNL     1      -1.632  11.291  18.372  0.00  0.00    +0.000 A 
ATOM     23  C   UNL     1      -2.456  11.093  17.276  0.00  0.00    +0.000 A 
ATOM     24  C   UNL     1      -3.773  11.521  17.611  0.00  0.00    +0.000 A 
ATOM     25  C   UNL     1      -4.992  11.569  16.925  0.00  0.00    +0.000 A 
ATOM     26  N   UNL     1      -6.103  12.061  17.527  0.00  0.00    +0.000 NA
ATOM     27  C   UNL     1      -6.013  12.497  18.804  0.00  0.00    +0.000 A 
ATOM     28  C   UNL     1      -4.858  12.480  19.573  0.00  0.00    +0.000 A 
ATOM     29  C   UNL     1      -3.731  11.972  18.928  0.00  0.00    +0.000 A 
ATOM     30  N   UNL     1      -2.440  11.803  19.371  0.00  0.00    +0.000 N 
ATOM     31  H   UNL     1      -2.105  12.027  20.298  0.00  0.00    +0.000 HD
ENDBRANCH  19  22
ENDBRANCH  17  20
ENDBRANCH   1  17
TORSDOF 6
ENDMDL
MODEL 2
REMARK VINA RESULT:      -7.8      1.791      2.334
REMARK  Name = 
REMARK  6 active torsions:
REMARK  status: ('A' for Active; 'I' for Inactive)
REMARK    1  A    between atoms: C_2  and  C_20
REMARK    2  A    between atoms: N_3  and  C_4
REMARK    3  A    between atoms: C_4  and  C_5
REMARK    4  A    between atoms: C_8  and  N_9
REMARK    5  A    between atoms: N_9  and  S_10
REMARK    6  A    between atoms: S_10  and  C_13
REMARK                            x       y       z     vdW  Elec       q    Type
REMARK                         _______ _______ _______ _____ _____    ______ ____
ROOT
ATOM      1  C   UNL     1       1.614   9.452  18.822  0.00  0.00    +0.000 A 
ATOM      2  C   UNL     1       1.487   8.588  19.920  0.00  0.00    +0.000 A 
ATOM      3  C   UNL     1       2.034   7.297  19.883  0.00  0.00    +0.000 A 
ATOM      4  C   UNL     1       2.725   6.864  18.751  0.00  0.00    +0.000 A 
ATOM      5  C   UNL     1       2.845   7.706  17.648  0.00  0.00    +0.000 A 
ATOM      6  C   UNL     1       2.300   8.997  17.687  0.00  0.00    +0.000 A 
ENDROOT
BRANCH   4   7
ATOM      7  N   UNL     1       3.345   5.575  18.712  0.00  0.00    +0.000 N 
ATOM      8  H   UNL     1       3.668   5.246  19.624  0.00  0.00    +0.000 HD
BRANCH   7   9
ATOM      9  S   UNL     1       2.514   4.300  17.970  0.00  0.00    +0.000 S 
ATOM     10  O   UNL     1       1.249   4.873  17.557  0.00  0.00    +0.000 OA
ATOM     11  O   UNL     1       3.379   3.646  17.014  0.00  0.00    +0.000 OA
BRANCH   9  12
ATOM     12  C   UNL     1       2.208   3.183  19.332  0.00  0.00    +0.000 C 
ATOM     13  C   UNL     1       3.354   3.040  20.324  0.00  0.00    +0.000 C 
ATOM     14  C   UNL     1       2.685   2.390  21.533  0.00  0.00    +0.000 C 
ATOM     15  C   UNL     1       1.250   2.915  21.542  0.00  0.00    +0.000 C 
ATOM     16  C   UNL     1       1.065   3.666  20.224  0.00  0.00    +0.000 C 
ENDBRANCH   9  12
ENDBRANCH   7   9
ENDBRANCH   4   7
BRANCH   1  17
ATOM     17  C   UNL     1       1.047  10.850  18.869  0.00  0.00    +0.000 C 
BRANCH  17  20
ATOM     18  O   UNL     1      -0.583  13.060  18.404  0.00  0.00    +0.000 OA
ATOM     19  C   UNL     1      -1.120  11.985  18.654  0.00  0.00    +0.000 C 
ATOM     20  N   UNL     1      -0.397  10.843  18.913  0.00  0.00    +0.000 N 
ATOM     21  H   UNL     1      -0.874   9.959  19.004  0.00  0.00    +0.000 HD
BRANCH  19  22
ATOM     22  C   UNL     1      -2.559  11.835  18.679  0.00  0.00    +0.000 A 
ATOM     23  C   UNL     1      -3.424  10.979  18.017  0.00  0.00    +0.000 A 
ATOM     24  C   UNL     1      -4.759  11.284  18.409  0.00  0.00    +0.000 A 
ATOM     25  C   UNL     1      -6.019  10.774  18.077  0.00  0.00    +0.000 A 
ATOM     26  N   UNL     1      -7.143  11.303  18.622  0.00  0.00    +0.000 NA
ATOM     27  C   UNL     1      -7.023  12.326  19.497  0.00  0.00    +0.000 A 
ATOM     28  C   UNL     1      -5.822  12.893  19.901  0.00  0.00    +0.000 A 
ATOM     29  C   UNL     1      -4.684  12.333  19.323  0.00  0.00    +0.000 A 
ATOM     30  N   UNL     1      -3.352  12.631  19.486  0.00  0.00    +0.000 N 
ATOM     31  H   UNL     1      -2.982  13.343  20.102  0.00  0.00    +0.000 HD
ENDBRANCH  19  22
ENDBRANCH  17  20
ENDBRANCH   1  17
TORSDOF 6
ENDMDL
MODEL 3
REMARK VINA RESULT:      -7.7      1.618      2.012
REMARK  Name = 
REMARK  6 active torsions:
REMARK  status: ('A' for Active; 'I' for Inactive)
REMARK    1  A    between atoms: C_2  and  C_20
REMARK    2  A    between atoms: N_3  and  C_4
REMARK    3  A    between atoms: C_4  and  C_5
REMARK    4  A    between atoms: C_8  and  N_9
REMARK    5  A    between atoms: N_9  and  S_10
REMARK    6  A    between atoms: S_10  and  C_13
REMARK                            x       y       z     vdW  Elec       q    Type
REMARK                         _______ _______ _______ _____ _____    ______ ____
ROOT
ATOM      1  C   UNL     1       1.561   9.230  18.611  0.00  0.00    +0.000 A 
ATOM      2  C   UNL     1       1.240   8.811  19.911  0.00  0.00    +0.000 A 
ATOM      3  C   UNL     1       1.716   7.590  20.409  0.00  0.00    +0.000 A 
ATOM      4  C   UNL     1       2.529   6.782  19.615  0.00  0.00    +0.000 A 
ATOM      5  C   UNL     1       2.844   7.178  18.317  0.00  0.00    +0.000 A 
ATOM      6  C   UNL     1       2.370   8.400  17.821  0.00  0.00    +0.000 A 
ENDROOT
BRANCH   4   7
ATOM      7  N   UNL     1       3.078   5.561  20.120  0.00  0.00    +0.000 N 
ATOM      8  H   UNL     1       2.913   5.419  21.119  0.00  0.00    +0.000 HD
BRANCH   7   9
ATOM      9  S   UNL     1       2.700   4.114  19.326  0.00  0.00    +0.000 S 
ATOM     10  O   UNL     1       2.578   3.132  20.384  0.00  0.00    +0.000 OA
ATOM     11  O   UNL     1       1.619   4.339  18.394  0.00  0.00    +0.000 OA
BRANCH   9  12
ATOM     12  C   UNL     1       4.194   3.767  18.406  0.00  0.00    +0.000 C 
ATOM     13  C   UNL     1       4.143   4.123  16.927  0.00  0.00    +0.000 C 
ATOM     14  C   UNL     1       5.614   4.111  16.518  0.00  0.00    +0.000 C 
ATOM     15  C   UNL     1       6.390   4.560  17.756  0.00  0.00    +0.000 C 
ATOM     16  C   UNL     1       5.378   4.599  18.900  0.00  0.00    +0.000 C 
ENDBRANCH   9  12
ENDBRANCH   7   9
ENDBRANCH   4   7
BRANCH   1  17
ATOM     17  C   UNL     1       1.070  10.555  18.082  0.00  0.00    +0.000 C 
BRANCH  17  20
ATOM     18  O   UNL     1      -0.191  12.987  18.585  0.00  0.00    +0.000 OA
ATOM     19  C   UNL     1      -0.884  11.976  18.526  0.00  0.00    +0.000 C 
ATOM     20  N   UNL     1      -0.348  10.728  18.298  0.00  0.00    +0.000 N 
ATOM     21  H   UNL     1      -0.960   9.941  18.146  0.00  0.00    +0.000 HD
BRANCH  19  22
ATOM     22  C   UNL     1      -2.322  12.022  18.675  0.00  0.00    +0.000 A 
ATOM     23  C   UNL     1      -3.144  12.273  19.762  0.00  0.00    +0.000 A 
ATOM     24  C   UNL     1      -4.501  12.173  19.340  0.00  0.00    +0.000 A 
ATOM     25  C   UNL     1      -5.739  12.312  19.980  0.00  0.00    +0.000 A 
ATOM     26  N   UNL     1      -6.894  12.135  19.292  0.00  0.00    +0.000 NA
ATOM     27  C   UNL     1      -6.828  11.830  17.977  0.00  0.00    +0.000 A 
ATOM     28  C   UNL     1      -5.655  11.682  17.250  0.00  0.00    +0.000 A 
ATOM     29  C   UNL     1      -4.483  11.867  17.982  0.00  0.00    +0.000 A 
ATOM     30  N   UNL     1      -3.164  11.804  17.600  0.00  0.00    +0.000 N 
ATOM     31  H   UNL     1      -2.834  11.613  16.663  0.00  0.00    +0.000 HD
ENDBRANCH  19  22
ENDBRANCH  17  20
ENDBRANCH   1  17
TORSDOF 6
ENDMDL
MODEL 4
REMARK VINA RESULT:      -7.6      4.179      5.330
REMARK  Name = 
REMARK  6 active torsions:
REMARK  status: ('A' for Active; 'I' for Inactive)
REMARK    1  A    between atoms: C_2  and  C_20
REMARK    2  A    between atoms: N_3  and  C_4
REMARK    3  A    between atoms: C_4  and  C_5
REMARK    4  A    between atoms: C_8  and  N_9
REMARK    5  A    between atoms: N_9  and  S_10
REMARK    6  A    between atoms: S_10  and  C_13
REMARK                            x       y       z     vdW  Elec       q    Type
REMARK                         _______ _______ _______ _____ _____    ______ ____
ROOT
ATOM      1  C   UNL     1       2.789   5.766  19.500  0.00  0.00    +0.000 A 
ATOM      2  C   UNL     1       4.177   5.681  19.687  0.00  0.00    +0.000 A 
ATOM      3  C   UNL     1       4.988   5.024  18.751  0.00  0.00    +0.000 A 
ATOM      4  C   UNL     1       4.419   4.457  17.611  0.00  0.00    +0.000 A 
ATOM      5  C   UNL     1       3.040   4.520  17.419  0.00  0.00    +0.000 A 
ATOM      6  C   UNL     1       2.232   5.180  18.354  0.00  0.00    +0.000 A 
ENDROOT
BRANCH   4   7
ATOM      7  N   UNL     1       5.231   3.835  16.610  0.00  0.00    +0.000 N 
ATOM      8  H   UNL     1       4.694   3.355  15.885  0.00  0.00    +0.000 HD
BRANCH   7   9
ATOM      9  S   UNL     1       6.418   4.765  15.839  0.00  0.00    +0.000 S 
ATOM     10  O   UNL     1       5.790   6.049  15.607  0.00  0.00    +0.000 OA
ATOM     11  O   UNL     1       7.661   4.668  16.570  0.00  0.00    +0.000 OA
BRANCH   9  12
ATOM     12  C   UNL     1       6.606   3.938  14.264  0.00  0.00    +0.000 C 
ATOM     13  C   UNL     1       5.312   3.689  13.503  0.00  0.00    +0.000 C 
ATOM     14  C   UNL     1       5.797   3.371  12.092  0.00  0.00    +0.000 C 
ATOM     15  C   UNL     1       7.074   4.189  11.900  0.00  0.00    +0.000 C 
ATOM     16  C   UNL     1       7.412   4.774  13.270  0.00  0.00    +0.000 C 
ENDBRANCH   9  12
ENDBRANCH   7   9
ENDBRANCH   4   7
BRANCH   1  17
ATOM     17  C   UNL     1       1.917   6.493  20.494  0.00  0.00    +0.000 C 
BRANCH  17  20
ATOM     18  O   UNL     1      -0.083   8.117  21.551  0.00  0.00    +0.000 OA
ATOM     19  C   UNL     1       0.631   8.578  20.666  0.00  0.00    +0.000 C 
ATOM     20  N   UNL     1       1.634   7.845  20.072  0.00  0.00    +0.000 N 
ATOM     21  H   UNL     1       2.268   8.294  19.430  0.00  0.00    +0.000 HD
BRANCH  19  22
ATOM     22  C   UNL     1       0.481   9.936  20.191  0.00  0.00    +0.000 A 
ATOM     23  C   UNL     1      -0.329  10.507  19.223  0.00  0.00    +0.000 A 
ATOM     24  C   UNL     1      -0.048  11.901  19.156  0.00  0.00    +0.000 A 
ATOM     25  C   UNL     1      -0.534  12.963  18.384  0.00  0.00    +0.000 A 
ATOM     26  N   UNL     1      -0.040  14.216  18.547  0.00  0.00    +0.000 NA
ATOM     27  C   UNL     1       0.923  14.421  19.472  0.00  0.00    +0.000 A 
ATOM     28  C   UNL     1       1.462  13.441  20.294  0.00  0.00    +0.000 A 
ATOM     29  C   UNL     1       0.939  12.163  20.104  0.00  0.00    +0.000 A 
ATOM     30  N   UNL     1       1.224  10.972  20.729  0.00  0.00    +0.000 N 
ATOM     31  H   UNL     1       1.893  10.848  21.477  0.00  0.00    +0.000 HD
ENDBRANCH  19  22
ENDBRANCH  17  20
ENDBRANCH   1  17
TORSDOF 6
ENDMDL
MODEL 5
REMARK VINA RESULT:      -7.6      2.632      3.351
REMARK  Name = 
REMARK  6 active torsions:
REMARK  status: ('A' for Active; 'I' for Inactive)
REMARK    1  A    between atoms: C_2  and  C_20
REMARK    2  A    between atoms: N_3  and  C_4
REMARK    3  A    between atoms: C_4  and  C_5
REMARK    4  A    between atoms: C_8  and  N_9
REMARK    5  A    between atoms: N_9  and  S_10
REMARK    6  A    between atoms: S_10  and  C_13
REMARK                            x       y       z     vdW  Elec       q    Type
REMARK                         _______ _______ _______ _____ _____    ______ ____
ROOT
ATOM      1  C   UNL     1       1.240   9.279  19.005  0.00  0.00    +0.000 A 
ATOM      2  C   UNL     1       2.049   8.639  18.054  0.00  0.00    +0.000 A 
ATOM      3  C   UNL     1       2.739   7.461  18.376  0.00  0.00    +0.000 A 
ATOM      4  C   UNL     1       2.614   6.905  19.649  0.00  0.00    +0.000 A 
ATOM      5  C   UNL     1       1.825   7.538  20.608  0.00  0.00    +0.000 A 
ATOM      6  C   UNL     1       1.135   8.713  20.284  0.00  0.00    +0.000 A 
ENDROOT
BRANCH   4   7
ATOM      7  N   UNL     1       3.257   5.672  19.984  0.00  0.00    +0.000 N 
ATOM      8  H   UNL     1       3.243   5.459  20.984  0.00  0.00    +0.000 HD
BRANCH   7   9
ATOM      9  S   UNL     1       2.798   4.269  19.154  0.00  0.00    +0.000 S 
ATOM     10  O   UNL     1       2.637   3.265  20.186  0.00  0.00    +0.000 OA
ATOM     11  O   UNL     1       1.720   4.574  18.241  0.00  0.00    +0.000 OA
BRANCH   9  12
ATOM     12  C   UNL     1       4.263   3.872  18.208  0.00  0.00    +0.000 C 
ATOM     13  C   UNL     1       4.198   4.232  16.730  0.00  0.00    +0.000 C 
ATOM     14  C   UNL     1       5.660   4.171  16.296  0.00  0.00    +0.000 C 
ATOM     15  C   UNL     1       6.473   4.592  17.520  0.00  0.00    +0.000 C 
ATOM     16  C   UNL     1       5.483   4.663  18.681  0.00  0.00    +0.000 C 
ENDBRANCH   9  12
ENDBRANCH   7   9
ENDBRANCH   4   7
BRANCH   1  17
ATOM     17  C   UNL     1       0.478  10.533  18.653  0.00  0.00    +0.000 C 
BRANCH  17  20
ATOM     18  O   UNL     1       0.364  12.798  20.271  0.00  0.00    +0.000 OA
ATOM     19  C   UNL     1      -0.541  11.974  20.361  0.00  0.00    +0.000 C 
ATOM     20  N   UNL     1      -0.562  10.818  19.615  0.00  0.00    +0.000 N 
ATOM     21  H   UNL     1      -1.376  10.223  19.637  0.00  0.00    +0.000 HD
BRANCH  19  22
ATOM     22  C   UNL     1      -1.666  12.167  21.250  0.00  0.00    +0.000 A 
ATOM     23  C   UNL     1      -1.814  12.022  22.620  0.00  0.00    +0.000 A 
ATOM     24  C   UNL     1      -3.159  12.331  22.970  0.00  0.00    +0.000 A 
ATOM     25  C   UNL     1      -3.880  12.354  24.170  0.00  0.00    +0.000 A 
ATOM     26  N   UNL     1      -5.195  12.684  24.178  0.00  0.00    +0.000 NA
ATOM     27  C   UNL     1      -5.795  12.997  23.008  0.00  0.00    +0.000 A 
ATOM     28  C   UNL     1      -5.168  13.017  21.770  0.00  0.00    +0.000 A 
ATOM     29  C   UNL     1      -3.818  12.672  21.790  0.00  0.00    +0.000 A 
ATOM     30  N   UNL     1      -2.895  12.588  20.775  0.00  0.00    +0.000 N 
ATOM     31  H   UNL     1      -3.075  12.792  19.801  0.00  0.00    +0.000 HD
ENDBRANCH  19  22
ENDBRANCH  17  20
ENDBRANCH   1  17
TORSDOF 6
ENDMDL
MODEL 6
REMARK VINA RESULT:      -7.6      2.273      2.589
REMARK  Name = 
REMARK  6 active torsions:
REMARK  status: ('A' for Active; 'I' for Inactive)
REMARK    1  A    between atoms: C_2  and  C_20
REMARK    2  A    between atoms: N_3  and  C_4
REMARK    3  A    between atoms: C_4  and  C_5
REMARK    4  A    between atoms: C_8  and  N_9
REMARK    5  A    between atoms: N_9  and  S_10
REMARK    6  A    between atoms: S_10  and  C_13
REMARK                            x       y       z     vdW  Elec       q    Type
REMARK                         _______ _______ _______ _____ _____    ______ ____
ROOT
ATOM      1  C   UNL     1       1.645   8.226  20.028  0.00  0.00    +0.000 A 
ATOM      2  C   UNL     1       1.576   7.064  20.811  0.00  0.00    +0.000 A 
ATOM      3  C   UNL     1       2.076   5.845  20.331  0.00  0.00    +0.000 A 
ATOM      4  C   UNL     1       2.662   5.781  19.067  0.00  0.00    +0.000 A 
ATOM      5  C   UNL     1       2.723   6.924  18.272  0.00  0.00    +0.000 A 
ATOM      6  C   UNL     1       2.226   8.142  18.754  0.00  0.00    +0.000 A 
ENDROOT
BRANCH   4   7
ATOM      7  N   UNL     1       3.235   4.564  18.578  0.00  0.00    +0.000 N 
ATOM      8  H   UNL     1       3.136   4.440  17.568  0.00  0.00    +0.000 HD
BRANCH   7   9
ATOM      9  S   UNL     1       4.839   4.205  18.986  0.00  0.00    +0.000 S 
ATOM     10  O   UNL     1       5.340   5.409  19.616  0.00  0.00    +0.000 OA
ATOM     11  O   UNL     1       4.893   2.933  19.670  0.00  0.00    +0.000 OA
BRANCH   9  12
ATOM     12  C   UNL     1       5.624   4.036  17.388  0.00  0.00    +0.000 C 
ATOM     13  C   UNL     1       4.711   4.255  16.190  0.00  0.00    +0.000 C 
ATOM     14  C   UNL     1       5.693   4.455  15.039  0.00  0.00    +0.000 C 
ATOM     15  C   UNL     1       6.919   5.128  15.655  0.00  0.00    +0.000 C 
ATOM     16  C   UNL     1       6.707   5.093  17.168  0.00  0.00    +0.000 C 
ENDBRANCH   9  12
ENDBRANCH   7   9
ENDBRANCH   4   7
BRANCH   1  17
ATOM     17  C   UNL     1       1.129   9.544  20.552  0.00  0.00    +0.000 C 
BRANCH  17  20
ATOM     18  O   UNL     1       0.263  12.118  19.936  0.00  0.00    +0.000 OA
ATOM     19  C   UNL     1      -0.495  11.181  19.707  0.00  0.00    +0.000 C 
ATOM     20  N   UNL     1      -0.161   9.877  19.993  0.00  0.00    +0.000 N 
ATOM     21  H   UNL     1      -0.764   9.128  19.689  0.00  0.00    +0.000 HD
BRANCH  19  22
ATOM     22  C   UNL     1      -1.795  11.377  19.102  0.00  0.00    +0.000 A 
ATOM     23  C   UNL     1      -2.310  11.048  17.859  0.00  0.00    +0.000 A 
ATOM     24  C   UNL     1      -3.659  11.497  17.789  0.00  0.00    +0.000 A 
ATOM     25  C   UNL     1      -4.657  11.455  16.808  0.00  0.00    +0.000 A 
ATOM     26  N   UNL     1      -5.877  12.001  17.041  0.00  0.00    +0.000 NA
ATOM     27  C   UNL     1      -6.113  12.579  18.240  0.00  0.00    +0.000 A 
ATOM     28  C   UNL     1      -5.197  12.662  19.280  0.00  0.00    +0.000 A 
ATOM     29  C   UNL     1      -3.952  12.096  19.013  0.00  0.00    +0.000 A 
ATOM     30  N   UNL     1      -2.824  11.991  19.792  0.00  0.00    +0.000 N 
ATOM     31  H   UNL     1      -2.737  12.323  20.744  0.00  0.00    +0.000 HD
ENDBRANCH  19  22
ENDBRANCH  17  20
ENDBRANCH   1  17
TORSDOF 6
ENDMDL
MODEL 7
REMARK VINA RESULT:      -7.6      2.877      3.571
REMARK  Name = 
REMARK  6 active torsions:
REMARK  status: ('A' for Active; 'I' for Inactive)
REMARK    1  A    between atoms: C_2  and  C_20
REMARK    2  A    between atoms: N_3  and  C_4
REMARK    3  A    between atoms: C_4  and  C_5
REMARK    4  A    between atoms: C_8  and  N_9
REMARK    5  A    between atoms: N_9  and  S_10
REMARK    6  A    between atoms: S_10  and  C_13
REMARK                            x       y       z     vdW  Elec       q    Type
REMARK                         _______ _______ _______ _____ _____    ______ ____
ROOT
ATOM      1  C   UNL     1       1.209   9.421  18.944  0.00  0.00    +0.000 A 
ATOM      2  C   UNL     1       1.094   8.777  20.185  0.00  0.00    +0.000 A 
ATOM      3  C   UNL     1       1.793   7.589  20.443  0.00  0.00    +0.000 A 
ATOM      4  C   UNL     1       2.624   7.042  19.465  0.00  0.00    +0.000 A 
ATOM      5  C   UNL     1       2.736   7.663  18.223  0.00  0.00    +0.000 A 
ATOM      6  C   UNL     1       2.039   8.852  17.968  0.00  0.00    +0.000 A 
ENDROOT
BRANCH   4   7
ATOM      7  N   UNL     1       3.396   5.865  19.725  0.00  0.00    +0.000 N 
ATOM      8  H   UNL     1       3.227   5.458  20.647  0.00  0.00    +0.000 HD
BRANCH   7   9
ATOM      9  S   UNL     1       3.357   4.607  18.593  0.00  0.00    +0.000 S 
ATOM     10  O   UNL     1       3.620   3.408  19.363  0.00  0.00    +0.000 OA
ATOM     11  O   UNL     1       2.167   4.720  17.780  0.00  0.00    +0.000 OA
BRANCH   9  12
ATOM     12  C   UNL     1       4.787   4.946  17.575  0.00  0.00    +0.000 C 
ATOM     13  C   UNL     1       6.130   4.622  18.214  0.00  0.00    +0.000 C 
ATOM     14  C   UNL     1       7.086   4.616  17.025  0.00  0.00    +0.000 C 
ATOM     15  C   UNL     1       6.262   4.127  15.834  0.00  0.00    +0.000 C 
ATOM     16  C   UNL     1       4.811   4.082  16.314  0.00  0.00    +0.000 C 
ENDBRANCH   9  12
ENDBRANCH   7   9
ENDBRANCH   4   7
BRANCH   1  17
ATOM     17  C   UNL     1       0.476  10.713  18.673  0.00  0.00    +0.000 C 
BRANCH  17  20
ATOM     18  O   UNL     1       0.355  12.897  20.396  0.00  0.00    +0.000 OA
ATOM     19  C   UNL     1      -0.551  12.071  20.442  0.00  0.00    +0.000 C 
ATOM     20  N   UNL     1      -0.569  10.952  19.641  0.00  0.00    +0.000 N 
ATOM     21  H   UNL     1      -1.383  10.357  19.630  0.00  0.00    +0.000 HD
BRANCH  19  22
ATOM     22  C   UNL     1      -1.681  12.222  21.334  0.00  0.00    +0.000 A 
ATOM     23  C   UNL     1      -1.832  12.026  22.697  0.00  0.00    +0.000 A 
ATOM     24  C   UNL     1      -3.181  12.311  23.052  0.00  0.00    +0.000 A 
ATOM     25  C   UNL     1      -3.906  12.284  24.250  0.00  0.00    +0.000 A 
ATOM     26  N   UNL     1      -5.224  12.603  24.265  0.00  0.00    +0.000 NA
ATOM     27  C   UNL     1      -5.822  12.956  23.105  0.00  0.00    +0.000 A 
ATOM     28  C   UNL     1      -5.191  13.026  21.871  0.00  0.00    +0.000 A 
ATOM     29  C   UNL     1      -3.838  12.690  21.884  0.00  0.00    +0.000 A 
ATOM     30  N   UNL     1      -2.911  12.651  20.869  0.00  0.00    +0.000 N 
ATOM     31  H   UNL     1      -3.089  12.890  19.903  0.00  0.00    +0.000 HD
ENDBRANCH  19  22
ENDBRANCH  17  20
ENDBRANCH   1  17
TORSDOF 6
ENDMDL
MODEL 8
REMARK VINA RESULT:      -7.5      3.290      9.587
REMARK  Name = 
REMARK  6 active torsions:
REMARK  status: ('A' for Active; 'I' for Inactive)
REMARK    1  A    between atoms: C_2  and  C_20
REMARK    2  A    between atoms: N_3  and  C_4
REMARK    3  A    between atoms: C_4  and  C_5
REMARK    4  A    between atoms: C_8  and  N_9
REMARK    5  A    between atoms: N_9  and  S_10
REMARK    6  A    between atoms: S_10  and  C_13
REMARK                            x       y       z     vdW  Elec       q    Type
REMARK                         _______ _______ _______ _____ _____    ______ ____
ROOT
ATOM      1  C   UNL     1       1.076   8.288  20.880  0.00  0.00    +0.000 A 
ATOM      2  C   UNL     1       0.477   8.949  21.963  0.00  0.00    +0.000 A 
ATOM      3  C   UNL     1       0.145  10.309  21.877  0.00  0.00    +0.000 A 
ATOM      4  C   UNL     1       0.396  11.017  20.702  0.00  0.00    +0.000 A 
ATOM      5  C   UNL     1       1.004  10.377  19.624  0.00  0.00    +0.000 A 
ATOM      6  C   UNL     1       1.333   9.018  19.710  0.00  0.00    +0.000 A 
ENDROOT
BRANCH   4   7
ATOM      7  N   UNL     1       0.011  12.388  20.568  0.00  0.00    +0.000 N 
ATOM      8  H   UNL     1       0.488  12.876  19.806  0.00  0.00    +0.000 HD
BRANCH   7   9
ATOM      9  S   UNL     1      -1.638  12.759  20.464  0.00  0.00    +0.000 S 
ATOM     10  O   UNL     1      -2.198  12.310  21.722  0.00  0.00    +0.000 OA
ATOM     11  O   UNL     1      -1.802  14.126  20.024  0.00  0.00    +0.000 OA
BRANCH   9  12
ATOM     12  C   UNL     1      -2.208  11.662  19.172  0.00  0.00    +0.000 C 
ATOM     13  C   UNL     1      -3.700  11.730  18.874  0.00  0.00    +0.000 C 
ATOM     14  C   UNL     1      -3.814  11.036  17.520  0.00  0.00    +0.000 C 
ATOM     15  C   UNL     1      -2.507  11.340  16.788  0.00  0.00    +0.000 C 
ATOM     16  C   UNL     1      -1.591  12.004  17.816  0.00  0.00    +0.000 C 
ENDBRANCH   9  12
ENDBRANCH   7   9
ENDBRANCH   4   7
BRANCH   1  17
ATOM     17  C   UNL     1       1.412   6.819  20.960  0.00  0.00    +0.000 C 
BRANCH  17  20
ATOM     18  O   UNL     1       1.821   4.423  19.600  0.00  0.00    +0.000 OA
ATOM     19  C   UNL     1       2.691   5.285  19.531  0.00  0.00    +0.000 C 
ATOM     20  N   UNL     1       2.585   6.494  20.183  0.00  0.00    +0.000 N 
ATOM     21  H   UNL     1       3.268   7.215  20.011  0.00  0.00    +0.000 HD
BRANCH  19  22
ATOM     22  C   UNL     1       3.891   5.101  18.744  0.00  0.00    +0.000 A 
ATOM     23  C   UNL     1       5.230   4.997  19.085  0.00  0.00    +0.000 A 
ATOM     24  C   UNL     1       5.994   4.840  17.894  0.00  0.00    +0.000 A 
ATOM     25  C   UNL     1       7.359   4.696  17.616  0.00  0.00    +0.000 A 
ATOM     26  N   UNL     1       7.794   4.580  16.337  0.00  0.00    +0.000 NA
ATOM     27  C   UNL     1       6.885   4.597  15.336  0.00  0.00    +0.000 A 
ATOM     28  C   UNL     1       5.513   4.722  15.506  0.00  0.00    +0.000 A 
ATOM     29  C   UNL     1       5.094   4.842  16.830  0.00  0.00    +0.000 A 
ATOM     30  N   UNL     1       3.836   4.977  17.367  0.00  0.00    +0.000 N 
ATOM     31  H   UNL     1       2.973   4.997  16.840  0.00  0.00    +0.000 HD
ENDBRANCH  19  22
ENDBRANCH  17  20
ENDBRANCH   1  17
TORSDOF 6
ENDMDL
MODEL 9
REMARK VINA RESULT:      -7.5      2.068      2.497
REMARK  Name = 
REMARK  6 active torsions:
REMARK  status: ('A' for Active; 'I' for Inactive)
REMARK    1  A    between atoms: C_2  and  C_20
REMARK    2  A    between atoms: N_3  and  C_4
REMARK    3  A    between atoms: C_4  and  C_5
REMARK    4  A    between atoms: C_8  and  N_9
REMARK    5  A    between atoms: N_9  and  S_10
REMARK    6  A    between atoms: S_10  and  C_13
REMARK                            x       y       z     vdW  Elec       q    Type
REMARK                         _______ _______ _______ _____ _____    ______ ____
ROOT
ATOM      1  C   UNL     1       2.850   8.022  17.809  0.00  0.00    +0.000 A 
ATOM      2  C   UNL     1       4.122   7.581  17.417  0.00  0.00    +0.000 A 
ATOM      3  C   UNL     1       4.391   6.213  17.266  0.00  0.00    +0.000 A 
ATOM      4  C   UNL     1       3.385   5.275  17.493  0.00  0.00    +0.000 A 
ATOM      5  C   UNL     1       2.121   5.698  17.897  0.00  0.00    +0.000 A 
ATOM      6  C   UNL     1       1.852   7.065  18.045  0.00  0.00    +0.000 A 
ENDROOT
BRANCH   4   7
ATOM      7  N   UNL     1       3.616   3.878  17.286  0.00  0.00    +0.000 N 
ATOM      8  H   UNL     1       4.260   3.677  16.517  0.00  0.00    +0.000 HD
BRANCH   7   9
ATOM      9  S   UNL     1       4.085   2.931  18.609  0.00  0.00    +0.000 S 
ATOM     10  O   UNL     1       3.897   1.563  18.170  0.00  0.00    +0.000 OA
ATOM     11  O   UNL     1       5.367   3.383  19.101  0.00  0.00    +0.000 OA
BRANCH   9  12
ATOM     12  C   UNL     1       2.831   3.307  19.828  0.00  0.00    +0.000 C 
ATOM     13  C   UNL     1       1.434   2.799  19.500  0.00  0.00    +0.000 C 
ATOM     14  C   UNL     1       0.710   2.893  20.840  0.00  0.00    +0.000 C 
ATOM     15  C   UNL     1       1.776   2.639  21.905  0.00  0.00    +0.000 C 
ATOM     16  C   UNL     1       3.116   2.632  21.170  0.00  0.00    +0.000 C 
ENDBRANCH   9  12
ENDBRANCH   7   9
ENDBRANCH   4   7
BRANCH   1  17
ATOM     17  C   UNL     1       2.551   9.495  17.949  0.00  0.00    +0.000 C 
BRANCH  17  20
ATOM     18  O   UNL     1       0.877  10.740  19.795  0.00  0.00    +0.000 OA
ATOM     19  C   UNL     1       0.405  10.416  18.710  0.00  0.00    +0.000 C 
ATOM     20  N   UNL     1       1.150   9.782  17.742  0.00  0.00    +0.000 N 
ATOM     21  H   UNL     1       0.756   9.632  16.825  0.00  0.00    +0.000 HD
BRANCH  19  22
ATOM     22  C   UNL     1      -0.972  10.692  18.360  0.00  0.00    +0.000 A 
ATOM     23  C   UNL     1      -1.730  10.405  17.236  0.00  0.00    +0.000 A 
ATOM     24  C   UNL     1      -3.039  10.932  17.421  0.00  0.00    +0.000 A 
ATOM     25  C   UNL     1      -4.205  10.957  16.645  0.00  0.00    +0.000 A 
ATOM     26  N   UNL     1      -5.325  11.570  17.103  0.00  0.00    +0.000 NA
ATOM     27  C   UNL     1      -5.297  12.150  18.323  0.00  0.00    +0.000 A 
ATOM     28  C   UNL     1      -4.199  12.170  19.173  0.00  0.00    +0.000 A 
ATOM     29  C   UNL     1      -3.061  11.535  18.677  0.00  0.00    +0.000 A 
ATOM     30  N   UNL     1      -1.815  11.358  19.230  0.00  0.00    +0.000 N 
ATOM     31  H   UNL     1      -1.532  11.676  20.148  0.00  0.00    +0.000 HD
ENDBRANCH  19  22
ENDBRANCH  17  20
ENDBRANCH   1  17
TORSDOF 6
ENDMDL
