MODEL 1
REMARK VINA RESULT:      -8.3      0.000      0.000
REMARK  Name = 
REMARK  11 active torsions:
REMARK  status: ('A' for Active; 'I' for Inactive)
REMARK    1  A    between atoms: C_1  and  O_2
REMARK    2  A    between atoms: O_2  and  C_3
REMARK    3  A    between atoms: C_6  and  C_7
REMARK    4  A    between atoms: N_9  and  C_10
REMARK    5  A    between atoms: C_10  and  C_11
REMARK    6  A    between atoms: C_11  and  C_12
REMARK    7  A    between atoms: C_17  and  C_18
REMARK    8  A    between atoms: C_19  and  C_20
REMARK    9  A    between atoms: C_23  and  O_24
REMARK   10  A    between atoms: C_26  and  O_27
REMARK   11  A    between atoms: O_27  and  C_28
REMARK                            x       y       z     vdW  Elec       q    Type
REMARK                         _______ _______ _______ _____ _____    ______ ____
ROOT
ATOM      1  C   UNL     1       8.260   8.083  18.419  0.00  0.00    +0.000 C 
ENDROOT
BRANCH   1   4
ATOM      2  C   UNL     1       9.193  10.325  18.929  0.00  0.00    +0.000 C 
ATOM      3  O   UNL     1       9.280  10.070  20.130  0.00  0.00    +0.000 OA
ATOM      4  N   UNL     1       8.649   9.425  18.029  0.00  0.00    +0.000 N 
ATOM      5  H   UNL     1       8.606   9.652  17.050  0.00  0.00    +0.000 HD
BRANCH   2   9
ATOM      6  C   UNL     1      10.689  13.997  17.231  0.00  0.00    +0.000 A 
ATOM      7  C   UNL     1      11.461  12.828  17.259  0.00  0.00    +0.000 A 
ATOM      8  C   UNL     1      10.963  11.651  17.823  0.00  0.00    +0.000 A 
ATOM      9  C   UNL     1       9.694  11.625  18.409  0.00  0.00    +0.000 A 
ATOM     10  C   UNL     1       8.957  12.815  18.451  0.00  0.00    +0.000 A 
ATOM     11  C   UNL     1       9.445  14.005  17.880  0.00  0.00    +0.000 A 
BRANCH   6  13
ATOM     12  C   UNL     1      12.121  15.888  17.308  0.00  0.00    +0.000 C 
ATOM     13  O   UNL     1      11.132  15.132  16.611  0.00  0.00    +0.000 OA
ENDBRANCH   6  13
BRANCH  11  14
ATOM     14  O   UNL     1       8.558  15.039  18.037  0.00  0.00    +0.000 OA
ATOM     15  C   UNL     1       8.032  15.316  19.326  0.00  0.00    +0.000 C 
ENDBRANCH  11  14
ENDBRANCH   2   9
ENDBRANCH   1   4
BRANCH   1  16
ATOM     16  C   UNL     1       7.511   7.294  17.339  0.00  0.00    +0.000 C 
BRANCH  16  17
ATOM     17  C   UNL     1       6.253   6.575  17.736  0.00  0.00    +0.000 A 
ATOM     18  C   UNL     1       6.149   5.708  18.810  0.00  0.00    +0.000 A 
ATOM     19  C   UNL     1       4.996   4.938  18.849  0.00  0.00    +0.000 A 
ATOM     20  C   UNL     1       5.034   3.567  18.581  0.00  0.00    +0.000 A 
ATOM     21  C   UNL     1       3.849   2.878  18.328  0.00  0.00    +0.000 A 
ATOM     22  C   UNL     1       2.637   3.498  18.633  0.00  0.00    +0.000 A 
ATOM     23  C   UNL     1       1.386   2.679  18.756  0.00  0.00    +0.000 C 
ATOM     24  C   UNL     1       2.668   4.864  18.927  0.00  0.00    +0.000 A 
ATOM     25  C   UNL     1       1.842   5.408  20.075  0.00  0.00    +0.000 C 
ATOM     26  C   UNL     1       3.810   5.556  18.533  0.00  0.00    +0.000 A 
ATOM     27  N   UNL     1       3.851   6.402  17.482  0.00  0.00    +0.000 NA
ATOM     28  C   UNL     1       5.076   6.746  17.023  0.00  0.00    +0.000 A 
BRANCH  28  29
ATOM     29  O   UNL     1       5.155   7.044  15.680  0.00  0.00    +0.000 OA
ATOM     30  H   UNL     1       6.064   7.341  15.543  0.00  0.00    +0.000 HD
ENDBRANCH  28  29
ENDBRANCH  16  17
ENDBRANCH   1  16
TORSDOF 7
ENDMDL
MODEL 2
REMARK VINA RESULT:      -8.2      5.541      8.070
REMARK  Name = 
REMARK  11 active torsions:
REMARK  status: ('A' for Active; 'I' for Inactive)
REMARK    1  A    between atoms: C_1  and  O_2
REMARK    2  A    between atoms: O_2  and  C_3
REMARK    3  A    between atoms: C_6  and  C_7
REMARK    4  A    between atoms: N_9  and  C_10
REMARK    5  A    between atoms: C_10  and  C_11
REMARK    6  A    between atoms: C_11  and  C_12
REMARK    7  A    between atoms: C_17  and  C_18
REMARK    8  A    between atoms: C_19  and  C_20
REMARK    9  A    between atoms: C_23  and  O_24
REMARK   10  A    between atoms: C_26  and  O_27
REMARK   11  A    between atoms: O_27  and  C_28
REMARK                            x       y       z     vdW  Elec       q    Type
REMARK                         _______ _______ _______ _____ _____    ______ ____
ROOT
ATOM      1  C   UNL     1       0.901   2.780  20.317  0.00  0.00    +0.000 C 
ENDROOT
BRANCH   1   4
ATOM      2  C   UNL     1       1.716   5.082  20.753  0.00  0.00    +0.000 C 
ATOM      3  O   UNL     1       2.584   4.681  21.528  0.00  0.00    +0.000 OA
ATOM      4  N   UNL     1       0.812   4.219  20.160  0.00  0.00    +0.000 N 
ATOM      5  H   UNL     1       0.124   4.571  19.516  0.00  0.00    +0.000 HD
BRANCH   2   9
ATOM      6  C   UNL     1       1.376   9.224  19.597  0.00  0.00    +0.000 A 
ATOM      7  C   UNL     1       2.024   8.282  18.786  0.00  0.00    +0.000 A 
ATOM      8  C   UNL     1       2.134   6.947  19.184  0.00  0.00    +0.000 A 
ATOM      9  C   UNL     1       1.632   6.529  20.420  0.00  0.00    +0.000 A 
ATOM     10  C   UNL     1       1.055   7.488  21.261  0.00  0.00    +0.000 A 
ATOM     11  C   UNL     1       0.933   8.834  20.870  0.00  0.00    +0.000 A 
BRANCH   6  13
ATOM     12  C   UNL     1       0.021  10.767  18.406  0.00  0.00    +0.000 C 
ATOM     13  O   UNL     1       1.190  10.514  19.185  0.00  0.00    +0.000 OA
ENDBRANCH   6  13
BRANCH  11  14
ATOM     14  O   UNL     1       0.339   9.590  21.848  0.00  0.00    +0.000 OA
ATOM     15  C   UNL     1      -0.320   8.942  22.925  0.00  0.00    +0.000 C 
ENDBRANCH  11  14
ENDBRANCH   2   9
ENDBRANCH   1   4
BRANCH   1  16
ATOM     16  C   UNL     1       1.740   2.069  19.248  0.00  0.00    +0.000 C 
BRANCH  16  17
ATOM     17  C   UNL     1       2.870   2.830  18.618  0.00  0.00    +0.000 A 
ATOM     18  C   UNL     1       4.161   2.878  19.117  0.00  0.00    +0.000 A 
ATOM     19  C   UNL     1       4.984   3.845  18.559  0.00  0.00    +0.000 A 
ATOM     20  C   UNL     1       5.357   4.981  19.283  0.00  0.00    +0.000 A 
ATOM     21  C   UNL     1       5.921   6.070  18.620  0.00  0.00    +0.000 A 
ATOM     22  C   UNL     1       6.369   5.896  17.310  0.00  0.00    +0.000 A 
ATOM     23  C   UNL     1       7.320   6.888  16.706  0.00  0.00    +0.000 C 
ATOM     24  C   UNL     1       5.992   4.724  16.650  0.00  0.00    +0.000 A 
ATOM     25  C   UNL     1       7.003   3.974  15.806  0.00  0.00    +0.000 C 
ATOM     26  C   UNL     1       4.921   4.022  17.198  0.00  0.00    +0.000 A 
ATOM     27  N   UNL     1       3.684   4.001  16.659  0.00  0.00    +0.000 NA
ATOM     28  C   UNL     1       2.681   3.559  17.453  0.00  0.00    +0.000 A 
BRANCH  28  29
ATOM     29  O   UNL     1       1.434   4.088  17.201  0.00  0.00    +0.000 OA
ATOM     30  H   UNL     1       1.522   5.032  17.384  0.00  0.00    +0.000 HD
ENDBRANCH  28  29
ENDBRANCH  16  17
ENDBRANCH   1  16
TORSDOF 7
ENDMDL
MODEL 3
REMARK VINA RESULT:      -8.0      1.522      2.230
REMARK  Name = 
REMARK  11 active torsions:
REMARK  status: ('A' for Active; 'I' for Inactive)
REMARK    1  A    between atoms: C_1  and  O_2
REMARK    2  A    between atoms: O_2  and  C_3
REMARK    3  A    between atoms: C_6  and  C_7
REMARK    4  A    between atoms: N_9  and  C_10
REMARK    5  A    between atoms: C_10  and  C_11
REMARK    6  A    between atoms: C_11  and  C_12
REMARK    7  A    between atoms: C_17  and  C_18
REMARK    8  A    between atoms: C_19  and  C_20
REMARK    9  A    between atoms: C_23  and  O_24
REMARK   10  A    between atoms: C_26  and  O_27
REMARK   11  A    between atoms: O_27  and  C_28
REMARK                            x       y       z     vdW  Elec       q    Type
REMARK                         _______ _______ _______ _____ _____    ______ ____
ROOT
ATOM      1  C   UNL     1       8.054   6.523  18.772  0.00  0.00    +0.000 C 
ENDROOT
BRANCH   1   4
ATOM      2  C   UNL     1       8.479   8.922  18.301  0.00  0.00    +0.000 C 
ATOM      3  O   UNL     1       7.782   8.897  17.286  0.00  0.00    +0.000 OA
ATOM      4  N   UNL     1       8.711   7.786  19.056  0.00  0.00    +0.000 N 
ATOM      5  H   UNL     1       9.270   7.838  19.890  0.00  0.00    +0.000 HD
BRANCH   2   9
ATOM      6  C   UNL     1      10.386  12.521  19.720  0.00  0.00    +0.000 A 
ATOM      7  C   UNL     1       9.938  11.527  20.600  0.00  0.00    +0.000 A 
ATOM      8  C   UNL     1       9.312  10.373  20.122  0.00  0.00    +0.000 A 
ATOM      9  C   UNL     1       9.085  10.203  18.753  0.00  0.00    +0.000 A 
ATOM     10  C   UNL     1       9.463  11.234  17.883  0.00  0.00    +0.000 A 
ATOM     11  C   UNL     1      10.099  12.397  18.352  0.00  0.00    +0.000 A 
BRANCH   6  13
ATOM     12  C   UNL     1      10.285  14.675  20.711  0.00  0.00    +0.000 C 
ATOM     13  O   UNL     1      11.072  13.616  20.168  0.00  0.00    +0.000 OA
ENDBRANCH   6  13
BRANCH  11  14
ATOM     14  O   UNL     1      10.377  13.266  17.328  0.00  0.00    +0.000 OA
ATOM     15  C   UNL     1      11.702  13.346  16.823  0.00  0.00    +0.000 C 
ENDBRANCH  11  14
ENDBRANCH   2   9
ENDBRANCH   1   4
BRANCH   1  16
ATOM     16  C   UNL     1       6.892   6.615  17.776  0.00  0.00    +0.000 C 
BRANCH  16  17
ATOM     17  C   UNL     1       5.609   5.917  18.124  0.00  0.00    +0.000 A 
ATOM     18  C   UNL     1       5.501   4.873  19.026  0.00  0.00    +0.000 A 
ATOM     19  C   UNL     1       4.297   4.185  19.006  0.00  0.00    +0.000 A 
ATOM     20  C   UNL     1       4.215   2.888  18.491  0.00  0.00    +0.000 A 
ATOM     21  C   UNL     1       2.968   2.336  18.202  0.00  0.00    +0.000 A 
ATOM     22  C   UNL     1       1.827   2.965  18.700  0.00  0.00    +0.000 A 
ATOM     23  C   UNL     1       0.527   2.219  18.760  0.00  0.00    +0.000 C 
ATOM     24  C   UNL     1       1.979   4.247  19.234  0.00  0.00    +0.000 A 
ATOM     25  C   UNL     1       1.265   4.619  20.519  0.00  0.00    +0.000 C 
ATOM     26  C   UNL     1       3.146   4.926  18.893  0.00  0.00    +0.000 A 
ATOM     27  N   UNL     1       3.190   5.948  18.014  0.00  0.00    +0.000 NA
ATOM     28  C   UNL     1       4.408   6.293  17.539  0.00  0.00    +0.000 A 
BRANCH  28  29
ATOM     29  O   UNL     1       4.432   6.831  16.271  0.00  0.00    +0.000 OA
ATOM     30  H   UNL     1       4.038   6.156  15.705  0.00  0.00    +0.000 HD
ENDBRANCH  28  29
ENDBRANCH  16  17
ENDBRANCH   1  16
TORSDOF 7
ENDMDL
MODEL 4
REMARK VINA RESULT:      -8.0      1.442      1.971
REMARK  Name = 
REMARK  11 active torsions:
REMARK  status: ('A' for Active; 'I' for Inactive)
REMARK    1  A    between atoms: C_1  and  O_2
REMARK    2  A    between atoms: O_2  and  C_3
REMARK    3  A    between atoms: C_6  and  C_7
REMARK    4  A    between atoms: N_9  and  C_10
REMARK    5  A    between atoms: C_10  and  C_11
REMARK    6  A    between atoms: C_11  and  C_12
REMARK    7  A    between atoms: C_17  and  C_18
REMARK    8  A    between atoms: C_19  and  C_20
REMARK    9  A    between atoms: C_23  and  O_24
REMARK   10  A    between atoms: C_26  and  O_27
REMARK   11  A    between atoms: O_27  and  C_28
REMARK                            x       y       z     vdW  Elec       q    Type
REMARK                         _______ _______ _______ _____ _____    ______ ____
ROOT
ATOM      1  C   UNL     1       8.283   8.287  18.551  0.00  0.00    +0.000 C 
ENDROOT
BRANCH   1   4
ATOM      2  C   UNL     1       9.262  10.471  19.205  0.00  0.00    +0.000 C 
ATOM      3  O   UNL     1       9.115  10.233  20.404  0.00  0.00    +0.000 OA
ATOM      4  N   UNL     1       8.827   9.592  18.228  0.00  0.00    +0.000 N 
ATOM      5  H   UNL     1       8.975   9.803  17.256  0.00  0.00    +0.000 HD
BRANCH   2   9
ATOM      6  C   UNL     1      11.124  14.083  17.760  0.00  0.00    +0.000 A 
ATOM      7  C   UNL     1      11.297  12.853  17.111  0.00  0.00    +0.000 A 
ATOM      8  C   UNL     1      10.694  11.691  17.601  0.00  0.00    +0.000 A 
ATOM      9  C   UNL     1       9.935  11.725  18.775  0.00  0.00    +0.000 A 
ATOM     10  C   UNL     1       9.830  12.940  19.464  0.00  0.00    +0.000 A 
ATOM     11  C   UNL     1      10.427  14.117  18.977  0.00  0.00    +0.000 A 
BRANCH   6  13
ATOM     12  C   UNL     1      10.709  16.133  16.638  0.00  0.00    +0.000 C 
ATOM     13  O   UNL     1      11.641  15.240  17.246  0.00  0.00    +0.000 OA
ENDBRANCH   6  13
BRANCH  11  14
ATOM     14  O   UNL     1      10.194  15.181  19.810  0.00  0.00    +0.000 OA
ATOM     15  C   UNL     1       9.097  15.133  20.710  0.00  0.00    +0.000 C 
ENDBRANCH  11  14
ENDBRANCH   2   9
ENDBRANCH   1   4
BRANCH   1  16
ATOM     16  C   UNL     1       7.637   7.551  17.371  0.00  0.00    +0.000 C 
BRANCH  16  17
ATOM     17  C   UNL     1       6.431   6.701  17.646  0.00  0.00    +0.000 A 
ATOM     18  C   UNL     1       5.158   6.964  17.169  0.00  0.00    +0.000 A 
ATOM     19  C   UNL     1       4.135   6.230  17.751  0.00  0.00    +0.000 A 
ATOM     20  C   UNL     1       3.226   6.828  18.628  0.00  0.00    +0.000 A 
ATOM     21  C   UNL     1       2.408   6.031  19.427  0.00  0.00    +0.000 A 
ATOM     22  C   UNL     1       2.304   4.671  19.130  0.00  0.00    +0.000 A 
ATOM     23  C   UNL     1       1.165   3.868  19.686  0.00  0.00    +0.000 C 
ATOM     24  C   UNL     1       3.220   4.138  18.220  0.00  0.00    +0.000 A 
ATOM     25  C   UNL     1       2.750   3.164  17.159  0.00  0.00    +0.000 C 
ATOM     26  C   UNL     1       4.365   4.894  17.979  0.00  0.00    +0.000 A 
ATOM     27  N   UNL     1       5.586   4.582  18.460  0.00  0.00    +0.000 NA
ATOM     28  C   UNL     1       6.524   5.556  18.424  0.00  0.00    +0.000 A 
BRANCH  28  29
ATOM     29  O   UNL     1       7.487   5.504  19.407  0.00  0.00    +0.000 OA
ATOM     30  H   UNL     1       7.789   6.415  19.511  0.00  0.00    +0.000 HD
ENDBRANCH  28  29
ENDBRANCH  16  17
ENDBRANCH   1  16
TORSDOF 7
ENDMDL
MODEL 5
REMARK VINA RESULT:      -8.0      5.670      7.851
REMARK  Name = 
REMARK  11 active torsions:
REMARK  status: ('A' for Active; 'I' for Inactive)
REMARK    1  A    between atoms: C_1  and  O_2
REMARK    2  A    between atoms: O_2  and  C_3
REMARK    3  A    between atoms: C_6  and  C_7
REMARK    4  A    between atoms: N_9  and  C_10
REMARK    5  A    between atoms: C_10  and  C_11
REMARK    6  A    between atoms: C_11  and  C_12
REMARK    7  A    between atoms: C_17  and  C_18
REMARK    8  A    between atoms: C_19  and  C_20
REMARK    9  A    between atoms: C_23  and  O_24
REMARK   10  A    between atoms: C_26  and  O_27
REMARK   11  A    between atoms: O_27  and  C_28
REMARK                            x       y       z     vdW  Elec       q    Type
REMARK                         _______ _______ _______ _____ _____    ______ ____
ROOT
ATOM      1  C   UNL     1       1.215   2.898  20.447  0.00  0.00    +0.000 C 
ENDROOT
BRANCH   1   4
ATOM      2  C   UNL     1       1.871   5.272  20.751  0.00  0.00    +0.000 C 
ATOM      3  O   UNL     1       2.695   4.984  21.620  0.00  0.00    +0.000 OA
ATOM      4  N   UNL     1       1.062   4.313  20.166  0.00  0.00    +0.000 N 
ATOM      5  H   UNL     1       0.410   4.573  19.446  0.00  0.00    +0.000 HD
BRANCH   2   9
ATOM      6  C   UNL     1       1.392   9.284  19.242  0.00  0.00    +0.000 A 
ATOM      7  C   UNL     1       2.095   8.305  18.526  0.00  0.00    +0.000 A 
ATOM      8  C   UNL     1       2.249   7.013  19.038  0.00  0.00    +0.000 A 
ATOM      9  C   UNL     1       1.736   6.681  20.295  0.00  0.00    +0.000 A 
ATOM     10  C   UNL     1       1.103   7.683  21.041  0.00  0.00    +0.000 A 
ATOM     11  C   UNL     1       0.937   8.985  20.535  0.00  0.00    +0.000 A 
BRANCH   6  13
ATOM     12  C   UNL     1       2.278  11.161  18.091  0.00  0.00    +0.000 C 
ATOM     13  O   UNL     1       1.164  10.526  18.718  0.00  0.00    +0.000 OA
ENDBRANCH   6  13
BRANCH  11  14
ATOM     14  O   UNL     1       0.292   9.795  21.434  0.00  0.00    +0.000 OA
ATOM     15  C   UNL     1       0.281   9.440  22.808  0.00  0.00    +0.000 C 
ENDBRANCH  11  14
ENDBRANCH   2   9
ENDBRANCH   1   4
BRANCH   1  16
ATOM     16  C   UNL     1       2.177   2.158  19.510  0.00  0.00    +0.000 C 
BRANCH  16  17
ATOM     17  C   UNL     1       3.218   2.965  18.788  0.00  0.00    +0.000 A 
ATOM     18  C   UNL     1       2.997   3.660  17.611  0.00  0.00    +0.000 A 
ATOM     19  C   UNL     1       4.135   4.110  16.958  0.00  0.00    +0.000 A 
ATOM     20  C   UNL     1       4.564   3.519  15.766  0.00  0.00    +0.000 A 
ATOM     21  C   UNL     1       5.851   3.772  15.292  0.00  0.00    +0.000 A 
ATOM     22  C   UNL     1       6.573   4.827  15.851  0.00  0.00    +0.000 A 
ATOM     23  C   UNL     1       7.765   5.383  15.129  0.00  0.00    +0.000 C 
ATOM     24  C   UNL     1       6.075   5.400  17.024  0.00  0.00    +0.000 A 
ATOM     25  C   UNL     1       6.083   6.906  17.191  0.00  0.00    +0.000 C 
ATOM     26  C   UNL     1       5.136   4.651  17.728  0.00  0.00    +0.000 A 
ATOM     27  N   UNL     1       5.404   4.003  18.881  0.00  0.00    +0.000 NA
ATOM     28  C   UNL     1       4.512   3.067  19.277  0.00  0.00    +0.000 A 
BRANCH  28  29
ATOM     29  O   UNL     1       5.021   2.022  20.017  0.00  0.00    +0.000 OA
ATOM     30  H   UNL     1       4.255   1.628  20.454  0.00  0.00    +0.000 HD
ENDBRANCH  28  29
ENDBRANCH  16  17
ENDBRANCH   1  16
TORSDOF 7
ENDMDL
MODEL 6
REMARK VINA RESULT:      -8.0      5.506      9.141
REMARK  Name = 
REMARK  11 active torsions:
REMARK  status: ('A' for Active; 'I' for Inactive)
REMARK    1  A    between atoms: C_1  and  O_2
REMARK    2  A    between atoms: O_2  and  C_3
REMARK    3  A    between atoms: C_6  and  C_7
REMARK    4  A    between atoms: N_9  and  C_10
REMARK    5  A    between atoms: C_10  and  C_11
REMARK    6  A    between atoms: C_11  and  C_12
REMARK    7  A    between atoms: C_17  and  C_18
REMARK    8  A    between atoms: C_19  and  C_20
REMARK    9  A    between atoms: C_23  and  O_24
REMARK   10  A    between atoms: C_26  and  O_27
REMARK   11  A    between atoms: O_27  and  C_28
REMARK                            x       y       z     vdW  Elec       q    Type
REMARK                         _______ _______ _______ _____ _____    ______ ____
ROOT
ATOM      1  C   UNL     1       1.483   8.156  18.979  0.00  0.00    +0.000 C 
ENDROOT
BRANCH   1   4
ATOM      2  C   UNL     1       2.981   6.327  18.227  0.00  0.00    +0.000 C 
ATOM      3  O   UNL     1       2.220   5.460  18.658  0.00  0.00    +0.000 OA
ATOM      4  N   UNL     1       2.721   7.676  18.395  0.00  0.00    +0.000 N 
ATOM      5  H   UNL     1       3.350   8.363  18.017  0.00  0.00    +0.000 HD
BRANCH   2   9
ATOM      6  C   UNL     1       6.425   5.148  15.913  0.00  0.00    +0.000 A 
ATOM      7  C   UNL     1       5.310   4.310  16.058  0.00  0.00    +0.000 A 
ATOM      8  C   UNL     1       4.209   4.705  16.821  0.00  0.00    +0.000 A 
ATOM      9  C   UNL     1       4.211   5.933  17.490  0.00  0.00    +0.000 A 
ATOM     10  C   UNL     1       5.358   6.733  17.408  0.00  0.00    +0.000 A 
ATOM     11  C   UNL     1       6.470   6.349  16.638  0.00  0.00    +0.000 A 
BRANCH   6  13
ATOM     12  C   UNL     1       7.151   4.494  13.750  0.00  0.00    +0.000 C 
ATOM     13  O   UNL     1       7.473   4.808  15.105  0.00  0.00    +0.000 OA
ENDBRANCH   6  13
BRANCH  11  14
ATOM     14  O   UNL     1       7.473   7.281  16.703  0.00  0.00    +0.000 OA
ATOM     15  C   UNL     1       7.911   7.747  17.970  0.00  0.00    +0.000 C 
ENDBRANCH  11  14
ENDBRANCH   2   9
ENDBRANCH   1   4
BRANCH   1  16
ATOM     16  C   UNL     1       1.469   8.195  20.511  0.00  0.00    +0.000 C 
BRANCH  16  17
ATOM     17  C   UNL     1       0.733   9.319  21.181  0.00  0.00    +0.000 A 
ATOM     18  C   UNL     1      -0.088  10.222  20.527  0.00  0.00    +0.000 A 
ATOM     19  C   UNL     1      -0.453  11.341  21.261  0.00  0.00    +0.000 A 
ATOM     20  C   UNL     1       0.075  12.601  20.966  0.00  0.00    +0.000 A 
ATOM     21  C   UNL     1      -0.062  13.641  21.884  0.00  0.00    +0.000 A 
ATOM     22  C   UNL     1      -0.965  13.488  22.937  0.00  0.00    +0.000 A 
ATOM     23  C   UNL     1      -1.436  14.692  23.699  0.00  0.00    +0.000 C 
ATOM     24  C   UNL     1      -1.485  12.211  23.160  0.00  0.00    +0.000 A 
ATOM     25  C   UNL     1      -2.958  12.040  23.476  0.00  0.00    +0.000 C 
ATOM     26  C   UNL     1      -0.795  11.151  22.578  0.00  0.00    +0.000 A 
ATOM     27  N   UNL     1      -0.018  10.292  23.269  0.00  0.00    +0.000 NA
ATOM     28  C   UNL     1       0.835   9.527  22.549  0.00  0.00    +0.000 A 
BRANCH  28  29
ATOM     29  O   UNL     1       1.997   9.153  23.188  0.00  0.00    +0.000 OA
ATOM     30  H   UNL     1       1.714   8.831  24.053  0.00  0.00    +0.000 HD
ENDBRANCH  28  29
ENDBRANCH  16  17
ENDBRANCH   1  16
TORSDOF 7
ENDMDL
MODEL 7
REMARK VINA RESULT:      -7.9      2.493      3.354
REMARK  Name = 
REMARK  11 active torsions:
REMARK  status: ('A' for Active; 'I' for Inactive)
REMARK    1  A    between atoms: C_1  and  O_2
REMARK    2  A    between atoms: O_2  and  C_3
REMARK    3  A    between atoms: C_6  and  C_7
REMARK    4  A    between atoms: N_9  and  C_10
REMARK    5  A    between atoms: C_10  and  C_11
REMARK    6  A    between atoms: C_11  and  C_12
REMARK    7  A    between atoms: C_17  and  C_18
REMARK    8  A    between atoms: C_19  and  C_20
REMARK    9  A    between atoms: C_23  and  O_24
REMARK   10  A    between atoms: C_26  and  O_27
REMARK   11  A    between atoms: O_27  and  C_28
REMARK                            x       y       z     vdW  Elec       q    Type
REMARK                         _______ _______ _______ _____ _____    ______ ____
ROOT
ATOM      1  C   UNL     1       8.080   8.841  17.687  0.00  0.00    +0.000 C 
ENDROOT
BRANCH   1   4
ATOM      2  C   UNL     1       9.346  10.752  18.639  0.00  0.00    +0.000 C 
ATOM      3  O   UNL     1      10.061  10.838  17.640  0.00  0.00    +0.000 OA
ATOM      4  N   UNL     1       8.387   9.762  18.765  0.00  0.00    +0.000 N 
ATOM      5  H   UNL     1       7.804   9.724  19.584  0.00  0.00    +0.000 HD
BRANCH   2   9
ATOM      6  C   UNL     1       9.665  13.758  21.715  0.00  0.00    +0.000 A 
ATOM      7  C   UNL     1      10.159  13.970  20.421  0.00  0.00    +0.000 A 
ATOM      8  C   UNL     1      10.057  12.979  19.441  0.00  0.00    +0.000 A 
ATOM      9  C   UNL     1       9.491  11.737  19.743  0.00  0.00    +0.000 A 
ATOM     10  C   UNL     1       9.070  11.500  21.057  0.00  0.00    +0.000 A 
ATOM     11  C   UNL     1       9.162  12.491  22.051  0.00  0.00    +0.000 A 
BRANCH   6  13
ATOM     12  C   UNL     1      10.583  15.830  22.419  0.00  0.00    +0.000 C 
ATOM     13  O   UNL     1       9.686  14.746  22.659  0.00  0.00    +0.000 OA
ENDBRANCH   6  13
BRANCH  11  14
ATOM     14  O   UNL     1       8.692  12.040  23.257  0.00  0.00    +0.000 OA
ATOM     15  C   UNL     1       7.291  11.955  23.471  0.00  0.00    +0.000 C 
ENDBRANCH  11  14
ENDBRANCH   2   9
ENDBRANCH   1   4
BRANCH   1  16
ATOM     16  C   UNL     1       8.227   7.358  18.048  0.00  0.00    +0.000 C 
BRANCH  16  17
ATOM     17  C   UNL     1       6.980   6.526  18.130  0.00  0.00    +0.000 A 
ATOM     18  C   UNL     1       5.873   6.686  17.314  0.00  0.00    +0.000 A 
ATOM     19  C   UNL     1       4.727   6.018  17.719  0.00  0.00    +0.000 A 
ATOM     20  C   UNL     1       3.632   6.713  18.241  0.00  0.00    +0.000 A 
ATOM     21  C   UNL     1       2.629   6.018  18.915  0.00  0.00    +0.000 A 
ATOM     22  C   UNL     1       2.587   4.628  18.802  0.00  0.00    +0.000 A 
ATOM     23  C   UNL     1       1.334   3.885  19.163  0.00  0.00    +0.000 C 
ATOM     24  C   UNL     1       3.697   3.993  18.241  0.00  0.00    +0.000 A 
ATOM     25  C   UNL     1       3.500   2.865  17.249  0.00  0.00    +0.000 C 
ATOM     26  C   UNL     1       4.875   4.735  18.189  0.00  0.00    +0.000 A 
ATOM     27  N   UNL     1       5.930   4.526  19.003  0.00  0.00    +0.000 NA
ATOM     28  C   UNL     1       6.858   5.508  19.064  0.00  0.00    +0.000 A 
BRANCH  28  29
ATOM     29  O   UNL     1       7.540   5.622  20.256  0.00  0.00    +0.000 OA
ATOM     30  H   UNL     1       8.439   5.871  20.006  0.00  0.00    +0.000 HD
ENDBRANCH  28  29
ENDBRANCH  16  17
ENDBRANCH   1  16
TORSDOF 7
ENDMDL
MODEL 8
REMARK VINA RESULT:      -7.9      5.412      8.055
REMARK  Name = 
REMARK  11 active torsions:
REMARK  status: ('A' for Active; 'I' for Inactive)
REMARK    1  A    between atoms: C_1  and  O_2
REMARK    2  A    between atoms: O_2  and  C_3
REMARK    3  A    between atoms: C_6  and  C_7
REMARK    4  A    between atoms: N_9  and  C_10
REMARK    5  A    between atoms: C_10  and  C_11
REMARK    6  A    between atoms: C_11  and  C_12
REMARK    7  A    between atoms: C_17  and  C_18
REMARK    8  A    between atoms: C_19  and  C_20
REMARK    9  A    between atoms: C_23  and  O_24
REMARK   10  A    between atoms: C_26  and  O_27
REMARK   11  A    between atoms: O_27  and  C_28
REMARK                            x       y       z     vdW  Elec       q    Type
REMARK                         _______ _______ _______ _____ _____    ______ ____
ROOT
ATOM      1  C   UNL     1       0.918   2.665  20.428  0.00  0.00    +0.000 C 
ENDROOT
BRANCH   1   4
ATOM      2  C   UNL     1       1.637   4.999  20.866  0.00  0.00    +0.000 C 
ATOM      3  O   UNL     1       2.574   4.629  21.575  0.00  0.00    +0.000 OA
ATOM      4  N   UNL     1       0.743   4.100  20.311  0.00  0.00    +0.000 N 
ATOM      5  H   UNL     1      -0.003   4.428  19.721  0.00  0.00    +0.000 HD
BRANCH   2   9
ATOM      6  C   UNL     1       1.177   9.239  20.223  0.00  0.00    +0.000 A 
ATOM      7  C   UNL     1       0.547   8.581  21.288  0.00  0.00    +0.000 A 
ATOM      8  C   UNL     1       0.699   7.204  21.473  0.00  0.00    +0.000 A 
ATOM      9  C   UNL     1       1.455   6.446  20.574  0.00  0.00    +0.000 A 
ATOM     10  C   UNL     1       2.018   7.092  19.467  0.00  0.00    +0.000 A 
ATOM     11  C   UNL     1       1.877   8.479  19.273  0.00  0.00    +0.000 A 
BRANCH   6  13
ATOM     12  C   UNL     1       0.015  11.243  20.736  0.00  0.00    +0.000 C 
ATOM     13  O   UNL     1       1.102  10.596  20.077  0.00  0.00    +0.000 OA
ENDBRANCH   6  13
BRANCH  11  14
ATOM     14  O   UNL     1       2.509   8.893  18.130  0.00  0.00    +0.000 OA
ATOM     15  C   UNL     1       3.212   7.946  17.340  0.00  0.00    +0.000 C 
ENDBRANCH  11  14
ENDBRANCH   2   9
ENDBRANCH   1   4
BRANCH   1  16
ATOM     16  C   UNL     1       1.693   2.018  19.273  0.00  0.00    +0.000 C 
BRANCH  16  17
ATOM     17  C   UNL     1       2.817   2.797  18.655  0.00  0.00    +0.000 A 
ATOM     18  C   UNL     1       4.129   2.771  19.099  0.00  0.00    +0.000 A 
ATOM     19  C   UNL     1       4.956   3.758  18.582  0.00  0.00    +0.000 A 
ATOM     20  C   UNL     1       5.393   4.823  19.376  0.00  0.00    +0.000 A 
ATOM     21  C   UNL     1       5.960   5.945  18.776  0.00  0.00    +0.000 A 
ATOM     22  C   UNL     1       6.347   5.865  17.438  0.00  0.00    +0.000 A 
ATOM     23  C   UNL     1       7.301   6.876  16.872  0.00  0.00    +0.000 C 
ATOM     24  C   UNL     1       5.908   4.760  16.705  0.00  0.00    +0.000 A 
ATOM     25  C   UNL     1       6.860   4.053  15.761  0.00  0.00    +0.000 C 
ATOM     26  C   UNL     1       4.841   4.045  17.243  0.00  0.00    +0.000 A 
ATOM     27  N   UNL     1       3.582   4.098  16.760  0.00  0.00    +0.000 NA
ATOM     28  C   UNL     1       2.601   3.621  17.560  0.00  0.00    +0.000 A 
BRANCH  28  29
ATOM     29  O   UNL     1       1.361   4.201  17.406  0.00  0.00    +0.000 OA
ATOM     30  H   UNL     1       1.325   4.472  16.480  0.00  0.00    +0.000 HD
ENDBRANCH  28  29
ENDBRANCH  16  17
ENDBRANCH   1  16
TORSDOF 7
ENDMDL
MODEL 9
REMARK VINA RESULT:      -7.8      1.580      1.867
REMARK  Name = 
REMARK  11 active torsions:
REMARK  status: ('A' for Active; 'I' for Inactive)
REMARK    1  A    between atoms: C_1  and  O_2
REMARK    2  A    between atoms: O_2  and  C_3
REMARK    3  A    between atoms: C_6  and  C_7
REMARK    4  A    between atoms: N_9  and  C_10
REMARK    5  A    between atoms: C_10  and  C_11
REMARK    6  A    between atoms: C_11  and  C_12
REMARK    7  A    between atoms: C_17  and  C_18
REMARK    8  A    between atoms: C_19  and  C_20
REMARK    9  A    between atoms: C_23  and  O_24
REMARK   10  A    between atoms: C_26  and  O_27
REMARK   11  A    between atoms: O_27  and  C_28
REMARK                            x       y       z     vdW  Elec       q    Type
REMARK                         _______ _______ _______ _____ _____    ______ ____
ROOT
ATOM      1  C   UNL     1       8.168   6.428  18.806  0.00  0.00    +0.000 C 
ENDROOT
BRANCH   1   4
ATOM      2  C   UNL     1       8.419   8.828  18.229  0.00  0.00    +0.000 C 
ATOM      3  O   UNL     1       7.866   8.675  17.139  0.00  0.00    +0.000 OA
ATOM      4  N   UNL     1       8.658   7.765  19.082  0.00  0.00    +0.000 N 
ATOM      5  H   UNL     1       9.095   7.921  19.975  0.00  0.00    +0.000 HD
BRANCH   2   9
ATOM      6  C   UNL     1       9.832  12.698  19.505  0.00  0.00    +0.000 A 
ATOM      7  C   UNL     1      10.066  11.541  20.260  0.00  0.00    +0.000 A 
ATOM      8  C   UNL     1       9.590  10.298  19.836  0.00  0.00    +0.000 A 
ATOM      9  C   UNL     1       8.835  10.188  18.664  0.00  0.00    +0.000 A 
ATOM     10  C   UNL     1       8.536  11.357  17.953  0.00  0.00    +0.000 A 
ATOM     11  C   UNL     1       9.015  12.613  18.367  0.00  0.00    +0.000 A 
BRANCH   6  13
ATOM     12  C   UNL     1      11.626  14.238  19.298  0.00  0.00    +0.000 C 
ATOM     13  O   UNL     1      10.360  13.906  19.867  0.00  0.00    +0.000 OA
ENDBRANCH   6  13
BRANCH  11  14
ATOM     14  O   UNL     1       8.601  13.612  17.524  0.00  0.00    +0.000 OA
ATOM     15  C   UNL     1       7.439  14.360  17.847  0.00  0.00    +0.000 C 
ENDBRANCH  11  14
ENDBRANCH   2   9
ENDBRANCH   1   4
BRANCH   1  16
ATOM     16  C   UNL     1       7.080   6.354  17.729  0.00  0.00    +0.000 C 
BRANCH  16  17
ATOM     17  C   UNL     1       5.758   5.748  18.103  0.00  0.00    +0.000 A 
ATOM     18  C   UNL     1       5.583   4.790  19.087  0.00  0.00    +0.000 A 
ATOM     19  C   UNL     1       4.348   4.158  19.096  0.00  0.00    +0.000 A 
ATOM     20  C   UNL     1       4.215   2.828  18.689  0.00  0.00    +0.000 A 
ATOM     21  C   UNL     1       2.949   2.310  18.417  0.00  0.00    +0.000 A 
ATOM     22  C   UNL     1       1.829   3.031  18.834  0.00  0.00    +0.000 A 
ATOM     23  C   UNL     1       0.494   2.352  18.925  0.00  0.00    +0.000 C 
ATOM     24  C   UNL     1       2.031   4.345  19.263  0.00  0.00    +0.000 A 
ATOM     25  C   UNL     1       1.310   4.857  20.494  0.00  0.00    +0.000 C 
ATOM     26  C   UNL     1       3.235   4.939  18.894  0.00  0.00    +0.000 A 
ATOM     27  N   UNL     1       3.345   5.880  17.934  0.00  0.00    +0.000 NA
ATOM     28  C   UNL     1       4.588   6.127  17.460  0.00  0.00    +0.000 A 
BRANCH  28  29
ATOM     29  O   UNL     1       4.663   6.554  16.153  0.00  0.00    +0.000 OA
ATOM     30  H   UNL     1       3.755   6.522  15.827  0.00  0.00    +0.000 HD
ENDBRANCH  28  29
ENDBRANCH  16  17
ENDBRANCH   1  16
TORSDOF 7
ENDMDL
