MODEL 1
REMARK VINA RESULT:      -9.0      0.000      0.000
REMARK  Name = 
REMARK  8 active torsions:
REMARK  status: ('A' for Active; 'I' for Inactive)
REMARK    1  A    between atoms: C_1  and  C_2
REMARK    2  A    between atoms: C_2  and  C_3
REMARK    3  A    between atoms: C_8  and  C_9
REMARK    4  A    between atoms: C_12  and  C_13
REMARK    5  A    between atoms: C_14  and  N_15
REMARK    6  A    between atoms: C_16  and  C_18
REMARK    7  A    between atoms: C_18  and  O_19
REMARK    8  A    between atoms: O_19  and  C_20
REMARK                            x       y       z     vdW  Elec       q    Type
REMARK                         _______ _______ _______ _____ _____    ______ ____
ROOT
ATOM      1  C   UNL     1       2.753   5.894  18.645  0.00  0.00    +0.000 A 
ATOM      2  C   UNL     1       1.846   4.913  18.224  0.00  0.00    +0.000 A 
ATOM      3  C   UNL     1       2.288   3.662  17.798  0.00  0.00    +0.000 A 
ATOM      4  C   UNL     1       3.653   3.354  17.777  0.00  0.00    +0.000 A 
ATOM      5  C   UNL     1       4.073   1.989  17.311  0.00  0.00    +0.000 C 
ATOM      6  C   UNL     1       4.573   4.327  18.203  0.00  0.00    +0.000 A 
ATOM      7  C   UNL     1       4.125   5.584  18.646  0.00  0.00    +0.000 A 
ENDROOT
BRANCH   1  13
ATOM      8  C   UNL     1       0.458  11.144  20.177  0.00  0.00    +0.000 A 
ATOM      9  C   UNL     1       0.381  10.499  21.427  0.00  0.00    +0.000 A 
ATOM     10  C   UNL     1       0.850   9.192  21.617  0.00  0.00    +0.000 A 
ATOM     11  C   UNL     1       1.379   8.575  20.493  0.00  0.00    +0.000 A 
ATOM     12  O   UNL     1       1.861   7.302  20.397  0.00  0.00    +0.000 OA
ATOM     13  C   UNL     1       2.227   7.186  19.081  0.00  0.00    +0.000 A 
ATOM     14  N   UNL     1       2.041   8.280  18.361  0.00  0.00    +0.000 NA
ATOM     15  C   UNL     1       1.484   9.166  19.246  0.00  0.00    +0.000 A 
ATOM     16  C   UNL     1       1.025  10.478  19.072  0.00  0.00    +0.000 A 
BRANCH   8  18
ATOM     17  C   UNL     1      -0.403  12.836  18.541  0.00  0.00    +0.000 C 
ATOM     18  C   UNL     1      -0.118  12.529  20.004  0.00  0.00    +0.000 C 
ENDBRANCH   8  18
ENDBRANCH   1  13
BRANCH   6  19
ATOM     19  N   UNL     1       5.943   4.011  18.278  0.00  0.00    +0.000 N 
ATOM     20  C   UNL     1       6.962   4.741  17.696  0.00  0.00    +0.000 C 
ATOM     21  O   UNL     1       8.116   4.593  18.094  0.00  0.00    +0.000 OA
ATOM     22  H   UNL     1       6.261   3.548  19.121  0.00  0.00    +0.000 HD
BRANCH  20  23
ATOM     23  C   UNL     1       6.612   5.688  16.557  0.00  0.00    +0.000 C 
BRANCH  23  24
ATOM     24  O   UNL     1       7.490   5.403  15.476  0.00  0.00    +0.000 OA
BRANCH  24  25
ATOM     25  C   UNL     1       6.957   4.792  14.373  0.00  0.00    +0.000 A 
ATOM     26  C   UNL     1       5.831   3.964  14.407  0.00  0.00    +0.000 A 
ATOM     27  C   UNL     1       5.364   3.352  13.240  0.00  0.00    +0.000 A 
ATOM     28  C   UNL     1       6.014   3.567  12.031  0.00  0.00    +0.000 A 
ATOM     29  C   UNL     1       7.146   4.378  11.983  0.00  0.00    +0.000 A 
ATOM     30  C   UNL     1       7.625   4.977  13.152  0.00  0.00    +0.000 A 
ATOM     31 CL   UNL     1       9.057   5.940  13.040  0.00  0.00    +0.000 Cl
ENDBRANCH  24  25
ENDBRANCH  23  24
ENDBRANCH  20  23
ENDBRANCH   6  19
TORSDOF 6
ENDMDL
MODEL 2
REMARK VINA RESULT:      -8.6      0.888      1.312
REMARK  Name = 
REMARK  8 active torsions:
REMARK  status: ('A' for Active; 'I' for Inactive)
REMARK    1  A    between atoms: C_1  and  C_2
REMARK    2  A    between atoms: C_2  and  C_3
REMARK    3  A    between atoms: C_8  and  C_9
REMARK    4  A    between atoms: C_12  and  C_13
REMARK    5  A    between atoms: C_14  and  N_15
REMARK    6  A    between atoms: C_16  and  C_18
REMARK    7  A    between atoms: C_18  and  O_19
REMARK    8  A    between atoms: O_19  and  C_20
REMARK                            x       y       z     vdW  Elec       q    Type
REMARK                         _______ _______ _______ _____ _____    ______ ____
ROOT
ATOM      1  C   UNL     1       2.751   5.609  18.926  0.00  0.00    +0.000 A 
ATOM      2  C   UNL     1       1.853   4.539  18.826  0.00  0.00    +0.000 A 
ATOM      3  C   UNL     1       2.298   3.254  18.525  0.00  0.00    +0.000 A 
ATOM      4  C   UNL     1       3.658   2.998  18.311  0.00  0.00    +0.000 A 
ATOM      5  C   UNL     1       4.082   1.593  17.991  0.00  0.00    +0.000 C 
ATOM      6  C   UNL     1       4.570   4.061  18.413  0.00  0.00    +0.000 A 
ATOM      7  C   UNL     1       4.121   5.355  18.732  0.00  0.00    +0.000 A 
ENDROOT
BRANCH   1  13
ATOM      8  C   UNL     1       0.746  10.971  20.475  0.00  0.00    +0.000 A 
ATOM      9  C   UNL     1       1.084  11.244  19.135  0.00  0.00    +0.000 A 
ATOM     10  C   UNL     1       1.591  10.254  18.282  0.00  0.00    +0.000 A 
ATOM     11  C   UNL     1       1.748   8.997  18.849  0.00  0.00    +0.000 A 
ATOM     12  O   UNL     1       2.257   7.879  18.254  0.00  0.00    +0.000 OA
ATOM     13  C   UNL     1       2.222   6.933  19.246  0.00  0.00    +0.000 A 
ATOM     14  N   UNL     1       1.713   7.357  20.392  0.00  0.00    +0.000 NA
ATOM     15  C   UNL     1       1.425   8.676  20.156  0.00  0.00    +0.000 A 
ATOM     16  C   UNL     1       0.906   9.671  20.994  0.00  0.00    +0.000 A 
BRANCH   8  18
ATOM     17  C   UNL     1       0.935  13.407  21.033  0.00  0.00    +0.000 C 
ATOM     18  C   UNL     1       0.264  12.084  21.374  0.00  0.00    +0.000 C 
ENDBRANCH   8  18
ENDBRANCH   1  13
BRANCH   6  19
ATOM     19  N   UNL     1       5.951   3.815  18.293  0.00  0.00    +0.000 N 
ATOM     20  C   UNL     1       6.849   4.622  17.619  0.00  0.00    +0.000 C 
ATOM     21  O   UNL     1       8.051   4.517  17.855  0.00  0.00    +0.000 OA
ATOM     22  H   UNL     1       6.399   3.333  19.062  0.00  0.00    +0.000 HD
BRANCH  20  23
ATOM     23  C   UNL     1       6.307   5.599  16.586  0.00  0.00    +0.000 C 
BRANCH  23  24
ATOM     24  O   UNL     1       7.179   5.565  15.464  0.00  0.00    +0.000 OA
BRANCH  24  25
ATOM     25  C   UNL     1       6.758   4.879  14.357  0.00  0.00    +0.000 A 
ATOM     26  C   UNL     1       5.611   4.080  14.323  0.00  0.00    +0.000 A 
ATOM     27  C   UNL     1       5.263   3.386  13.161  0.00  0.00    +0.000 A 
ATOM     28  C   UNL     1       6.052   3.490  12.022  0.00  0.00    +0.000 A 
ATOM     29  C   UNL     1       7.206   4.271  12.044  0.00  0.00    +0.000 A 
ATOM     30  C   UNL     1       7.565   4.952  13.211  0.00  0.00    +0.000 A 
ATOM     31 CL   UNL     1       9.029   5.873  13.193  0.00  0.00    +0.000 Cl
ENDBRANCH  24  25
ENDBRANCH  23  24
ENDBRANCH  20  23
ENDBRANCH   6  19
TORSDOF 6
ENDMDL
MODEL 3
REMARK VINA RESULT:      -8.3      7.253     10.362
REMARK  Name = 
REMARK  8 active torsions:
REMARK  status: ('A' for Active; 'I' for Inactive)
REMARK    1  A    between atoms: C_1  and  C_2
REMARK    2  A    between atoms: C_2  and  C_3
REMARK    3  A    between atoms: C_8  and  C_9
REMARK    4  A    between atoms: C_12  and  C_13
REMARK    5  A    between atoms: C_14  and  N_15
REMARK    6  A    between atoms: C_16  and  C_18
REMARK    7  A    between atoms: C_18  and  O_19
REMARK    8  A    between atoms: O_19  and  C_20
REMARK                            x       y       z     vdW  Elec       q    Type
REMARK                         _______ _______ _______ _____ _____    ______ ____
ROOT
ATOM      1  C   UNL     1       9.148  10.074  18.804  0.00  0.00    +0.000 A 
ATOM      2  C   UNL     1       9.900  10.773  17.851  0.00  0.00    +0.000 A 
ATOM      3  C   UNL     1      10.626  11.909  18.203  0.00  0.00    +0.000 A 
ATOM      4  C   UNL     1      10.619  12.385  19.519  0.00  0.00    +0.000 A 
ATOM      5  C   UNL     1      11.421  13.613  19.843  0.00  0.00    +0.000 C 
ATOM      6  C   UNL     1       9.873  11.690  20.485  0.00  0.00    +0.000 A 
ATOM      7  C   UNL     1       9.153  10.534  20.133  0.00  0.00    +0.000 A 
ENDROOT
BRANCH   1  13
ATOM      8  C   UNL     1       6.202   5.340  16.783  0.00  0.00    +0.000 A 
ATOM      9  C   UNL     1       6.933   4.718  17.814  0.00  0.00    +0.000 A 
ATOM     10  C   UNL     1       7.791   5.440  18.653  0.00  0.00    +0.000 A 
ATOM     11  C   UNL     1       7.882   6.800  18.392  0.00  0.00    +0.000 A 
ATOM     12  O   UNL     1       8.671   7.714  19.029  0.00  0.00    +0.000 OA
ATOM     13  C   UNL     1       8.409   8.889  18.373  0.00  0.00    +0.000 A 
ATOM     14  N   UNL     1       7.510   8.790  17.406  0.00  0.00    +0.000 NA
ATOM     15  C   UNL     1       7.181   7.460  17.398  0.00  0.00    +0.000 A 
ATOM     16  C   UNL     1       6.315   6.729  16.574  0.00  0.00    +0.000 A 
BRANCH   8  18
ATOM     17  C   UNL     1       5.881   4.508  14.441  0.00  0.00    +0.000 C 
ATOM     18  C   UNL     1       5.338   4.511  15.862  0.00  0.00    +0.000 C 
ENDBRANCH   8  18
ENDBRANCH   1  13
BRANCH   6  19
ATOM     19  N   UNL     1       9.923  12.093  21.834  0.00  0.00    +0.000 N 
ATOM     20  C   UNL     1       8.865  12.625  22.546  0.00  0.00    +0.000 C 
ATOM     21  O   UNL     1       8.901  12.622  23.775  0.00  0.00    +0.000 OA
ATOM     22  H   UNL     1      10.553  11.583  22.442  0.00  0.00    +0.000 HD
BRANCH  20  23
ATOM     23  C   UNL     1       7.699  13.220  21.770  0.00  0.00    +0.000 C 
BRANCH  23  24
ATOM     24  O   UNL     1       7.935  14.616  21.644  0.00  0.00    +0.000 OA
BRANCH  24  25
ATOM     25  C   UNL     1       8.185  15.104  20.390  0.00  0.00    +0.000 A 
ATOM     26  C   UNL     1       7.702  14.521  19.215  0.00  0.00    +0.000 A 
ATOM     27  C   UNL     1       8.026  15.062  17.967  0.00  0.00    +0.000 A 
ATOM     28  C   UNL     1       8.829  16.194  17.885  0.00  0.00    +0.000 A 
ATOM     29  C   UNL     1       9.330  16.778  19.046  0.00  0.00    +0.000 A 
ATOM     30  C   UNL     1       9.021  16.228  20.294  0.00  0.00    +0.000 A 
ATOM     31 CL   UNL     1       9.704  16.971  21.698  0.00  0.00    +0.000 Cl
ENDBRANCH  24  25
ENDBRANCH  23  24
ENDBRANCH  20  23
ENDBRANCH   6  19
TORSDOF 6
ENDMDL
MODEL 4
REMARK VINA RESULT:      -8.2      4.084      9.674
REMARK  Name = 
REMARK  8 active torsions:
REMARK  status: ('A' for Active; 'I' for Inactive)
REMARK    1  A    between atoms: C_1  and  C_2
REMARK    2  A    between atoms: C_2  and  C_3
REMARK    3  A    between atoms: C_8  and  C_9
REMARK    4  A    between atoms: C_12  and  C_13
REMARK    5  A    between atoms: C_14  and  N_15
REMARK    6  A    between atoms: C_16  and  C_18
REMARK    7  A    between atoms: C_18  and  O_19
REMARK    8  A    between atoms: O_19  and  C_20
REMARK                            x       y       z     vdW  Elec       q    Type
REMARK                         _______ _______ _______ _____ _____    ______ ____
ROOT
ATOM      1  C   UNL     1       1.988   8.047  19.225  0.00  0.00    +0.000 A 
ATOM      2  C   UNL     1       1.868   7.691  20.574  0.00  0.00    +0.000 A 
ATOM      3  C   UNL     1       1.082   8.440  21.447  0.00  0.00    +0.000 A 
ATOM      4  C   UNL     1       0.393   9.573  20.998  0.00  0.00    +0.000 A 
ATOM      5  C   UNL     1      -0.441  10.343  21.982  0.00  0.00    +0.000 C 
ATOM      6  C   UNL     1       0.501   9.938  19.646  0.00  0.00    +0.000 A 
ATOM      7  C   UNL     1       1.282   9.172  18.763  0.00  0.00    +0.000 A 
ENDROOT
BRANCH   1  13
ATOM      8  C   UNL     1       5.610   4.865  15.771  0.00  0.00    +0.000 A 
ATOM      9  C   UNL     1       4.962   3.808  16.439  0.00  0.00    +0.000 A 
ATOM     10  C   UNL     1       3.947   4.036  17.378  0.00  0.00    +0.000 A 
ATOM     11  C   UNL     1       3.634   5.368  17.612  0.00  0.00    +0.000 A 
ATOM     12  O   UNL     1       2.721   5.860  18.500  0.00  0.00    +0.000 OA
ATOM     13  C   UNL     1       2.826   7.219  18.360  0.00  0.00    +0.000 A 
ATOM     14  N   UNL     1       3.700   7.612  17.447  0.00  0.00    +0.000 NA
ATOM     15  C   UNL     1       4.234   6.441  16.977  0.00  0.00    +0.000 A 
ATOM     16  C   UNL     1       5.238   6.199  16.031  0.00  0.00    +0.000 A 
BRANCH   8  18
ATOM     17  C   UNL     1       6.242   3.893  13.549  0.00  0.00    +0.000 C 
ATOM     18  C   UNL     1       6.742   4.574  14.815  0.00  0.00    +0.000 C 
ENDBRANCH   8  18
ENDBRANCH   1  13
BRANCH   6  19
ATOM     19  N   UNL     1      -0.254  11.018  19.149  0.00  0.00    +0.000 N 
ATOM     20  C   UNL     1       0.257  12.258  18.813  0.00  0.00    +0.000 C 
ATOM     21  O   UNL     1      -0.395  13.002  18.081  0.00  0.00    +0.000 OA
ATOM     22  H   UNL     1      -1.062  10.791  18.584  0.00  0.00    +0.000 HD
BRANCH  20  23
ATOM     23  C   UNL     1       1.605  12.664  19.389  0.00  0.00    +0.000 C 
BRANCH  23  24
ATOM     24  O   UNL     1       1.513  14.029  19.776  0.00  0.00    +0.000 OA
BRANCH  24  25
ATOM     25  C   UNL     1       1.995  14.966  18.903  0.00  0.00    +0.000 A 
ATOM     26  C   UNL     1       3.153  14.799  18.138  0.00  0.00    +0.000 A 
ATOM     27  C   UNL     1       3.598  15.816  17.289  0.00  0.00    +0.000 A 
ATOM     28  C   UNL     1       2.887  17.006  17.193  0.00  0.00    +0.000 A 
ATOM     29  C   UNL     1       1.739  17.195  17.959  0.00  0.00    +0.000 A 
ATOM     30  C   UNL     1       1.302  16.185  18.822  0.00  0.00    +0.000 A 
ATOM     31 CL   UNL     1      -0.106  16.490  19.779  0.00  0.00    +0.000 Cl
ENDBRANCH  24  25
ENDBRANCH  23  24
ENDBRANCH  20  23
ENDBRANCH   6  19
TORSDOF 6
ENDMDL
MODEL 5
REMARK VINA RESULT:      -8.1      4.446      9.817
REMARK  Name = 
REMARK  8 active torsions:
REMARK  status: ('A' for Active; 'I' for Inactive)
REMARK    1  A    between atoms: C_1  and  C_2
REMARK    2  A    between atoms: C_2  and  C_3
REMARK    3  A    between atoms: C_8  and  C_9
REMARK    4  A    between atoms: C_12  and  C_13
REMARK    5  A    between atoms: C_14  and  N_15
REMARK    6  A    between atoms: C_16  and  C_18
REMARK    7  A    between atoms: C_18  and  O_19
REMARK    8  A    between atoms: O_19  and  C_20
REMARK                            x       y       z     vdW  Elec       q    Type
REMARK                         _______ _______ _______ _____ _____    ______ ____
ROOT
ATOM      1  C   UNL     1       0.539   9.453  21.053  0.00  0.00    +0.000 A 
ATOM      2  C   UNL     1       0.096   9.077  22.327  0.00  0.00    +0.000 A 
ATOM      3  C   UNL     1      -0.629   9.958  23.125  0.00  0.00    +0.000 A 
ATOM      4  C   UNL     1      -0.931  11.249  22.675  0.00  0.00    +0.000 A 
ATOM      5  C   UNL     1      -1.718  12.158  23.577  0.00  0.00    +0.000 C 
ATOM      6  C   UNL     1      -0.498  11.638  21.396  0.00  0.00    +0.000 A 
ATOM      7  C   UNL     1       0.220  10.742  20.585  0.00  0.00    +0.000 A 
ENDROOT
BRANCH   1  13
ATOM      8  C   UNL     1       3.791   5.719  17.789  0.00  0.00    +0.000 A 
ATOM      9  C   UNL     1       3.527   4.876  18.886  0.00  0.00    +0.000 A 
ATOM     10  C   UNL     1       2.734   5.290  19.965  0.00  0.00    +0.000 A 
ATOM     11  C   UNL     1       2.239   6.584  19.884  0.00  0.00    +0.000 A 
ATOM     12  O   UNL     1       1.482   7.240  20.811  0.00  0.00    +0.000 OA
ATOM     13  C   UNL     1       1.293   8.482  20.263  0.00  0.00    +0.000 A 
ATOM     14  N   UNL     1       1.841   8.645  19.070  0.00  0.00    +0.000 NA
ATOM     15  C   UNL     1       2.462   7.448  18.826  0.00  0.00    +0.000 A 
ATOM     16  C   UNL     1       3.245   7.018  17.748  0.00  0.00    +0.000 A 
BRANCH   8  18
ATOM     17  C   UNL     1       5.184   6.418  15.827  0.00  0.00    +0.000 C 
ATOM     18  C   UNL     1       4.704   5.253  16.680  0.00  0.00    +0.000 C 
ENDBRANCH   8  18
ENDBRANCH   1  13
BRANCH   6  19
ATOM     19  N   UNL     1      -0.868  12.896  20.883  0.00  0.00    +0.000 N 
ATOM     20  C   UNL     1      -2.146  13.255  20.498  0.00  0.00    +0.000 C 
ATOM     21  O   UNL     1      -2.435  14.446  20.394  0.00  0.00    +0.000 OA
ATOM     22  H   UNL     1      -0.349  13.698  21.218  0.00  0.00    +0.000 HD
BRANCH  20  23
ATOM     23  C   UNL     1      -3.145  12.148  20.190  0.00  0.00    +0.000 C 
BRANCH  23  24
ATOM     24  O   UNL     1      -3.686  12.404  18.900  0.00  0.00    +0.000 OA
BRANCH  24  25
ATOM     25  C   UNL     1      -3.387  11.516  17.903  0.00  0.00    +0.000 A 
ATOM     26  C   UNL     1      -2.248  10.705  17.894  0.00  0.00    +0.000 A 
ATOM     27  C   UNL     1      -1.996   9.844  16.823  0.00  0.00    +0.000 A 
ATOM     28  C   UNL     1      -2.883   9.781  15.755  0.00  0.00    +0.000 A 
ATOM     29  C   UNL     1      -4.015  10.593  15.741  0.00  0.00    +0.000 A 
ATOM     30  C   UNL     1      -4.259  11.468  16.804  0.00  0.00    +0.000 A 
ATOM     31 CL   UNL     1      -5.657  12.481  16.714  0.00  0.00    +0.000 Cl
ENDBRANCH  24  25
ENDBRANCH  23  24
ENDBRANCH  20  23
ENDBRANCH   6  19
TORSDOF 6
ENDMDL
MODEL 6
REMARK VINA RESULT:      -8.1      6.881     10.409
REMARK  Name = 
REMARK  8 active torsions:
REMARK  status: ('A' for Active; 'I' for Inactive)
REMARK    1  A    between atoms: C_1  and  C_2
REMARK    2  A    between atoms: C_2  and  C_3
REMARK    3  A    between atoms: C_8  and  C_9
REMARK    4  A    between atoms: C_12  and  C_13
REMARK    5  A    between atoms: C_14  and  N_15
REMARK    6  A    between atoms: C_16  and  C_18
REMARK    7  A    between atoms: C_18  and  O_19
REMARK    8  A    between atoms: O_19  and  C_20
REMARK                            x       y       z     vdW  Elec       q    Type
REMARK                         _______ _______ _______ _____ _____    ______ ____
ROOT
ATOM      1  C   UNL     1       9.065  10.421  18.449  0.00  0.00    +0.000 A 
ATOM      2  C   UNL     1      10.103  10.390  19.388  0.00  0.00    +0.000 A 
ATOM      3  C   UNL     1      10.828  11.540  19.694  0.00  0.00    +0.000 A 
ATOM      4  C   UNL     1      10.539  12.758  19.067  0.00  0.00    +0.000 A 
ATOM      5  C   UNL     1      11.351  13.967  19.438  0.00  0.00    +0.000 C 
ATOM      6  C   UNL     1       9.496  12.803  18.128  0.00  0.00    +0.000 A 
ATOM      7  C   UNL     1       8.756  11.646  17.830  0.00  0.00    +0.000 A 
ENDROOT
BRANCH   1  13
ATOM      8  C   UNL     1       6.153   5.449  17.045  0.00  0.00    +0.000 A 
ATOM      9  C   UNL     1       6.996   4.931  18.048  0.00  0.00    +0.000 A 
ATOM     10  C   UNL     1       7.894   5.744  18.752  0.00  0.00    +0.000 A 
ATOM     11  C   UNL     1       7.906   7.083  18.388  0.00  0.00    +0.000 A 
ATOM     12  O   UNL     1       8.708   8.069  18.884  0.00  0.00    +0.000 OA
ATOM     13  C   UNL     1       8.342   9.181  18.172  0.00  0.00    +0.000 A 
ATOM     14  N   UNL     1       7.367   8.980  17.300  0.00  0.00    +0.000 NA
ATOM     15  C   UNL     1       7.094   7.642  17.416  0.00  0.00    +0.000 A 
ATOM     16  C   UNL     1       6.190   6.821  16.729  0.00  0.00    +0.000 A 
BRANCH   8  18
ATOM     17  C   UNL     1       4.403   3.662  17.195  0.00  0.00    +0.000 C 
ATOM     18  C   UNL     1       5.247   4.524  16.268  0.00  0.00    +0.000 C 
ENDBRANCH   8  18
ENDBRANCH   1  13
BRANCH   6  19
ATOM     19  N   UNL     1       9.124  14.033  17.551  0.00  0.00    +0.000 N 
ATOM     20  C   UNL     1       8.240  14.938  18.107  0.00  0.00    +0.000 C 
ATOM     21  O   UNL     1       8.242  16.105  17.716  0.00  0.00    +0.000 OA
ATOM     22  H   UNL     1       9.820  14.503  16.985  0.00  0.00    +0.000 HD
BRANCH  20  23
ATOM     23  C   UNL     1       7.272  14.442  19.171  0.00  0.00    +0.000 C 
BRANCH  23  24
ATOM     24  O   UNL     1       7.836  14.748  20.440  0.00  0.00    +0.000 OA
BRANCH  24  25
ATOM     25  C   UNL     1       7.559  13.898  21.476  0.00  0.00    +0.000 A 
ATOM     26  C   UNL     1       8.344  12.790  21.809  0.00  0.00    +0.000 A 
ATOM     27  C   UNL     1       7.978  11.950  22.864  0.00  0.00    +0.000 A 
ATOM     28  C   UNL     1       6.829  12.214  23.600  0.00  0.00    +0.000 A 
ATOM     29  C   UNL     1       6.028  13.306  23.272  0.00  0.00    +0.000 A 
ATOM     30  C   UNL     1       6.383  14.137  22.205  0.00  0.00    +0.000 A 
ATOM     31 CL   UNL     1       5.329  15.452  21.818  0.00  0.00    +0.000 Cl
ENDBRANCH  24  25
ENDBRANCH  23  24
ENDBRANCH  20  23
ENDBRANCH   6  19
TORSDOF 6
ENDMDL
MODEL 7
REMARK VINA RESULT:      -8.0      3.725      9.684
REMARK  Name = 
REMARK  8 active torsions:
REMARK  status: ('A' for Active; 'I' for Inactive)
REMARK    1  A    between atoms: C_1  and  C_2
REMARK    2  A    between atoms: C_2  and  C_3
REMARK    3  A    between atoms: C_8  and  C_9
REMARK    4  A    between atoms: C_12  and  C_13
REMARK    5  A    between atoms: C_14  and  N_15
REMARK    6  A    between atoms: C_16  and  C_18
REMARK    7  A    between atoms: C_18  and  O_19
REMARK    8  A    between atoms: O_19  and  C_20
REMARK                            x       y       z     vdW  Elec       q    Type
REMARK                         _______ _______ _______ _____ _____    ______ ____
ROOT
ATOM      1  C   UNL     1       2.181   7.521  19.492  0.00  0.00    +0.000 A 
ATOM      2  C   UNL     1       1.616   6.767  20.529  0.00  0.00    +0.000 A 
ATOM      3  C   UNL     1       0.840   7.371  21.515  0.00  0.00    +0.000 A 
ATOM      4  C   UNL     1       0.607   8.752  21.498  0.00  0.00    +0.000 A 
ATOM      5  C   UNL     1      -0.240   9.350  22.585  0.00  0.00    +0.000 C 
ATOM      6  C   UNL     1       1.163   9.518  20.460  0.00  0.00    +0.000 A 
ATOM      7  C   UNL     1       1.934   8.905  19.457  0.00  0.00    +0.000 A 
ENDROOT
BRANCH   1  13
ATOM      8  C   UNL     1       5.656   4.891  15.469  0.00  0.00    +0.000 A 
ATOM      9  C   UNL     1       5.121   3.740  16.080  0.00  0.00    +0.000 A 
ATOM     10  C   UNL     1       4.178   3.820  17.114  0.00  0.00    +0.000 A 
ATOM     11  C   UNL     1       3.819   5.104  17.501  0.00  0.00    +0.000 A 
ATOM     12  O   UNL     1       2.960   5.457  18.501  0.00  0.00    +0.000 OA
ATOM     13  C   UNL     1       2.985   6.828  18.487  0.00  0.00    +0.000 A 
ATOM     14  N   UNL     1       3.758   7.354  17.551  0.00  0.00    +0.000 NA
ATOM     15  C   UNL     1       4.309   6.265  16.928  0.00  0.00    +0.000 A 
ATOM     16  C   UNL     1       5.241   6.171  15.886  0.00  0.00    +0.000 A 
BRANCH   8  18
ATOM     17  C   UNL     1       6.271   3.823  13.287  0.00  0.00    +0.000 C 
ATOM     18  C   UNL     1       6.717   4.757  14.403  0.00  0.00    +0.000 C 
ENDBRANCH   8  18
ENDBRANCH   1  13
BRANCH   6  19
ATOM     19  N   UNL     1       0.869  10.892  20.368  0.00  0.00    +0.000 N 
ATOM     20  C   UNL     1      -0.307  11.423  19.870  0.00  0.00    +0.000 C 
ATOM     21  O   UNL     1      -0.609  12.584  20.143  0.00  0.00    +0.000 OA
ATOM     22  H   UNL     1       1.272  11.496  21.074  0.00  0.00    +0.000 HD
BRANCH  20  23
ATOM     23  C   UNL     1      -1.173  10.548  18.976  0.00  0.00    +0.000 C 
BRANCH  23  24
ATOM     24  O   UNL     1      -1.702  11.375  17.948  0.00  0.00    +0.000 OA
BRANCH  24  25
ATOM     25  C   UNL     1      -3.057  11.560  17.921  0.00  0.00    +0.000 A 
ATOM     26  C   UNL     1      -3.815  11.948  19.031  0.00  0.00    +0.000 A 
ATOM     27  C   UNL     1      -5.202  12.087  18.931  0.00  0.00    +0.000 A 
ATOM     28  C   UNL     1      -5.843  11.847  17.722  0.00  0.00    +0.000 A 
ATOM     29  C   UNL     1      -5.104  11.446  16.610  0.00  0.00    +0.000 A 
ATOM     30  C   UNL     1      -3.718  11.289  16.713  0.00  0.00    +0.000 A 
ATOM     31 CL   UNL     1      -2.859  10.750  15.313  0.00  0.00    +0.000 Cl
ENDBRANCH  24  25
ENDBRANCH  23  24
ENDBRANCH  20  23
ENDBRANCH   6  19
TORSDOF 6
ENDMDL
MODEL 8
REMARK VINA RESULT:      -7.9      4.717      9.935
REMARK  Name = 
REMARK  8 active torsions:
REMARK  status: ('A' for Active; 'I' for Inactive)
REMARK    1  A    between atoms: C_1  and  C_2
REMARK    2  A    between atoms: C_2  and  C_3
REMARK    3  A    between atoms: C_8  and  C_9
REMARK    4  A    between atoms: C_12  and  C_13
REMARK    5  A    between atoms: C_14  and  N_15
REMARK    6  A    between atoms: C_16  and  C_18
REMARK    7  A    between atoms: C_18  and  O_19
REMARK    8  A    between atoms: O_19  and  C_20
REMARK                            x       y       z     vdW  Elec       q    Type
REMARK                         _______ _______ _______ _____ _____    ______ ____
ROOT
ATOM      1  C   UNL     1       0.657   9.279  21.208  0.00  0.00    +0.000 A 
ATOM      2  C   UNL     1       0.211   9.051  22.515  0.00  0.00    +0.000 A 
ATOM      3  C   UNL     1      -0.489  10.030  23.216  0.00  0.00    +0.000 A 
ATOM      4  C   UNL     1      -0.763  11.272  22.631  0.00  0.00    +0.000 A 
ATOM      5  C   UNL     1      -1.524  12.291  23.431  0.00  0.00    +0.000 C 
ATOM      6  C   UNL     1      -0.327  11.512  21.317  0.00  0.00    +0.000 A 
ATOM      7  C   UNL     1       0.367  10.517  20.606  0.00  0.00    +0.000 A 
ENDROOT
BRANCH   1  13
ATOM      8  C   UNL     1       3.389   4.771  18.490  0.00  0.00    +0.000 A 
ATOM      9  C   UNL     1       3.684   5.793  17.566  0.00  0.00    +0.000 A 
ATOM     10  C   UNL     1       3.276   7.118  17.771  0.00  0.00    +0.000 A 
ATOM     11  C   UNL     1       2.554   7.350  18.934  0.00  0.00    +0.000 A 
ATOM     12  O   UNL     1       2.010   8.531  19.348  0.00  0.00    +0.000 OA
ATOM     13  C   UNL     1       1.385   8.211  20.525  0.00  0.00    +0.000 A 
ATOM     14  N   UNL     1       1.518   6.946  20.892  0.00  0.00    +0.000 NA
ATOM     15  C   UNL     1       2.246   6.384  19.876  0.00  0.00    +0.000 A 
ATOM     16  C   UNL     1       2.672   5.066  19.666  0.00  0.00    +0.000 A 
BRANCH   8  18
ATOM     17  C   UNL     1       3.876   2.516  19.468  0.00  0.00    +0.000 C 
ATOM     18  C   UNL     1       3.794   3.346  18.195  0.00  0.00    +0.000 C 
ENDBRANCH   8  18
ENDBRANCH   1  13
BRANCH   6  19
ATOM     19  N   UNL     1      -0.669  12.716  20.673  0.00  0.00    +0.000 N 
ATOM     20  C   UNL     1      -1.956  13.119  20.368  0.00  0.00    +0.000 C 
ATOM     21  O   UNL     1      -2.177  14.305  20.128  0.00  0.00    +0.000 OA
ATOM     22  H   UNL     1      -0.067  13.513  20.842  0.00  0.00    +0.000 HD
BRANCH  20  23
ATOM     23  C   UNL     1      -3.049  12.062  20.315  0.00  0.00    +0.000 C 
BRANCH  23  24
ATOM     24  O   UNL     1      -3.761  12.240  19.097  0.00  0.00    +0.000 OA
BRANCH  24  25
ATOM     25  C   UNL     1      -3.414  11.443  18.041  0.00  0.00    +0.000 A 
ATOM     26  C   UNL     1      -2.260  10.654  18.003  0.00  0.00    +0.000 A 
ATOM     27  C   UNL     1      -1.959   9.888  16.873  0.00  0.00    +0.000 A 
ATOM     28  C   UNL     1      -2.811   9.899  15.775  0.00  0.00    +0.000 A 
ATOM     29  C   UNL     1      -3.957  10.690  15.791  0.00  0.00    +0.000 A 
ATOM     30  C   UNL     1      -4.251  11.471  16.914  0.00  0.00    +0.000 A 
ATOM     31 CL   UNL     1      -5.664  12.466  16.861  0.00  0.00    +0.000 Cl
ENDBRANCH  24  25
ENDBRANCH  23  24
ENDBRANCH  20  23
ENDBRANCH   6  19
TORSDOF 6
ENDMDL
MODEL 9
REMARK VINA RESULT:      -7.9      5.347     10.330
REMARK  Name = 
REMARK  8 active torsions:
REMARK  status: ('A' for Active; 'I' for Inactive)
REMARK    1  A    between atoms: C_1  and  C_2
REMARK    2  A    between atoms: C_2  and  C_3
REMARK    3  A    between atoms: C_8  and  C_9
REMARK    4  A    between atoms: C_12  and  C_13
REMARK    5  A    between atoms: C_14  and  N_15
REMARK    6  A    between atoms: C_16  and  C_18
REMARK    7  A    between atoms: C_18  and  O_19
REMARK    8  A    between atoms: O_19  and  C_20
REMARK                            x       y       z     vdW  Elec       q    Type
REMARK                         _______ _______ _______ _____ _____    ______ ____
ROOT
ATOM      1  C   UNL     1       0.430  10.796  20.768  0.00  0.00    +0.000 A 
ATOM      2  C   UNL     1       1.253  11.894  20.490  0.00  0.00    +0.000 A 
ATOM      3  C   UNL     1       0.817  13.197  20.725  0.00  0.00    +0.000 A 
ATOM      4  C   UNL     1      -0.460  13.442  21.243  0.00  0.00    +0.000 A 
ATOM      5  C   UNL     1      -0.878  14.866  21.478  0.00  0.00    +0.000 C 
ATOM      6  C   UNL     1      -1.294  12.349  21.531  0.00  0.00    +0.000 A 
ATOM      7  C   UNL     1      -0.847  11.035  21.307  0.00  0.00    +0.000 A 
ENDROOT
BRANCH   1  13
ATOM      8  C   UNL     1       2.277   5.247  19.784  0.00  0.00    +0.000 A 
ATOM      9  C   UNL     1       2.710   5.837  18.580  0.00  0.00    +0.000 A 
ATOM     10  C   UNL     1       2.538   7.204  18.321  0.00  0.00    +0.000 A 
ATOM     11  C   UNL     1       1.903   7.928  19.320  0.00  0.00    +0.000 A 
ATOM     12  O   UNL     1       1.578   9.254  19.301  0.00  0.00    +0.000 OA
ATOM     13  C   UNL     1       0.946   9.455  20.501  0.00  0.00    +0.000 A 
ATOM     14  N   UNL     1       0.876   8.382  21.272  0.00  0.00    +0.000 NA
ATOM     15  C   UNL     1       1.466   7.399  20.521  0.00  0.00    +0.000 A 
ATOM     16  C   UNL     1       1.657   6.034  20.774  0.00  0.00    +0.000 A 
BRANCH   8  18
ATOM     17  C   UNL     1       2.209   3.376  21.449  0.00  0.00    +0.000 C 
ATOM     18  C   UNL     1       2.427   3.759  19.993  0.00  0.00    +0.000 C 
ENDBRANCH   8  18
ENDBRANCH   1  13
BRANCH   6  19
ATOM     19  N   UNL     1      -2.547  12.563  22.138  0.00  0.00    +0.000 N 
ATOM     20  C   UNL     1      -3.760  12.576  21.476  0.00  0.00    +0.000 C 
ATOM     21  O   UNL     1      -4.800  12.427  22.116  0.00  0.00    +0.000 OA
ATOM     22  H   UNL     1      -2.655  12.243  23.092  0.00  0.00    +0.000 HD
BRANCH  20  23
ATOM     23  C   UNL     1      -3.760  12.802  19.971  0.00  0.00    +0.000 C 
BRANCH  23  24
ATOM     24  O   UNL     1      -4.326  11.648  19.363  0.00  0.00    +0.000 OA
BRANCH  24  25
ATOM     25  C   UNL     1      -3.753  11.200  18.204  0.00  0.00    +0.000 A 
ATOM     26  C   UNL     1      -2.551  10.487  18.152  0.00  0.00    +0.000 A 
ATOM     27  C   UNL     1      -2.013  10.088  16.925  0.00  0.00    +0.000 A 
ATOM     28  C   UNL     1      -2.675  10.391  15.742  0.00  0.00    +0.000 A 
ATOM     29  C   UNL     1      -3.866  11.113  15.775  0.00  0.00    +0.000 A 
ATOM     30  C   UNL     1      -4.396  11.528  17.001  0.00  0.00    +0.000 A 
ATOM     31 CL   UNL     1      -5.855  12.457  16.979  0.00  0.00    +0.000 Cl
ENDBRANCH  24  25
ENDBRANCH  23  24
ENDBRANCH  20  23
ENDBRANCH   6  19
TORSDOF 6
ENDMDL
