MODEL 1
REMARK VINA RESULT:      -6.0      0.000      0.000
REMARK  Name = 
REMARK  12 active torsions:
REMARK  status: ('A' for Active; 'I' for Inactive)
REMARK    1  A    between atoms: C_1  and  C_2
REMARK    2  A    between atoms: C_2  and  O_3
REMARK    3  A    between atoms: O_3  and  C_4
REMARK    4  A    between atoms: C_4  and  C_6
REMARK    5  A    between atoms: C_9  and  C_10
REMARK    6  A    between atoms: C_11  and  C_12
REMARK    7  A    between atoms: C_15  and  O_16
REMARK    8  A    between atoms: O_16  and  C_17
REMARK    9  A    between atoms: C_25  and  O_26
REMARK   10  A    between atoms: O_26  and  C_27
REMARK   11  A    between atoms: C_28  and  O_29
REMARK   12  A    between atoms: O_29  and  C_30
REMARK                            x       y       z     vdW  Elec       q    Type
REMARK                         _______ _______ _______ _____ _____    ______ ____
ROOT
ATOM      1  C   UNL     1      -3.730  12.032  19.787  0.00  0.00    +0.000 A 
ATOM      2  C   UNL     1      -4.431  11.504  18.757  0.00  0.00    +0.000 A 
ATOM      3  O   UNL     1      -5.830  11.318  18.778  0.00  0.00    +0.000 OA
ATOM      4  C   UNL     1      -6.601  11.698  19.836  0.00  0.00    +0.000 A 
ATOM      5  O   UNL     1      -7.818  11.593  19.828  0.00  0.00    +0.000 OA
ATOM      6  C   UNL     1      -5.886  12.239  21.016  0.00  0.00    +0.000 A 
ATOM      7  C   UNL     1      -6.629  12.596  22.156  0.00  0.00    +0.000 A 
ATOM      8  C   UNL     1      -6.001  13.097  23.305  0.00  0.00    +0.000 A 
ATOM      9  C   UNL     1      -4.602  13.232  23.300  0.00  0.00    +0.000 A 
ATOM     10  C   UNL     1      -3.877  12.881  22.149  0.00  0.00    +0.000 A 
ATOM     11  C   UNL     1      -4.502  12.386  20.994  0.00  0.00    +0.000 A 
ENDROOT
BRANCH   1  15
ATOM     12  C   UNL     1       0.496  12.644  19.399  0.00  0.00    +0.000 A 
ATOM     13  C   UNL     1       0.008  11.461  19.969  0.00  0.00    +0.000 A 
ATOM     14  C   UNL     1      -1.369  11.260  20.091  0.00  0.00    +0.000 A 
ATOM     15  C   UNL     1      -2.268  12.245  19.651  0.00  0.00    +0.000 A 
ATOM     16  C   UNL     1      -1.774  13.417  19.069  0.00  0.00    +0.000 A 
ATOM     17  C   UNL     1      -0.401  13.607  18.941  0.00  0.00    +0.000 A 
ATOM     18  F   UNL     1       0.029  14.729  18.346  0.00  0.00    +0.000 F 
BRANCH  12  19
ATOM     19  C   UNL     1       1.954  12.854  19.358  0.00  0.00    +0.000 C 
ATOM     20  O   UNL     1       2.630  12.682  18.357  0.00  0.00    +0.000 OA
BRANCH  19  21
ATOM     21  O   UNL     1       2.406  13.009  20.626  0.00  0.00    +0.000 OA
BRANCH  21  23
ATOM     22  C   UNL     1       1.950  15.011  21.827  0.00  0.00    +0.000 C 
ATOM     23  C   UNL     1       2.947  14.299  20.928  0.00  0.00    +0.000 C 
ENDBRANCH  21  23
ENDBRANCH  19  21
ENDBRANCH  12  19
ENDBRANCH   1  15
BRANCH   2  24
ATOM     24  C   UNL     1      -3.815  11.097  17.481  0.00  0.00    +0.000 A 
ATOM     25  C   UNL     1      -4.184  11.715  16.281  0.00  0.00    +0.000 A 
ATOM     26  C   UNL     1      -3.738  11.196  15.063  0.00  0.00    +0.000 A 
ATOM     27  C   UNL     1      -2.888  10.089  15.027  0.00  0.00    +0.000 A 
ATOM     28  C   UNL     1      -2.482   9.496  16.223  0.00  0.00    +0.000 A 
ATOM     29  C   UNL     1      -2.939  10.004  17.445  0.00  0.00    +0.000 A 
BRANCH  27  30
ATOM     30  O   UNL     1      -2.570   9.643  13.774  0.00  0.00    +0.000 OA
ATOM     31  C   UNL     1      -3.591   9.772  12.792  0.00  0.00    +0.000 C 
ENDBRANCH  27  30
ENDBRANCH   2  24
BRANCH   8  32
ATOM     32  O   UNL     1      -6.681  13.458  24.433  0.00  0.00    +0.000 OA
ATOM     33  C   UNL     1      -7.916  14.146  24.307  0.00  0.00    +0.000 C 
ENDBRANCH   8  32
BRANCH   9  34
ATOM     34  O   UNL     1      -3.785  13.675  24.307  0.00  0.00    +0.000 OA
ATOM     35  C   UNL     1      -3.558  15.068  24.450  0.00  0.00    +0.000 C 
ENDBRANCH   9  34
TORSDOF 8
ENDMDL
MODEL 2
REMARK VINA RESULT:      -5.9      2.409      7.274
REMARK  Name = 
REMARK  12 active torsions:
REMARK  status: ('A' for Active; 'I' for Inactive)
REMARK    1  A    between atoms: C_1  and  C_2
REMARK    2  A    between atoms: C_2  and  O_3
REMARK    3  A    between atoms: O_3  and  C_4
REMARK    4  A    between atoms: C_4  and  C_6
REMARK    5  A    between atoms: C_9  and  C_10
REMARK    6  A    between atoms: C_11  and  C_12
REMARK    7  A    between atoms: C_15  and  O_16
REMARK    8  A    between atoms: O_16  and  C_17
REMARK    9  A    between atoms: C_25  and  O_26
REMARK   10  A    between atoms: O_26  and  C_27
REMARK   11  A    between atoms: C_28  and  O_29
REMARK   12  A    between atoms: O_29  and  C_30
REMARK                            x       y       z     vdW  Elec       q    Type
REMARK                         _______ _______ _______ _____ _____    ______ ____
ROOT
ATOM      1  C   UNL     1       0.693  13.589  20.454  0.00  0.00    +0.000 A 
ATOM      2  C   UNL     1       0.852  12.982  19.255  0.00  0.00    +0.000 A 
ATOM      3  O   UNL     1       1.996  13.139  18.445  0.00  0.00    +0.000 OA
ATOM      4  C   UNL     1       3.065  13.892  18.830  0.00  0.00    +0.000 A 
ATOM      5  O   UNL     1       4.081  13.978  18.156  0.00  0.00    +0.000 OA
ATOM      6  C   UNL     1       2.933  14.622  20.112  0.00  0.00    +0.000 A 
ATOM      7  C   UNL     1       3.986  15.457  20.531  0.00  0.00    +0.000 A 
ATOM      8  C   UNL     1       3.904  16.183  21.728  0.00  0.00    +0.000 A 
ATOM      9  C   UNL     1       2.741  16.066  22.506  0.00  0.00    +0.000 A 
ATOM     10  C   UNL     1       1.705  15.219  22.080  0.00  0.00    +0.000 A 
ATOM     11  C   UNL     1       1.784  14.485  20.885  0.00  0.00    +0.000 A 
ENDROOT
BRANCH   1  15
ATOM     12  C   UNL     1      -2.815  12.809  22.792  0.00  0.00    +0.000 A 
ATOM     13  C   UNL     1      -2.757  13.943  21.972  0.00  0.00    +0.000 A 
ATOM     14  C   UNL     1      -1.615  14.194  21.207  0.00  0.00    +0.000 A 
ATOM     15  C   UNL     1      -0.520  13.317  21.263  0.00  0.00    +0.000 A 
ATOM     16  C   UNL     1      -0.591  12.178  22.073  0.00  0.00    +0.000 A 
ATOM     17  C   UNL     1      -1.735  11.928  22.825  0.00  0.00    +0.000 A 
ATOM     18  F   UNL     1      -1.775  10.808  23.561  0.00  0.00    +0.000 F 
BRANCH  12  19
ATOM     19  C   UNL     1      -4.002  12.619  23.644  0.00  0.00    +0.000 C 
ATOM     20  O   UNL     1      -3.943  12.441  24.850  0.00  0.00    +0.000 OA
BRANCH  19  21
ATOM     21  O   UNL     1      -5.082  12.430  22.848  0.00  0.00    +0.000 OA
BRANCH  21  23
ATOM     22  C   UNL     1      -6.478  14.331  23.150  0.00  0.00    +0.000 C 
ATOM     23  C   UNL     1      -6.333  12.841  23.407  0.00  0.00    +0.000 C 
ENDBRANCH  21  23
ENDBRANCH  19  21
ENDBRANCH  12  19
ENDBRANCH   1  15
BRANCH   2  24
ATOM     24  C   UNL     1      -0.141  12.058  18.676  0.00  0.00    +0.000 A 
ATOM     25  C   UNL     1       0.107  10.682  18.629  0.00  0.00    +0.000 A 
ATOM     26  C   UNL     1      -0.749   9.842  17.913  0.00  0.00    +0.000 A 
ATOM     27  C   UNL     1      -1.881  10.354  17.274  0.00  0.00    +0.000 A 
ATOM     28  C   UNL     1      -2.157  11.719  17.355  0.00  0.00    +0.000 A 
ATOM     29  C   UNL     1      -1.293  12.565  18.059  0.00  0.00    +0.000 A 
BRANCH  27  30
ATOM     30  O   UNL     1      -2.605   9.441  16.559  0.00  0.00    +0.000 OA
ATOM     31  C   UNL     1      -3.050   9.869  15.277  0.00  0.00    +0.000 C 
ENDBRANCH  27  30
ENDBRANCH   2  24
BRANCH   8  32
ATOM     32  O   UNL     1       4.900  17.004  22.174  0.00  0.00    +0.000 OA
ATOM     33  C   UNL     1       5.268  18.134  21.397  0.00  0.00    +0.000 C 
ENDBRANCH   8  32
BRANCH   9  34
ATOM     34  O   UNL     1       2.439  16.691  23.689  0.00  0.00    +0.000 OA
ATOM     35  C   UNL     1       1.127  17.188  23.892  0.00  0.00    +0.000 C 
ENDBRANCH   9  34
TORSDOF 8
ENDMDL
MODEL 3
REMARK VINA RESULT:      -5.8      3.661      4.727
REMARK  Name = 
REMARK  12 active torsions:
REMARK  status: ('A' for Active; 'I' for Inactive)
REMARK    1  A    between atoms: C_1  and  C_2
REMARK    2  A    between atoms: C_2  and  O_3
REMARK    3  A    between atoms: O_3  and  C_4
REMARK    4  A    between atoms: C_4  and  C_6
REMARK    5  A    between atoms: C_9  and  C_10
REMARK    6  A    between atoms: C_11  and  C_12
REMARK    7  A    between atoms: C_15  and  O_16
REMARK    8  A    between atoms: O_16  and  C_17
REMARK    9  A    between atoms: C_25  and  O_26
REMARK   10  A    between atoms: O_26  and  C_27
REMARK   11  A    between atoms: C_28  and  O_29
REMARK   12  A    between atoms: O_29  and  C_30
REMARK                            x       y       z     vdW  Elec       q    Type
REMARK                         _______ _______ _______ _____ _____    ______ ____
ROOT
ATOM      1  C   UNL     1      -1.337  13.448  22.155  0.00  0.00    +0.000 A 
ATOM      2  C   UNL     1      -1.554  12.122  22.317  0.00  0.00    +0.000 A 
ATOM      3  O   UNL     1      -2.524  11.589  23.191  0.00  0.00    +0.000 OA
ATOM      4  C   UNL     1      -3.360  12.380  23.922  0.00  0.00    +0.000 A 
ATOM      5  O   UNL     1      -4.242  11.920  24.632  0.00  0.00    +0.000 OA
ATOM      6  C   UNL     1      -3.140  13.843  23.825  0.00  0.00    +0.000 A 
ATOM      7  C   UNL     1      -3.940  14.703  24.601  0.00  0.00    +0.000 A 
ATOM      8  C   UNL     1      -3.763  16.093  24.559  0.00  0.00    +0.000 A 
ATOM      9  C   UNL     1      -2.760  16.617  23.727  0.00  0.00    +0.000 A 
ATOM     10  C   UNL     1      -1.978  15.745  22.951  0.00  0.00    +0.000 A 
ATOM     11  C   UNL     1      -2.157  14.353  22.984  0.00  0.00    +0.000 A 
ENDROOT
BRANCH   1  15
ATOM     12  C   UNL     1       1.567  14.800  19.305  0.00  0.00    +0.000 A 
ATOM     13  C   UNL     1       1.983  14.292  20.542  0.00  0.00    +0.000 A 
ATOM     14  C   UNL     1       1.036  13.846  21.469  0.00  0.00    +0.000 A 
ATOM     15  C   UNL     1      -0.333  13.915  21.167  0.00  0.00    +0.000 A 
ATOM     16  C   UNL     1      -0.741  14.411  19.924  0.00  0.00    +0.000 A 
ATOM     17  C   UNL     1       0.208  14.843  19.002  0.00  0.00    +0.000 A 
ATOM     18  F   UNL     1      -0.224  15.278  17.809  0.00  0.00    +0.000 F 
BRANCH  12  19
ATOM     19  C   UNL     1       2.588  15.332  18.386  0.00  0.00    +0.000 C 
ATOM     20  O   UNL     1       3.477  14.650  17.902  0.00  0.00    +0.000 OA
BRANCH  19  21
ATOM     21  O   UNL     1       2.514  16.685  18.389  0.00  0.00    +0.000 OA
BRANCH  21  23
ATOM     22  C   UNL     1       1.219  18.193  17.085  0.00  0.00    +0.000 C 
ATOM     23  C   UNL     1       2.445  17.296  17.098  0.00  0.00    +0.000 C 
ENDBRANCH  21  23
ENDBRANCH  19  21
ENDBRANCH  12  19
ENDBRANCH   1  15
BRANCH   2  24
ATOM     24  C   UNL     1      -0.822  11.083  21.568  0.00  0.00    +0.000 A 
ATOM     25  C   UNL     1       0.179  10.327  22.189  0.00  0.00    +0.000 A 
ATOM     26  C   UNL     1       0.992   9.485  21.426  0.00  0.00    +0.000 A 
ATOM     27  C   UNL     1       0.790   9.352  20.051  0.00  0.00    +0.000 A 
ATOM     28  C   UNL     1      -0.234  10.071  19.434  0.00  0.00    +0.000 A 
ATOM     29  C   UNL     1      -1.041  10.928  20.193  0.00  0.00    +0.000 A 
BRANCH  27  30
ATOM     30  O   UNL     1       1.687   8.544  19.409  0.00  0.00    +0.000 OA
ATOM     31  C   UNL     1       1.979   7.309  20.052  0.00  0.00    +0.000 C 
ENDBRANCH  27  30
ENDBRANCH   2  24
BRANCH   8  32
ATOM     32  O   UNL     1      -4.516  16.966  25.292  0.00  0.00    +0.000 OA
ATOM     33  C   UNL     1      -5.729  17.463  24.746  0.00  0.00    +0.000 C 
ENDBRANCH   8  32
BRANCH   9  34
ATOM     34  O   UNL     1      -2.400  17.928  23.546  0.00  0.00    +0.000 OA
ATOM     35  C   UNL     1      -2.891  18.629  22.416  0.00  0.00    +0.000 C 
ENDBRANCH   9  34
TORSDOF 8
ENDMDL
MODEL 4
REMARK VINA RESULT:      -5.8      2.523      7.362
REMARK  Name = 
REMARK  12 active torsions:
REMARK  status: ('A' for Active; 'I' for Inactive)
REMARK    1  A    between atoms: C_1  and  C_2
REMARK    2  A    between atoms: C_2  and  O_3
REMARK    3  A    between atoms: O_3  and  C_4
REMARK    4  A    between atoms: C_4  and  C_6
REMARK    5  A    between atoms: C_9  and  C_10
REMARK    6  A    between atoms: C_11  and  C_12
REMARK    7  A    between atoms: C_15  and  O_16
REMARK    8  A    between atoms: O_16  and  C_17
REMARK    9  A    between atoms: C_25  and  O_26
REMARK   10  A    between atoms: O_26  and  C_27
REMARK   11  A    between atoms: C_28  and  O_29
REMARK   12  A    between atoms: O_29  and  C_30
REMARK                            x       y       z     vdW  Elec       q    Type
REMARK                         _______ _______ _______ _____ _____    ______ ____
ROOT
ATOM      1  C   UNL     1       0.927  13.773  20.538  0.00  0.00    +0.000 A 
ATOM      2  C   UNL     1       1.160  13.206  19.331  0.00  0.00    +0.000 A 
ATOM      3  O   UNL     1       2.338  13.414  18.583  0.00  0.00    +0.000 OA
ATOM      4  C   UNL     1       3.367  14.180  19.043  0.00  0.00    +0.000 A 
ATOM      5  O   UNL     1       4.413  14.311  18.424  0.00  0.00    +0.000 OA
ATOM      6  C   UNL     1       3.154  14.868  20.338  0.00  0.00    +0.000 A 
ATOM      7  C   UNL     1       4.164  15.715  20.833  0.00  0.00    +0.000 A 
ATOM      8  C   UNL     1       4.006  16.401  22.045  0.00  0.00    +0.000 A 
ATOM      9  C   UNL     1       2.809  16.233  22.761  0.00  0.00    +0.000 A 
ATOM     10  C   UNL     1       1.817  15.375  22.259  0.00  0.00    +0.000 A 
ATOM     11  C   UNL     1       1.973  14.680  21.049  0.00  0.00    +0.000 A 
ENDROOT
BRANCH   1  15
ATOM     12  C   UNL     1      -2.671  12.839  22.675  0.00  0.00    +0.000 A 
ATOM     13  C   UNL     1      -2.598  14.003  21.899  0.00  0.00    +0.000 A 
ATOM     14  C   UNL     1      -1.427  14.304  21.198  0.00  0.00    +0.000 A 
ATOM     15  C   UNL     1      -0.317  13.447  21.277  0.00  0.00    +0.000 A 
ATOM     16  C   UNL     1      -0.402  12.279  22.042  0.00  0.00    +0.000 A 
ATOM     17  C   UNL     1      -1.575  11.980  22.729  0.00  0.00    +0.000 A 
ATOM     18  F   UNL     1      -1.626  10.833  23.422  0.00  0.00    +0.000 F 
BRANCH  12  19
ATOM     19  C   UNL     1      -3.893  12.595  23.461  0.00  0.00    +0.000 C 
ATOM     20  O   UNL     1      -3.908  12.539  24.680  0.00  0.00    +0.000 OA
BRANCH  19  21
ATOM     21  O   UNL     1      -4.881  12.210  22.618  0.00  0.00    +0.000 OA
BRANCH  21  23
ATOM     22  C   UNL     1      -6.873  12.746  21.435  0.00  0.00    +0.000 C 
ATOM     23  C   UNL     1      -6.100  12.951  22.727  0.00  0.00    +0.000 C 
ENDBRANCH  21  23
ENDBRANCH  19  21
ENDBRANCH  12  19
ENDBRANCH   1  15
BRANCH   2  24
ATOM     24  C   UNL     1       0.219  12.277  18.677  0.00  0.00    +0.000 A 
ATOM     25  C   UNL     1      -0.974  12.746  18.117  0.00  0.00    +0.000 A 
ATOM     26  C   UNL     1      -1.940  11.840  17.672  0.00  0.00    +0.000 A 
ATOM     27  C   UNL     1      -1.712  10.463  17.740  0.00  0.00    +0.000 A 
ATOM     28  C   UNL     1      -0.505   9.992  18.257  0.00  0.00    +0.000 A 
ATOM     29  C   UNL     1       0.459  10.897  18.717  0.00  0.00    +0.000 A 
BRANCH  27  30
ATOM     30  O   UNL     1      -2.755   9.682  17.328  0.00  0.00    +0.000 OA
ATOM     31  C   UNL     1      -3.001   9.664  15.927  0.00  0.00    +0.000 C 
ENDBRANCH  27  30
ENDBRANCH   2  24
BRANCH   8  32
ATOM     32  O   UNL     1       4.958  17.232  22.564  0.00  0.00    +0.000 OA
ATOM     33  C   UNL     1       6.019  16.677  23.330  0.00  0.00    +0.000 C 
ENDBRANCH   8  32
BRANCH   9  34
ATOM     34  O   UNL     1       2.434  16.815  23.945  0.00  0.00    +0.000 OA
ATOM     35  C   UNL     1       1.146  17.397  24.051  0.00  0.00    +0.000 C 
ENDBRANCH   9  34
TORSDOF 8
ENDMDL
MODEL 5
REMARK VINA RESULT:      -5.8      3.206      5.558
REMARK  Name = 
REMARK  12 active torsions:
REMARK  status: ('A' for Active; 'I' for Inactive)
REMARK    1  A    between atoms: C_1  and  C_2
REMARK    2  A    between atoms: C_2  and  O_3
REMARK    3  A    between atoms: O_3  and  C_4
REMARK    4  A    between atoms: C_4  and  C_6
REMARK    5  A    between atoms: C_9  and  C_10
REMARK    6  A    between atoms: C_11  and  C_12
REMARK    7  A    between atoms: C_15  and  O_16
REMARK    8  A    between atoms: O_16  and  C_17
REMARK    9  A    between atoms: C_25  and  O_26
REMARK   10  A    between atoms: O_26  and  C_27
REMARK   11  A    between atoms: C_28  and  O_29
REMARK   12  A    between atoms: O_29  and  C_30
REMARK                            x       y       z     vdW  Elec       q    Type
REMARK                         _______ _______ _______ _____ _____    ______ ____
ROOT
ATOM      1  C   UNL     1      -2.038  13.860  21.064  0.00  0.00    +0.000 A 
ATOM      2  C   UNL     1      -1.314  14.985  20.862  0.00  0.00    +0.000 A 
ATOM      3  O   UNL     1      -1.845  16.287  20.970  0.00  0.00    +0.000 OA
ATOM      4  C   UNL     1      -3.138  16.520  21.332  0.00  0.00    +0.000 A 
ATOM      5  O   UNL     1      -3.582  17.648  21.485  0.00  0.00    +0.000 OA
ATOM      6  C   UNL     1      -3.998  15.327  21.521  0.00  0.00    +0.000 A 
ATOM      7  C   UNL     1      -5.355  15.512  21.843  0.00  0.00    +0.000 A 
ATOM      8  C   UNL     1      -6.215  14.418  22.016  0.00  0.00    +0.000 A 
ATOM      9  C   UNL     1      -5.695  13.123  21.856  0.00  0.00    +0.000 A 
ATOM     10  C   UNL     1      -4.335  12.956  21.546  0.00  0.00    +0.000 A 
ATOM     11  C   UNL     1      -3.468  14.048  21.378  0.00  0.00    +0.000 A 
ENDROOT
BRANCH   1  15
ATOM     12  C   UNL     1      -0.125  10.029  20.846  0.00  0.00    +0.000 A 
ATOM     13  C   UNL     1      -0.160  10.728  22.060  0.00  0.00    +0.000 A 
ATOM     14  C   UNL     1      -0.788  11.974  22.131  0.00  0.00    +0.000 A 
ATOM     15  C   UNL     1      -1.378  12.534  20.987  0.00  0.00    +0.000 A 
ATOM     16  C   UNL     1      -1.352  11.824  19.781  0.00  0.00    +0.000 A 
ATOM     17  C   UNL     1      -0.734  10.579  19.719  0.00  0.00    +0.000 A 
ATOM     18  F   UNL     1      -0.763   9.917  18.553  0.00  0.00    +0.000 F 
BRANCH  12  19
ATOM     19  C   UNL     1       0.613   8.755  20.790  0.00  0.00    +0.000 C 
ATOM     20  O   UNL     1       0.318   7.778  21.458  0.00  0.00    +0.000 OA
BRANCH  19  21
ATOM     21  O   UNL     1       1.762   8.948  20.099  0.00  0.00    +0.000 OA
BRANCH  21  23
ATOM     22  C   UNL     1       2.121   8.597  17.774  0.00  0.00    +0.000 C 
ATOM     23  C   UNL     1       2.076   7.934  19.141  0.00  0.00    +0.000 C 
ENDBRANCH  21  23
ENDBRANCH  19  21
ENDBRANCH  12  19
ENDBRANCH   1  15
BRANCH   2  24
ATOM     24  C   UNL     1       0.125  14.975  20.540  0.00  0.00    +0.000 A 
ATOM     25  C   UNL     1       0.559  14.903  19.211  0.00  0.00    +0.000 A 
ATOM     26  C   UNL     1       1.913  14.702  18.929  0.00  0.00    +0.000 A 
ATOM     27  C   UNL     1       2.851  14.616  19.959  0.00  0.00    +0.000 A 
ATOM     28  C   UNL     1       2.430  14.731  21.284  0.00  0.00    +0.000 A 
ATOM     29  C   UNL     1       1.072  14.916  21.571  0.00  0.00    +0.000 A 
BRANCH  27  30
ATOM     30  O   UNL     1       4.133  14.361  19.556  0.00  0.00    +0.000 OA
ATOM     31  C   UNL     1       4.444  14.724  18.216  0.00  0.00    +0.000 C 
ENDBRANCH  27  30
ENDBRANCH   2  24
BRANCH   8  32
ATOM     32  O   UNL     1      -7.538  14.549  22.330  0.00  0.00    +0.000 OA
ATOM     33  C   UNL     1      -7.915  15.398  23.404  0.00  0.00    +0.000 C 
ENDBRANCH   8  32
BRANCH   9  34
ATOM     34  O   UNL     1      -6.349  11.922  21.957  0.00  0.00    +0.000 OA
ATOM     35  C   UNL     1      -7.127  11.465  20.864  0.00  0.00    +0.000 C 
ENDBRANCH   9  34
TORSDOF 8
ENDMDL
MODEL 6
REMARK VINA RESULT:      -5.7      3.885      4.719
REMARK  Name = 
REMARK  12 active torsions:
REMARK  status: ('A' for Active; 'I' for Inactive)
REMARK    1  A    between atoms: C_1  and  C_2
REMARK    2  A    between atoms: C_2  and  O_3
REMARK    3  A    between atoms: O_3  and  C_4
REMARK    4  A    between atoms: C_4  and  C_6
REMARK    5  A    between atoms: C_9  and  C_10
REMARK    6  A    between atoms: C_11  and  C_12
REMARK    7  A    between atoms: C_15  and  O_16
REMARK    8  A    between atoms: O_16  and  C_17
REMARK    9  A    between atoms: C_25  and  O_26
REMARK   10  A    between atoms: O_26  and  C_27
REMARK   11  A    between atoms: C_28  and  O_29
REMARK   12  A    between atoms: O_29  and  C_30
REMARK                            x       y       z     vdW  Elec       q    Type
REMARK                         _______ _______ _______ _____ _____    ______ ____
ROOT
ATOM      1  C   UNL     1      -1.865  13.458  22.243  0.00  0.00    +0.000 A 
ATOM      2  C   UNL     1      -1.987  12.174  22.655  0.00  0.00    +0.000 A 
ATOM      3  O   UNL     1      -3.031  11.715  23.484  0.00  0.00    +0.000 OA
ATOM      4  C   UNL     1      -4.037  12.530  23.910  0.00  0.00    +0.000 A 
ATOM      5  O   UNL     1      -4.975  12.119  24.578  0.00  0.00    +0.000 OA
ATOM      6  C   UNL     1      -3.935  13.960  23.533  0.00  0.00    +0.000 A 
ATOM      7  C   UNL     1      -4.919  14.856  23.992  0.00  0.00    +0.000 A 
ATOM      8  C   UNL     1      -4.860  16.221  23.679  0.00  0.00    +0.000 A 
ATOM      9  C   UNL     1      -3.790  16.685  22.896  0.00  0.00    +0.000 A 
ATOM     10  C   UNL     1      -2.823  15.775  22.436  0.00  0.00    +0.000 A 
ATOM     11  C   UNL     1      -2.881  14.406  22.742  0.00  0.00    +0.000 A 
ENDROOT
BRANCH   1  15
ATOM     12  C   UNL     1       1.310  14.545  19.575  0.00  0.00    +0.000 A 
ATOM     13  C   UNL     1       0.017  14.334  19.078  0.00  0.00    +0.000 A 
ATOM     14  C   UNL     1      -1.018  13.985  19.949  0.00  0.00    +0.000 A 
ATOM     15  C   UNL     1      -0.766  13.835  21.322  0.00  0.00    +0.000 A 
ATOM     16  C   UNL     1       0.525  14.062  21.814  0.00  0.00    +0.000 A 
ATOM     17  C   UNL     1       1.549  14.420  20.942  0.00  0.00    +0.000 A 
ATOM     18  F   UNL     1       2.763  14.662  21.459  0.00  0.00    +0.000 F 
BRANCH  12  19
ATOM     19  C   UNL     1       2.391  14.836  18.617  0.00  0.00    +0.000 C 
ATOM     20  O   UNL     1       3.112  13.976  18.137  0.00  0.00    +0.000 OA
BRANCH  19  21
ATOM     21  O   UNL     1       2.588  16.175  18.577  0.00  0.00    +0.000 OA
BRANCH  21  23
ATOM     22  C   UNL     1       4.398  17.053  19.847  0.00  0.00    +0.000 C 
ATOM     23  C   UNL     1       3.953  16.589  18.470  0.00  0.00    +0.000 C 
ENDBRANCH  21  23
ENDBRANCH  19  21
ENDBRANCH  12  19
ENDBRANCH   1  15
BRANCH   2  24
ATOM     24  C   UNL     1      -1.059  11.102  22.250  0.00  0.00    +0.000 A 
ATOM     25  C   UNL     1      -0.885  10.780  20.900  0.00  0.00    +0.000 A 
ATOM     26  C   UNL     1      -0.155   9.644  20.541  0.00  0.00    +0.000 A 
ATOM     27  C   UNL     1       0.446   8.845  21.516  0.00  0.00    +0.000 A 
ATOM     28  C   UNL     1       0.313   9.187  22.862  0.00  0.00    +0.000 A 
ATOM     29  C   UNL     1      -0.431  10.316  23.226  0.00  0.00    +0.000 A 
BRANCH  27  30
ATOM     30  O   UNL     1       1.084   7.733  21.041  0.00  0.00    +0.000 OA
ATOM     31  C   UNL     1       1.896   7.927  19.890  0.00  0.00    +0.000 C 
ENDBRANCH  27  30
ENDBRANCH   2  24
BRANCH   8  32
ATOM     32  O   UNL     1      -5.792  17.127  24.100  0.00  0.00    +0.000 OA
ATOM     33  C   UNL     1      -6.957  17.338  23.316  0.00  0.00    +0.000 C 
ENDBRANCH   8  32
BRANCH   9  34
ATOM     34  O   UNL     1      -3.523  17.967  22.488  0.00  0.00    +0.000 OA
ATOM     35  C   UNL     1      -3.865  18.358  21.169  0.00  0.00    +0.000 C 
ENDBRANCH   9  34
TORSDOF 8
ENDMDL
MODEL 7
REMARK VINA RESULT:      -5.7      2.895      8.550
REMARK  Name = 
REMARK  12 active torsions:
REMARK  status: ('A' for Active; 'I' for Inactive)
REMARK    1  A    between atoms: C_1  and  C_2
REMARK    2  A    between atoms: C_2  and  O_3
REMARK    3  A    between atoms: O_3  and  C_4
REMARK    4  A    between atoms: C_4  and  C_6
REMARK    5  A    between atoms: C_9  and  C_10
REMARK    6  A    between atoms: C_11  and  C_12
REMARK    7  A    between atoms: C_15  and  O_16
REMARK    8  A    between atoms: O_16  and  C_17
REMARK    9  A    between atoms: C_25  and  O_26
REMARK   10  A    between atoms: O_26  and  C_27
REMARK   11  A    between atoms: C_28  and  O_29
REMARK   12  A    between atoms: O_29  and  C_30
REMARK                            x       y       z     vdW  Elec       q    Type
REMARK                         _______ _______ _______ _____ _____    ______ ____
ROOT
ATOM      1  C   UNL     1       0.876  14.760  20.657  0.00  0.00    +0.000 A 
ATOM      2  C   UNL     1       0.194  15.219  21.733  0.00  0.00    +0.000 A 
ATOM      3  O   UNL     1       0.559  16.374  22.455  0.00  0.00    +0.000 OA
ATOM      4  C   UNL     1       1.619  17.154  22.098  0.00  0.00    +0.000 A 
ATOM      5  O   UNL     1       1.899  18.188  22.686  0.00  0.00    +0.000 OA
ATOM      6  C   UNL     1       2.436  16.678  20.956  0.00  0.00    +0.000 A 
ATOM      7  C   UNL     1       3.573  17.416  20.579  0.00  0.00    +0.000 A 
ATOM      8  C   UNL     1       4.389  17.001  19.518  0.00  0.00    +0.000 A 
ATOM      9  C   UNL     1       4.052  15.821  18.834  0.00  0.00    +0.000 A 
ATOM     10  C   UNL     1       2.907  15.103  19.215  0.00  0.00    +0.000 A 
ATOM     11  C   UNL     1       2.083  15.518  20.273  0.00  0.00    +0.000 A 
ENDROOT
BRANCH   1  15
ATOM     12  C   UNL     1      -0.561  11.321  18.538  0.00  0.00    +0.000 A 
ATOM     13  C   UNL     1      -0.991  12.603  18.168  0.00  0.00    +0.000 A 
ATOM     14  C   UNL     1      -0.518  13.723  18.857  0.00  0.00    +0.000 A 
ATOM     15  C   UNL     1       0.381  13.569  19.924  0.00  0.00    +0.000 A 
ATOM     16  C   UNL     1       0.816  12.288  20.278  0.00  0.00    +0.000 A 
ATOM     17  C   UNL     1       0.350  11.176  19.582  0.00  0.00    +0.000 A 
ATOM     18  F   UNL     1       0.820   9.970  19.930  0.00  0.00    +0.000 F 
BRANCH  12  19
ATOM     19  C   UNL     1      -1.140  10.159  17.841  0.00  0.00    +0.000 C 
ATOM     20  O   UNL     1      -0.468   9.300  17.294  0.00  0.00    +0.000 OA
BRANCH  19  21
ATOM     21  O   UNL     1      -2.474  10.353  17.707  0.00  0.00    +0.000 OA
BRANCH  21  23
ATOM     22  C   UNL     1      -2.977  10.868  15.440  0.00  0.00    +0.000 C 
ATOM     23  C   UNL     1      -3.056   9.803  16.521  0.00  0.00    +0.000 C 
ENDBRANCH  21  23
ENDBRANCH  19  21
ENDBRANCH  12  19
ENDBRANCH   1  15
BRANCH   2  24
ATOM     24  C   UNL     1      -1.031  14.581  22.248  0.00  0.00    +0.000 A 
ATOM     25  C   UNL     1      -0.955  13.477  23.105  0.00  0.00    +0.000 A 
ATOM     26  C   UNL     1      -2.112  12.767  23.433  0.00  0.00    +0.000 A 
ATOM     27  C   UNL     1      -3.359  13.171  22.950  0.00  0.00    +0.000 A 
ATOM     28  C   UNL     1      -3.446  14.296  22.131  0.00  0.00    +0.000 A 
ATOM     29  C   UNL     1      -2.286  15.002  21.787  0.00  0.00    +0.000 A 
BRANCH  27  30
ATOM     30  O   UNL     1      -4.404  12.360  23.295  0.00  0.00    +0.000 OA
ATOM     31  C   UNL     1      -5.526  13.010  23.880  0.00  0.00    +0.000 C 
ENDBRANCH  27  30
ENDBRANCH   2  24
BRANCH   8  32
ATOM     32  O   UNL     1       5.501  17.685  19.116  0.00  0.00    +0.000 OA
ATOM     33  C   UNL     1       6.628  17.743  19.977  0.00  0.00    +0.000 C 
ENDBRANCH   8  32
BRANCH   9  34
ATOM     34  O   UNL     1       4.709  15.223  17.789  0.00  0.00    +0.000 OA
ATOM     35  C   UNL     1       5.949  14.579  18.032  0.00  0.00    +0.000 C 
ENDBRANCH   9  34
TORSDOF 8
ENDMDL
MODEL 8
REMARK VINA RESULT:      -5.7      3.669      4.627
REMARK  Name = 
REMARK  12 active torsions:
REMARK  status: ('A' for Active; 'I' for Inactive)
REMARK    1  A    between atoms: C_1  and  C_2
REMARK    2  A    between atoms: C_2  and  O_3
REMARK    3  A    between atoms: O_3  and  C_4
REMARK    4  A    between atoms: C_4  and  C_6
REMARK    5  A    between atoms: C_9  and  C_10
REMARK    6  A    between atoms: C_11  and  C_12
REMARK    7  A    between atoms: C_15  and  O_16
REMARK    8  A    between atoms: O_16  and  C_17
REMARK    9  A    between atoms: C_25  and  O_26
REMARK   10  A    between atoms: O_26  and  C_27
REMARK   11  A    between atoms: C_28  and  O_29
REMARK   12  A    between atoms: O_29  and  C_30
REMARK                            x       y       z     vdW  Elec       q    Type
REMARK                         _______ _______ _______ _____ _____    ______ ____
ROOT
ATOM      1  C   UNL     1      -1.179  13.450  22.091  0.00  0.00    +0.000 A 
ATOM      2  C   UNL     1      -1.461  12.128  22.159  0.00  0.00    +0.000 A 
ATOM      3  O   UNL     1      -2.500  11.589  22.946  0.00  0.00    +0.000 OA
ATOM      4  C   UNL     1      -3.340  12.373  23.680  0.00  0.00    +0.000 A 
ATOM      5  O   UNL     1      -4.278  11.912  24.313  0.00  0.00    +0.000 OA
ATOM      6  C   UNL     1      -3.053  13.827  23.686  0.00  0.00    +0.000 A 
ATOM      7  C   UNL     1      -3.857  14.675  24.470  0.00  0.00    +0.000 A 
ATOM      8  C   UNL     1      -3.619  16.055  24.525  0.00  0.00    +0.000 A 
ATOM      9  C   UNL     1      -2.550  16.582  23.780  0.00  0.00    +0.000 A 
ATOM     10  C   UNL     1      -1.765  15.723  22.993  0.00  0.00    +0.000 A 
ATOM     11  C   UNL     1      -2.004  14.341  22.931  0.00  0.00    +0.000 A 
ENDROOT
BRANCH   1  15
ATOM     12  C   UNL     1       1.924  14.833  19.475  0.00  0.00    +0.000 A 
ATOM     13  C   UNL     1       0.587  14.868  19.057  0.00  0.00    +0.000 A 
ATOM     14  C   UNL     1      -0.424  14.422  19.913  0.00  0.00    +0.000 A 
ATOM     15  C   UNL     1      -0.104  13.929  21.188  0.00  0.00    +0.000 A 
ATOM     16  C   UNL     1       1.232  13.910  21.604  0.00  0.00    +0.000 A 
ATOM     17  C   UNL     1       2.233  14.366  20.751  0.00  0.00    +0.000 A 
ATOM     18  F   UNL     1       3.497  14.363  21.202  0.00  0.00    +0.000 F 
BRANCH  12  19
ATOM     19  C   UNL     1       2.969  15.238  18.518  0.00  0.00    +0.000 C 
ATOM     20  O   UNL     1       3.493  14.468  17.730  0.00  0.00    +0.000 OA
BRANCH  19  21
ATOM     21  O   UNL     1       3.394  16.483  18.840  0.00  0.00    +0.000 OA
BRANCH  21  23
ATOM     22  C   UNL     1       5.045  17.528  20.195  0.00  0.00    +0.000 C 
ATOM     23  C   UNL     1       4.809  16.625  18.996  0.00  0.00    +0.000 C 
ENDBRANCH  21  23
ENDBRANCH  19  21
ENDBRANCH  12  19
ENDBRANCH   1  15
BRANCH   2  24
ATOM     24  C   UNL     1      -0.733  11.104  21.386  0.00  0.00    +0.000 A 
ATOM     25  C   UNL     1       0.212  10.279  22.006  0.00  0.00    +0.000 A 
ATOM     26  C   UNL     1       1.027   9.448  21.234  0.00  0.00    +0.000 A 
ATOM     27  C   UNL     1       0.882   9.396  19.846  0.00  0.00    +0.000 A 
ATOM     28  C   UNL     1      -0.089  10.184  19.227  0.00  0.00    +0.000 A 
ATOM     29  C   UNL     1      -0.898  11.029  19.996  0.00  0.00    +0.000 A 
BRANCH  27  30
ATOM     30  O   UNL     1       1.776   8.589  19.199  0.00  0.00    +0.000 OA
ATOM     31  C   UNL     1       1.903   8.801  17.798  0.00  0.00    +0.000 C 
ENDBRANCH  27  30
ENDBRANCH   2  24
BRANCH   8  32
ATOM     32  O   UNL     1      -4.373  16.917  25.270  0.00  0.00    +0.000 OA
ATOM     33  C   UNL     1      -5.495  17.550  24.673  0.00  0.00    +0.000 C 
ENDBRANCH   8  32
BRANCH   9  34
ATOM     34  O   UNL     1      -2.125  17.883  23.700  0.00  0.00    +0.000 OA
ATOM     35  C   UNL     1      -2.407  18.631  22.529  0.00  0.00    +0.000 C 
ENDBRANCH   9  34
TORSDOF 8
ENDMDL
MODEL 9
REMARK VINA RESULT:      -5.7      3.878      4.787
REMARK  Name = 
REMARK  12 active torsions:
REMARK  status: ('A' for Active; 'I' for Inactive)
REMARK    1  A    between atoms: C_1  and  C_2
REMARK    2  A    between atoms: C_2  and  O_3
REMARK    3  A    between atoms: O_3  and  C_4
REMARK    4  A    between atoms: C_4  and  C_6
REMARK    5  A    between atoms: C_9  and  C_10
REMARK    6  A    between atoms: C_11  and  C_12
REMARK    7  A    between atoms: C_15  and  O_16
REMARK    8  A    between atoms: O_16  and  C_17
REMARK    9  A    between atoms: C_25  and  O_26
REMARK   10  A    between atoms: O_26  and  C_27
REMARK   11  A    between atoms: C_28  and  O_29
REMARK   12  A    between atoms: O_29  and  C_30
REMARK                            x       y       z     vdW  Elec       q    Type
REMARK                         _______ _______ _______ _____ _____    ______ ____
ROOT
ATOM      1  C   UNL     1      -1.722  13.361  22.217  0.00  0.00    +0.000 A 
ATOM      2  C   UNL     1      -1.918  12.081  22.609  0.00  0.00    +0.000 A 
ATOM      3  O   UNL     1      -2.965  11.676  23.464  0.00  0.00    +0.000 OA
ATOM      4  C   UNL     1      -3.898  12.550  23.938  0.00  0.00    +0.000 A 
ATOM      5  O   UNL     1      -4.839  12.189  24.629  0.00  0.00    +0.000 OA
ATOM      6  C   UNL     1      -3.709  13.976  23.585  0.00  0.00    +0.000 A 
ATOM      7  C   UNL     1      -4.614  14.928  24.093  0.00  0.00    +0.000 A 
ATOM      8  C   UNL     1      -4.472  16.292  23.803  0.00  0.00    +0.000 A 
ATOM      9  C   UNL     1      -3.398  16.697  22.993  0.00  0.00    +0.000 A 
ATOM     10  C   UNL     1      -2.511  15.734  22.485  0.00  0.00    +0.000 A 
ATOM     11  C   UNL     1      -2.653  14.366  22.767  0.00  0.00    +0.000 A 
ENDROOT
BRANCH   1  15
ATOM     12  C   UNL     1       1.434  14.285  19.465  0.00  0.00    +0.000 A 
ATOM     13  C   UNL     1       0.116  14.164  19.006  0.00  0.00    +0.000 A 
ATOM     14  C   UNL     1      -0.913  13.868  19.905  0.00  0.00    +0.000 A 
ATOM     15  C   UNL     1      -0.629  13.682  21.267  0.00  0.00    +0.000 A 
ATOM     16  C   UNL     1       0.688  13.818  21.721  0.00  0.00    +0.000 A 
ATOM     17  C   UNL     1       1.706  14.124  20.822  0.00  0.00    +0.000 A 
ATOM     18  F   UNL     1       2.948  14.280  21.304  0.00  0.00    +0.000 F 
BRANCH  12  19
ATOM     19  C   UNL     1       2.502  14.521  18.478  0.00  0.00    +0.000 C 
ATOM     20  O   UNL     1       3.431  13.751  18.298  0.00  0.00    +0.000 OA
BRANCH  19  21
ATOM     21  O   UNL     1       2.403  15.793  18.026  0.00  0.00    +0.000 OA
BRANCH  21  23
ATOM     22  C   UNL     1       1.816  17.737  19.264  0.00  0.00    +0.000 C 
ATOM     23  C   UNL     1       2.947  16.794  18.892  0.00  0.00    +0.000 C 
ENDBRANCH  21  23
ENDBRANCH  19  21
ENDBRANCH  12  19
ENDBRANCH   1  15
BRANCH   2  24
ATOM     24  C   UNL     1      -1.079  10.956  22.154  0.00  0.00    +0.000 A 
ATOM     25  C   UNL     1      -0.334  10.205  23.069  0.00  0.00    +0.000 A 
ATOM     26  C   UNL     1       0.599   9.271  22.612  0.00  0.00    +0.000 A 
ATOM     27  C   UNL     1       0.768   9.044  21.244  0.00  0.00    +0.000 A 
ATOM     28  C   UNL     1      -0.003   9.759  20.328  0.00  0.00    +0.000 A 
ATOM     29  C   UNL     1      -0.928  10.707  20.783  0.00  0.00    +0.000 A 
BRANCH  27  30
ATOM     30  O   UNL     1       1.751   8.149  20.923  0.00  0.00    +0.000 OA
ATOM     31  C   UNL     1       1.942   7.910  19.534  0.00  0.00    +0.000 C 
ENDBRANCH  27  30
ENDBRANCH   2  24
BRANCH   8  32
ATOM     32  O   UNL     1      -5.325  17.250  24.272  0.00  0.00    +0.000 OA
ATOM     33  C   UNL     1      -5.027  17.903  25.497  0.00  0.00    +0.000 C 
ENDBRANCH   8  32
BRANCH   9  34
ATOM     34  O   UNL     1      -3.056  17.966  22.601  0.00  0.00    +0.000 OA
ATOM     35  C   UNL     1      -1.985  18.143  21.690  0.00  0.00    +0.000 C 
ENDBRANCH   9  34
TORSDOF 8
ENDMDL
