MODEL 1
REMARK VINA RESULT:      -7.2      0.000      0.000
REMARK  Name = 
REMARK  10 active torsions:
REMARK  status: ('A' for Active; 'I' for Inactive)
REMARK    1  A    between atoms: C_1  and  C_2
REMARK    2  A    between atoms: C_2  and  C_3
REMARK    3  A    between atoms: C_2  and  C_4
REMARK    4  A    between atoms: C_4  and  C_5
REMARK    5  A    between atoms: C_7  and  C_8
REMARK    6  A    between atoms: C_8  and  N_9
REMARK    7  A    between atoms: N_9  and  S_10
REMARK    8  A    between atoms: S_10  and  C_11
REMARK    9  A    between atoms: N_14  and  C_15
REMARK   10  A    between atoms: C_15  and  C_16
REMARK                            x       y       z     vdW  Elec       q    Type
REMARK                         _______ _______ _______ _____ _____    ______ ____
ROOT
ATOM      1  C   UNL     1       2.479   8.159  17.989  0.00  0.00    +0.000 A 
ATOM      2  N   UNL     1       3.518   8.141  17.088  0.00  0.00    +0.000 NA
ATOM      3  C   UNL     1       4.365   7.253  17.589  0.00  0.00    +0.000 A 
ATOM      4  N   UNL     1       3.785   6.704  18.710  0.00  0.00    +0.000 N 
ATOM      5  N   UNL     1       2.631   7.325  19.018  0.00  0.00    +0.000 NA
ENDROOT
BRANCH   1   6
ATOM      6  C   UNL     1       1.261   9.011  17.843  0.00  0.00    +0.000 C 
BRANCH   6   8
ATOM      7  C   UNL     1       1.609  11.370  18.786  0.00  0.00    +0.000 C 
ATOM      8  C   UNL     1       1.003   9.982  19.012  0.00  0.00    +0.000 C 
ATOM      9  C   UNL     1      -0.492  10.119  19.298  0.00  0.00    +0.000 C 
ENDBRANCH   6   8
ENDBRANCH   1   6
BRANCH   3  10
ATOM     10  C   UNL     1       5.705   6.846  17.054  0.00  0.00    +0.000 C 
BRANCH  10  11
ATOM     11  N   UNL     1       5.543   6.003  15.849  0.00  0.00    +0.000 NA
ATOM     12  H   UNL     1       5.295   6.528  15.012  0.00  0.00    +0.000 HD
BRANCH  11  13
ATOM     13  S   UNL     1       6.756   4.891  15.492  0.00  0.00    +0.000 S 
ATOM     14  C   UNL     1       7.376   4.467  17.106  0.00  0.00    +0.000 C 
ATOM     15  O   UNL     1       6.115   3.733  14.923  0.00  0.00    +0.000 OA
ATOM     16  O   UNL     1       7.795   5.604  14.778  0.00  0.00    +0.000 OA
ENDBRANCH  11  13
ENDBRANCH  10  11
ENDBRANCH   3  10
BRANCH   4  17
ATOM     17  C   UNL     1       4.129   5.485  19.427  0.00  0.00    +0.000 C 
BRANCH  17  18
ATOM     18  C   UNL     1       2.997   4.497  19.495  0.00  0.00    +0.000 A 
ATOM     19  C   UNL     1       2.157   4.502  20.625  0.00  0.00    +0.000 A 
ATOM     20  C   UNL     1       1.027   3.686  20.675  0.00  0.00    +0.000 A 
ATOM     21  C   UNL     1       0.707   2.876  19.592  0.00  0.00    +0.000 A 
ATOM     22  C   UNL     1       1.535   2.850  18.469  0.00  0.00    +0.000 A 
ATOM     23  C   UNL     1       2.688   3.636  18.431  0.00  0.00    +0.000 A 
ATOM     24 CL   UNL     1       3.704   3.483  17.042  0.00  0.00    +0.000 Cl
ENDBRANCH  17  18
ENDBRANCH   4  17
TORSDOF 7
ENDMDL
MODEL 2
REMARK VINA RESULT:      -7.0      1.442      1.841
REMARK  Name = 
REMARK  10 active torsions:
REMARK  status: ('A' for Active; 'I' for Inactive)
REMARK    1  A    between atoms: C_1  and  C_2
REMARK    2  A    between atoms: C_2  and  C_3
REMARK    3  A    between atoms: C_2  and  C_4
REMARK    4  A    between atoms: C_4  and  C_5
REMARK    5  A    between atoms: C_7  and  C_8
REMARK    6  A    between atoms: C_8  and  N_9
REMARK    7  A    between atoms: N_9  and  S_10
REMARK    8  A    between atoms: S_10  and  C_11
REMARK    9  A    between atoms: N_14  and  C_15
REMARK   10  A    between atoms: C_15  and  C_16
REMARK                            x       y       z     vdW  Elec       q    Type
REMARK                         _______ _______ _______ _____ _____    ______ ____
ROOT
ATOM      1  C   UNL     1       2.752   7.752  17.981  0.00  0.00    +0.000 A 
ATOM      2  N   UNL     1       3.912   7.810  17.245  0.00  0.00    +0.000 NA
ATOM      3  C   UNL     1       4.697   6.903  17.807  0.00  0.00    +0.000 A 
ATOM      4  N   UNL     1       3.972   6.269  18.791  0.00  0.00    +0.000 N 
ATOM      5  N   UNL     1       2.770   6.852  18.964  0.00  0.00    +0.000 NA
ENDROOT
BRANCH   1   6
ATOM      6  C   UNL     1       1.548   8.593  17.710  0.00  0.00    +0.000 C 
BRANCH   6   8
ATOM      7  C   UNL     1       2.172  11.060  18.026  0.00  0.00    +0.000 C 
ATOM      8  C   UNL     1       1.423   9.852  18.593  0.00  0.00    +0.000 C 
ATOM      9  C   UNL     1      -0.041  10.222  18.825  0.00  0.00    +0.000 C 
ENDBRANCH   6   8
ENDBRANCH   1   6
BRANCH   3  10
ATOM     10  C   UNL     1       6.112   6.552  17.452  0.00  0.00    +0.000 C 
BRANCH  10  11
ATOM     11  N   UNL     1       6.239   6.344  15.993  0.00  0.00    +0.000 NA
ATOM     12  H   UNL     1       6.559   7.168  15.488  0.00  0.00    +0.000 HD
BRANCH  11  13
ATOM     13  S   UNL     1       7.071   4.982  15.458  0.00  0.00    +0.000 S 
ATOM     14  C   UNL     1       5.754   3.828  15.135  0.00  0.00    +0.000 C 
ATOM     15  O   UNL     1       7.698   5.331  14.210  0.00  0.00    +0.000 OA
ATOM     16  O   UNL     1       7.846   4.485  16.577  0.00  0.00    +0.000 OA
ENDBRANCH  11  13
ENDBRANCH  10  11
ENDBRANCH   3  10
BRANCH   4  17
ATOM     17  C   UNL     1       4.237   5.010  19.471  0.00  0.00    +0.000 C 
BRANCH  17  18
ATOM     18  C   UNL     1       3.218   3.947  19.167  0.00  0.00    +0.000 A 
ATOM     19  C   UNL     1       3.239   3.326  17.903  0.00  0.00    +0.000 A 
ATOM     20  C   UNL     1       2.390   2.255  17.622  0.00  0.00    +0.000 A 
ATOM     21  C   UNL     1       1.531   1.775  18.603  0.00  0.00    +0.000 A 
ATOM     22  C   UNL     1       1.488   2.385  19.856  0.00  0.00    +0.000 A 
ATOM     23  C   UNL     1       2.307   3.481  20.129  0.00  0.00    +0.000 A 
ATOM     24 CL   UNL     1       2.134   4.234  21.675  0.00  0.00    +0.000 Cl
ENDBRANCH  17  18
ENDBRANCH   4  17
TORSDOF 7
ENDMDL
MODEL 3
REMARK VINA RESULT:      -7.0      3.456      5.641
REMARK  Name = 
REMARK  10 active torsions:
REMARK  status: ('A' for Active; 'I' for Inactive)
REMARK    1  A    between atoms: C_1  and  C_2
REMARK    2  A    between atoms: C_2  and  C_3
REMARK    3  A    between atoms: C_2  and  C_4
REMARK    4  A    between atoms: C_4  and  C_5
REMARK    5  A    between atoms: C_7  and  C_8
REMARK    6  A    between atoms: C_8  and  N_9
REMARK    7  A    between atoms: N_9  and  S_10
REMARK    8  A    between atoms: S_10  and  C_11
REMARK    9  A    between atoms: N_14  and  C_15
REMARK   10  A    between atoms: C_15  and  C_16
REMARK                            x       y       z     vdW  Elec       q    Type
REMARK                         _______ _______ _______ _____ _____    ______ ____
ROOT
ATOM      1  C   UNL     1       5.943   4.458  14.535  0.00  0.00    +0.000 A 
ATOM      2  N   UNL     1       6.054   5.618  15.264  0.00  0.00    +0.000 NA
ATOM      3  C   UNL     1       5.543   5.308  16.446  0.00  0.00    +0.000 A 
ATOM      4  N   UNL     1       5.225   3.968  16.429  0.00  0.00    +0.000 N 
ATOM      5  N   UNL     1       5.398   3.440  15.202  0.00  0.00    +0.000 NA
ENDROOT
BRANCH   1   6
ATOM      6  C   UNL     1       6.406   4.311  13.122  0.00  0.00    +0.000 C 
BRANCH   6   8
ATOM      7  C   UNL     1       4.552   3.403  11.601  0.00  0.00    +0.000 C 
ATOM      8  C   UNL     1       5.835   3.089  12.375  0.00  0.00    +0.000 C 
ATOM      9  C   UNL     1       6.870   2.489  11.424  0.00  0.00    +0.000 C 
ENDBRANCH   6   8
ENDBRANCH   1   6
BRANCH   3  10
ATOM     10  C   UNL     1       5.359   6.197  17.640  0.00  0.00    +0.000 C 
BRANCH  10  11
ATOM     11  N   UNL     1       5.900   5.546  18.854  0.00  0.00    +0.000 NA
ATOM     12  H   UNL     1       5.511   4.622  19.031  0.00  0.00    +0.000 HD
BRANCH  11  13
ATOM     13  S   UNL     1       7.571   5.517  19.057  0.00  0.00    +0.000 S 
ATOM     14  C   UNL     1       8.065   7.101  18.410  0.00  0.00    +0.000 C 
ATOM     15  O   UNL     1       7.825   5.495  20.474  0.00  0.00    +0.000 OA
ATOM     16  O   UNL     1       8.092   4.486  18.182  0.00  0.00    +0.000 OA
ENDBRANCH  11  13
ENDBRANCH  10  11
ENDBRANCH   3  10
BRANCH   4  17
ATOM     17  C   UNL     1       4.951   3.067  17.539  0.00  0.00    +0.000 C 
BRANCH  17  18
ATOM     18  C   UNL     1       3.575   3.244  18.119  0.00  0.00    +0.000 A 
ATOM     19  C   UNL     1       2.561   3.793  17.311  0.00  0.00    +0.000 A 
ATOM     20  C   UNL     1       1.246   3.864  17.770  0.00  0.00    +0.000 A 
ATOM     21  C   UNL     1       0.921   3.366  19.026  0.00  0.00    +0.000 A 
ATOM     22  C   UNL     1       1.915   2.830  19.845  0.00  0.00    +0.000 A 
ATOM     23  C   UNL     1       3.239   2.792  19.405  0.00  0.00    +0.000 A 
ATOM     24 CL   UNL     1       4.423   2.190  20.511  0.00  0.00    +0.000 Cl
ENDBRANCH  17  18
ENDBRANCH   4  17
TORSDOF 7
ENDMDL
MODEL 4
REMARK VINA RESULT:      -7.0      4.352      6.869
REMARK  Name = 
REMARK  10 active torsions:
REMARK  status: ('A' for Active; 'I' for Inactive)
REMARK    1  A    between atoms: C_1  and  C_2
REMARK    2  A    between atoms: C_2  and  C_3
REMARK    3  A    between atoms: C_2  and  C_4
REMARK    4  A    between atoms: C_4  and  C_5
REMARK    5  A    between atoms: C_7  and  C_8
REMARK    6  A    between atoms: C_8  and  N_9
REMARK    7  A    between atoms: N_9  and  S_10
REMARK    8  A    between atoms: S_10  and  C_11
REMARK    9  A    between atoms: N_14  and  C_15
REMARK   10  A    between atoms: C_15  and  C_16
REMARK                            x       y       z     vdW  Elec       q    Type
REMARK                         _______ _______ _______ _____ _____    ______ ____
ROOT
ATOM      1  C   UNL     1       2.846   4.319  20.146  0.00  0.00    +0.000 A 
ATOM      2  N   UNL     1       1.973   5.311  20.525  0.00  0.00    +0.000 NA
ATOM      3  C   UNL     1       2.440   6.398  19.929  0.00  0.00    +0.000 A 
ATOM      4  N   UNL     1       3.510   6.024  19.148  0.00  0.00    +0.000 N 
ATOM      5  N   UNL     1       3.826   4.728  19.340  0.00  0.00    +0.000 NA
ENDROOT
BRANCH   1   6
ATOM      6  C   UNL     1       2.720   2.890  20.564  0.00  0.00    +0.000 C 
BRANCH   6   8
ATOM      7  C   UNL     1       0.920   2.495  18.781  0.00  0.00    +0.000 C 
ATOM      8  C   UNL     1       2.164   1.943  19.482  0.00  0.00    +0.000 C 
ATOM      9  C   UNL     1       3.230   1.608  18.439  0.00  0.00    +0.000 C 
ENDBRANCH   6   8
ENDBRANCH   1   6
BRANCH   3  10
ATOM     10  C   UNL     1       1.916   7.801  20.014  0.00  0.00    +0.000 C 
BRANCH  10  11
ATOM     11  N   UNL     1       1.780   8.213  21.429  0.00  0.00    +0.000 NA
ATOM     12  H   UNL     1       2.609   8.669  21.804  0.00  0.00    +0.000 HD
BRANCH  11  13
ATOM     13  S   UNL     1       0.400   9.070  21.873  0.00  0.00    +0.000 S 
ATOM     14  C   UNL     1       0.247  10.261  20.558  0.00  0.00    +0.000 C 
ATOM     15  O   UNL     1      -0.709   8.154  21.801  0.00  0.00    +0.000 OA
ATOM     16  O   UNL     1       0.712   9.780  23.096  0.00  0.00    +0.000 OA
ENDBRANCH  11  13
ENDBRANCH  10  11
ENDBRANCH   3  10
BRANCH   4  17
ATOM     17  C   UNL     1       4.161   6.742  18.062  0.00  0.00    +0.000 C 
BRANCH  17  18
ATOM     18  C   UNL     1       5.013   5.858  17.194  0.00  0.00    +0.000 A 
ATOM     19  C   UNL     1       4.409   4.779  16.521  0.00  0.00    +0.000 A 
ATOM     20  C   UNL     1       5.138   4.009  15.615  0.00  0.00    +0.000 A 
ATOM     21  C   UNL     1       6.466   4.320  15.349  0.00  0.00    +0.000 A 
ATOM     22  C   UNL     1       7.084   5.378  16.016  0.00  0.00    +0.000 A 
ATOM     23  C   UNL     1       6.370   6.127  16.953  0.00  0.00    +0.000 A 
ATOM     24 CL   UNL     1       7.230   7.366  17.797  0.00  0.00    +0.000 Cl
ENDBRANCH  17  18
ENDBRANCH   4  17
TORSDOF 7
ENDMDL
MODEL 5
REMARK VINA RESULT:      -6.9      2.270      4.600
REMARK  Name = 
REMARK  10 active torsions:
REMARK  status: ('A' for Active; 'I' for Inactive)
REMARK    1  A    between atoms: C_1  and  C_2
REMARK    2  A    between atoms: C_2  and  C_3
REMARK    3  A    between atoms: C_2  and  C_4
REMARK    4  A    between atoms: C_4  and  C_5
REMARK    5  A    between atoms: C_7  and  C_8
REMARK    6  A    between atoms: C_8  and  N_9
REMARK    7  A    between atoms: N_9  and  S_10
REMARK    8  A    between atoms: S_10  and  C_11
REMARK    9  A    between atoms: N_14  and  C_15
REMARK   10  A    between atoms: C_15  and  C_16
REMARK                            x       y       z     vdW  Elec       q    Type
REMARK                         _______ _______ _______ _____ _____    ______ ____
ROOT
ATOM      1  C   UNL     1       2.795   4.348  17.776  0.00  0.00    +0.000 A 
ATOM      2  N   UNL     1       4.137   4.379  17.480  0.00  0.00    +0.000 NA
ATOM      3  C   UNL     1       4.409   5.668  17.341  0.00  0.00    +0.000 A 
ATOM      4  N   UNL     1       3.266   6.374  17.640  0.00  0.00    +0.000 N 
ATOM      5  N   UNL     1       2.219   5.549  17.837  0.00  0.00    +0.000 NA
ENDROOT
BRANCH   1   6
ATOM      6  C   UNL     1       2.025   3.095  18.037  0.00  0.00    +0.000 C 
BRANCH   6   8
ATOM      7  C   UNL     1       3.211   2.815  20.293  0.00  0.00    +0.000 C 
ATOM      8  C   UNL     1       1.891   2.713  19.525  0.00  0.00    +0.000 C 
ATOM      9  C   UNL     1       0.830   3.564  20.222  0.00  0.00    +0.000 C 
ENDBRANCH   6   8
ENDBRANCH   1   6
BRANCH   3  10
ATOM     10  C   UNL     1       5.715   6.306  16.970  0.00  0.00    +0.000 C 
BRANCH  10  11
ATOM     11  N   UNL     1       5.968   6.154  15.521  0.00  0.00    +0.000 NA
ATOM     12  H   UNL     1       6.146   7.035  15.042  0.00  0.00    +0.000 HD
BRANCH  11  13
ATOM     13  S   UNL     1       7.088   4.996  15.031  0.00  0.00    +0.000 S 
ATOM     14  C   UNL     1       6.063   3.793  14.211  0.00  0.00    +0.000 C 
ATOM     15  O   UNL     1       7.943   5.619  14.054  0.00  0.00    +0.000 OA
ATOM     16  O   UNL     1       7.630   4.390  16.229  0.00  0.00    +0.000 OA
ENDBRANCH  11  13
ENDBRANCH  10  11
ENDBRANCH   3  10
BRANCH   4  17
ATOM     17  C   UNL     1       3.105   7.786  17.957  0.00  0.00    +0.000 C 
BRANCH  17  18
ATOM     18  C   UNL     1       2.132   8.035  19.075  0.00  0.00    +0.000 A 
ATOM     19  C   UNL     1       2.109   7.148  20.168  0.00  0.00    +0.000 A 
ATOM     20  C   UNL     1       1.307   7.407  21.279  0.00  0.00    +0.000 A 
ATOM     21  C   UNL     1       0.540   8.565  21.326  0.00  0.00    +0.000 A 
ATOM     22  C   UNL     1       0.541   9.450  20.247  0.00  0.00    +0.000 A 
ATOM     23  C   UNL     1       1.312   9.174  19.117  0.00  0.00    +0.000 A 
ATOM     24 CL   UNL     1       1.193  10.275  17.790  0.00  0.00    +0.000 Cl
ENDBRANCH  17  18
ENDBRANCH   4  17
TORSDOF 7
ENDMDL
MODEL 6
REMARK VINA RESULT:      -6.9      0.879      1.118
REMARK  Name = 
REMARK  10 active torsions:
REMARK  status: ('A' for Active; 'I' for Inactive)
REMARK    1  A    between atoms: C_1  and  C_2
REMARK    2  A    between atoms: C_2  and  C_3
REMARK    3  A    between atoms: C_2  and  C_4
REMARK    4  A    between atoms: C_4  and  C_5
REMARK    5  A    between atoms: C_7  and  C_8
REMARK    6  A    between atoms: C_8  and  N_9
REMARK    7  A    between atoms: N_9  and  S_10
REMARK    8  A    between atoms: S_10  and  C_11
REMARK    9  A    between atoms: N_14  and  C_15
REMARK   10  A    between atoms: C_15  and  C_16
REMARK                            x       y       z     vdW  Elec       q    Type
REMARK                         _______ _______ _______ _____ _____    ______ ____
ROOT
ATOM      1  C   UNL     1       2.303   8.092  18.013  0.00  0.00    +0.000 A 
ATOM      2  N   UNL     1       3.237   8.111  17.003  0.00  0.00    +0.000 NA
ATOM      3  C   UNL     1       4.151   7.234  17.391  0.00  0.00    +0.000 A 
ATOM      4  N   UNL     1       3.709   6.654  18.559  0.00  0.00    +0.000 N 
ATOM      5  N   UNL     1       2.583   7.245  19.003  0.00  0.00    +0.000 NA
ENDROOT
BRANCH   1   6
ATOM      6  C   UNL     1       1.059   8.920  18.017  0.00  0.00    +0.000 C 
BRANCH   6   8
ATOM      7  C   UNL     1       1.613  11.295  18.808  0.00  0.00    +0.000 C 
ATOM      8  C   UNL     1       0.969   9.951  19.159  0.00  0.00    +0.000 C 
ATOM      9  C   UNL     1      -0.480  10.177  19.588  0.00  0.00    +0.000 C 
ENDBRANCH   6   8
ENDBRANCH   1   6
BRANCH   3  10
ATOM     10  C   UNL     1       5.432   6.865  16.705  0.00  0.00    +0.000 C 
BRANCH  10  11
ATOM     11  N   UNL     1       5.193   5.793  15.713  0.00  0.00    +0.000 NA
ATOM     12  H   UNL     1       4.733   6.117  14.864  0.00  0.00    +0.000 HD
BRANCH  11  13
ATOM     13  S   UNL     1       6.477   4.778  15.321  0.00  0.00    +0.000 S 
ATOM     14  C   UNL     1       5.927   4.031  13.802  0.00  0.00    +0.000 C 
ATOM     15  O   UNL     1       7.612   5.619  15.040  0.00  0.00    +0.000 OA
ATOM     16  O   UNL     1       6.536   3.749  16.339  0.00  0.00    +0.000 OA
ENDBRANCH  11  13
ENDBRANCH  10  11
ENDBRANCH   3  10
BRANCH   4  17
ATOM     17  C   UNL     1       4.153   5.431  19.211  0.00  0.00    +0.000 C 
BRANCH  17  18
ATOM     18  C   UNL     1       3.032   4.473  19.503  0.00  0.00    +0.000 A 
ATOM     19  C   UNL     1       2.484   4.441  20.800  0.00  0.00    +0.000 A 
ATOM     20  C   UNL     1       1.368   3.655  21.082  0.00  0.00    +0.000 A 
ATOM     21  C   UNL     1       0.768   2.913  20.071  0.00  0.00    +0.000 A 
ATOM     22  C   UNL     1       1.304   2.923  18.783  0.00  0.00    +0.000 A 
ATOM     23  C   UNL     1       2.444   3.678  18.506  0.00  0.00    +0.000 A 
ATOM     24 CL   UNL     1       3.095   3.572  16.909  0.00  0.00    +0.000 Cl
ENDBRANCH  17  18
ENDBRANCH   4  17
TORSDOF 7
ENDMDL
MODEL 7
REMARK VINA RESULT:      -6.8      3.010      4.754
REMARK  Name = 
REMARK  10 active torsions:
REMARK  status: ('A' for Active; 'I' for Inactive)
REMARK    1  A    between atoms: C_1  and  C_2
REMARK    2  A    between atoms: C_2  and  C_3
REMARK    3  A    between atoms: C_2  and  C_4
REMARK    4  A    between atoms: C_4  and  C_5
REMARK    5  A    between atoms: C_7  and  C_8
REMARK    6  A    between atoms: C_8  and  N_9
REMARK    7  A    between atoms: N_9  and  S_10
REMARK    8  A    between atoms: S_10  and  C_11
REMARK    9  A    between atoms: N_14  and  C_15
REMARK   10  A    between atoms: C_15  and  C_16
REMARK                            x       y       z     vdW  Elec       q    Type
REMARK                         _______ _______ _______ _____ _____    ______ ____
ROOT
ATOM      1  C   UNL     1       2.509   7.791  18.492  0.00  0.00    +0.000 A 
ATOM      2  N   UNL     1       1.786   7.167  19.481  0.00  0.00    +0.000 NA
ATOM      3  C   UNL     1       2.484   6.074  19.751  0.00  0.00    +0.000 A 
ATOM      4  N   UNL     1       3.635   6.112  18.997  0.00  0.00    +0.000 N 
ATOM      5  N   UNL     1       3.623   7.150  18.139  0.00  0.00    +0.000 NA
ENDROOT
BRANCH   1   6
ATOM      6  C   UNL     1       2.119   9.090  17.865  0.00  0.00    +0.000 C 
BRANCH   6   8
ATOM      7  C   UNL     1       1.408  11.336  18.875  0.00  0.00    +0.000 C 
ATOM      8  C   UNL     1       1.028   9.875  18.621  0.00  0.00    +0.000 C 
ATOM      9  C   UNL     1      -0.308   9.816  17.882  0.00  0.00    +0.000 C 
ENDBRANCH   6   8
ENDBRANCH   1   6
BRANCH   3  10
ATOM     10  C   UNL     1       2.156   4.980  20.724  0.00  0.00    +0.000 C 
BRANCH  10  11
ATOM     11  N   UNL     1       1.026   4.169  20.221  0.00  0.00    +0.000 NA
ATOM     12  H   UNL     1       0.203   4.718  19.978  0.00  0.00    +0.000 HD
BRANCH  11  13
ATOM     13  S   UNL     1       1.339   3.036  19.016  0.00  0.00    +0.000 S 
ATOM     14  C   UNL     1       1.316   4.031  17.539  0.00  0.00    +0.000 C 
ATOM     15  O   UNL     1       2.678   2.551  19.228  0.00  0.00    +0.000 OA
ATOM     16  O   UNL     1       0.208   2.132  18.972  0.00  0.00    +0.000 OA
ENDBRANCH  11  13
ENDBRANCH  10  11
ENDBRANCH   3  10
BRANCH   4  17
ATOM     17  C   UNL     1       4.867   5.352  19.148  0.00  0.00    +0.000 C 
BRANCH  17  18
ATOM     18  C   UNL     1       5.507   4.993  17.835  0.00  0.00    +0.000 A 
ATOM     19  C   UNL     1       4.801   4.170  16.937  0.00  0.00    +0.000 A 
ATOM     20  C   UNL     1       5.305   3.910  15.663  0.00  0.00    +0.000 A 
ATOM     21  C   UNL     1       6.504   4.488  15.260  0.00  0.00    +0.000 A 
ATOM     22  C   UNL     1       7.223   5.296  16.141  0.00  0.00    +0.000 A 
ATOM     23  C   UNL     1       6.741   5.527  17.431  0.00  0.00    +0.000 A 
ATOM     24 CL   UNL     1       7.730   6.468  18.489  0.00  0.00    +0.000 Cl
ENDBRANCH  17  18
ENDBRANCH   4  17
TORSDOF 7
ENDMDL
MODEL 8
REMARK VINA RESULT:      -6.8      4.280      6.808
REMARK  Name = 
REMARK  10 active torsions:
REMARK  status: ('A' for Active; 'I' for Inactive)
REMARK    1  A    between atoms: C_1  and  C_2
REMARK    2  A    between atoms: C_2  and  C_3
REMARK    3  A    between atoms: C_2  and  C_4
REMARK    4  A    between atoms: C_4  and  C_5
REMARK    5  A    between atoms: C_7  and  C_8
REMARK    6  A    between atoms: C_8  and  N_9
REMARK    7  A    between atoms: N_9  and  S_10
REMARK    8  A    between atoms: S_10  and  C_11
REMARK    9  A    between atoms: N_14  and  C_15
REMARK   10  A    between atoms: C_15  and  C_16
REMARK                            x       y       z     vdW  Elec       q    Type
REMARK                         _______ _______ _______ _____ _____    ______ ____
ROOT
ATOM      1  C   UNL     1       2.666   4.265  20.276  0.00  0.00    +0.000 A 
ATOM      2  N   UNL     1       1.773   5.298  20.435  0.00  0.00    +0.000 NA
ATOM      3  C   UNL     1       2.404   6.351  19.938  0.00  0.00    +0.000 A 
ATOM      4  N   UNL     1       3.603   5.917  19.418  0.00  0.00    +0.000 N 
ATOM      5  N   UNL     1       3.815   4.617  19.698  0.00  0.00    +0.000 NA
ENDROOT
BRANCH   1   6
ATOM      6  C   UNL     1       2.393   2.853  20.681  0.00  0.00    +0.000 C 
BRANCH   6   8
ATOM      7  C   UNL     1       0.763   2.406  18.752  0.00  0.00    +0.000 C 
ATOM      8  C   UNL     1       1.988   1.913  19.528  0.00  0.00    +0.000 C 
ATOM      9  C   UNL     1       3.149   1.691  18.561  0.00  0.00    +0.000 C 
ENDBRANCH   6   8
ENDBRANCH   1   6
BRANCH   3  10
ATOM     10  C   UNL     1       1.933   7.774  19.881  0.00  0.00    +0.000 C 
BRANCH  10  11
ATOM     11  N   UNL     1       1.581   8.253  21.235  0.00  0.00    +0.000 NA
ATOM     12  H   UNL     1       2.385   8.369  21.850  0.00  0.00    +0.000 HD
BRANCH  11  13
ATOM     13  S   UNL     1       0.561   9.587  21.363  0.00  0.00    +0.000 S 
ATOM     14  C   UNL     1      -0.476   9.148  22.742  0.00  0.00    +0.000 C 
ATOM     15  O   UNL     1       1.380  10.711  21.737  0.00  0.00    +0.000 OA
ATOM     16  O   UNL     1      -0.258   9.616  20.169  0.00  0.00    +0.000 OA
ENDBRANCH  11  13
ENDBRANCH  10  11
ENDBRANCH   3  10
BRANCH   4  17
ATOM     17  C   UNL     1       4.505   6.582  18.490  0.00  0.00    +0.000 C 
BRANCH  17  18
ATOM     18  C   UNL     1       5.235   5.628  17.586  0.00  0.00    +0.000 A 
ATOM     19  C   UNL     1       4.541   5.044  16.510  0.00  0.00    +0.000 A 
ATOM     20  C   UNL     1       5.209   4.247  15.580  0.00  0.00    +0.000 A 
ATOM     21  C   UNL     1       6.579   4.045  15.696  0.00  0.00    +0.000 A 
ATOM     22  C   UNL     1       7.281   4.606  16.763  0.00  0.00    +0.000 A 
ATOM     23  C   UNL     1       6.610   5.372  17.718  0.00  0.00    +0.000 A 
ATOM     24 CL   UNL     1       7.534   5.961  19.054  0.00  0.00    +0.000 Cl
ENDBRANCH  17  18
ENDBRANCH   4  17
TORSDOF 7
ENDMDL
MODEL 9
REMARK VINA RESULT:      -6.8      2.267      4.669
REMARK  Name = 
REMARK  10 active torsions:
REMARK  status: ('A' for Active; 'I' for Inactive)
REMARK    1  A    between atoms: C_1  and  C_2
REMARK    2  A    between atoms: C_2  and  C_3
REMARK    3  A    between atoms: C_2  and  C_4
REMARK    4  A    between atoms: C_4  and  C_5
REMARK    5  A    between atoms: C_7  and  C_8
REMARK    6  A    between atoms: C_8  and  N_9
REMARK    7  A    between atoms: N_9  and  S_10
REMARK    8  A    between atoms: S_10  and  C_11
REMARK    9  A    between atoms: N_14  and  C_15
REMARK   10  A    between atoms: C_15  and  C_16
REMARK                            x       y       z     vdW  Elec       q    Type
REMARK                         _______ _______ _______ _____ _____    ______ ____
ROOT
ATOM      1  C   UNL     1       3.313   3.430  18.655  0.00  0.00    +0.000 A 
ATOM      2  N   UNL     1       4.681   3.555  18.727  0.00  0.00    +0.000 NA
ATOM      3  C   UNL     1       4.915   4.792  18.315  0.00  0.00    +0.000 A 
ATOM      4  N   UNL     1       3.700   5.400  18.095  0.00  0.00    +0.000 N 
ATOM      5  N   UNL     1       2.684   4.526  18.227  0.00  0.00    +0.000 NA
ENDROOT
BRANCH   1   6
ATOM      6  C   UNL     1       2.565   2.195  19.037  0.00  0.00    +0.000 C 
BRANCH   6   8
ATOM      7  C   UNL     1       2.586   2.788  21.532  0.00  0.00    +0.000 C 
ATOM      8  C   UNL     1       1.751   2.307  20.342  0.00  0.00    +0.000 C 
ATOM      9  C   UNL     1       0.543   3.226  20.164  0.00  0.00    +0.000 C 
ENDBRANCH   6   8
ENDBRANCH   1   6
BRANCH   3  10
ATOM     10  C   UNL     1       6.238   5.477  18.143  0.00  0.00    +0.000 C 
BRANCH  10  11
ATOM     11  N   UNL     1       6.993   4.864  17.028  0.00  0.00    +0.000 NA
ATOM     12  H   UNL     1       7.036   3.847  17.073  0.00  0.00    +0.000 HD
BRANCH  11  13
ATOM     13  S   UNL     1       6.627   5.356  15.460  0.00  0.00    +0.000 S 
ATOM     14  C   UNL     1       5.628   4.011  14.857  0.00  0.00    +0.000 C 
ATOM     15  O   UNL     1       5.805   6.533  15.566  0.00  0.00    +0.000 OA
ATOM     16  O   UNL     1       7.869   5.370  14.714  0.00  0.00    +0.000 OA
ENDBRANCH  11  13
ENDBRANCH  10  11
ENDBRANCH   3  10
BRANCH   4  17
ATOM     17  C   UNL     1       3.384   6.814  17.956  0.00  0.00    +0.000 C 
BRANCH  17  18
ATOM     18  C   UNL     1       2.431   7.314  19.006  0.00  0.00    +0.000 A 
ATOM     19  C   UNL     1       2.180   6.511  20.135  0.00  0.00    +0.000 A 
ATOM     20  C   UNL     1       1.398   6.987  21.187  0.00  0.00    +0.000 A 
ATOM     21  C   UNL     1       0.879   8.275  21.139  0.00  0.00    +0.000 A 
ATOM     22  C   UNL     1       1.107   9.081  20.023  0.00  0.00    +0.000 A 
ATOM     23  C   UNL     1       1.857   8.595  18.951  0.00  0.00    +0.000 A 
ATOM     24 CL   UNL     1       2.024   9.621  17.571  0.00  0.00    +0.000 Cl
ENDBRANCH  17  18
ENDBRANCH   4  17
TORSDOF 7
ENDMDL
