MODEL 1
REMARK VINA RESULT:      -6.6      0.000      0.000
REMARK  Name = 
REMARK  2 active torsions:
REMARK  status: ('A' for Active; 'I' for Inactive)
REMARK    1  A    between atoms: C_2  and  O_3
REMARK    2  A    between atoms: C_2  and  C_4
REMARK                            x       y       z     vdW  Elec       q    Type
REMARK                         _______ _______ _______ _____ _____    ______ ____
ROOT
ATOM      1  C   UNL     1       6.820   4.563  16.266  0.00  0.00    +0.000 A 
ATOM      2  N   UNL     1       7.871   4.451  17.101  0.00  0.00    +0.000 NA
ATOM      3  O   UNL     1       7.337   4.465  18.380  0.00  0.00    +0.000 OA
ATOM      4  C   UNL     1       5.983   4.574  18.310  0.00  0.00    +0.000 A 
ATOM      5  C   UNL     1       5.105   4.605  19.390  0.00  0.00    +0.000 A 
ATOM      6  C   UNL     1       3.749   4.702  19.066  0.00  0.00    +0.000 A 
ATOM      7 BR   UNL     1       2.471   4.721  20.463  0.00  0.00    +0.000 Br
ATOM      8  C   UNL     1       3.311   4.778  17.740  0.00  0.00    +0.000 A 
ATOM      9  C   UNL     1       4.228   4.755  16.680  0.00  0.00    +0.000 A 
ATOM     10  C   UNL     1       5.597   4.643  16.983  0.00  0.00    +0.000 A 
ENDROOT
BRANCH   1  12
ATOM     11  O   UNL     1       7.675   5.427  14.229  0.00  0.00    +0.000 OA
ATOM     12  C   UNL     1       7.023   4.577  14.823  0.00  0.00    +0.000 C 
BRANCH  12  13
ATOM     13  O   UNL     1       6.407   3.550  14.174  0.00  0.00    +0.000 OA
ATOM     14  H   UNL     1       5.904   3.910  13.411  0.00  0.00    +0.000 HD
ENDBRANCH  12  13
ENDBRANCH   1  12
TORSDOF 2
ENDMDL
MODEL 2
REMARK VINA RESULT:      -6.4      1.126      1.215
REMARK  Name = 
REMARK  2 active torsions:
REMARK  status: ('A' for Active; 'I' for Inactive)
REMARK    1  A    between atoms: C_2  and  O_3
REMARK    2  A    between atoms: C_2  and  C_4
REMARK                            x       y       z     vdW  Elec       q    Type
REMARK                         _______ _______ _______ _____ _____    ______ ____
ROOT
ATOM      1  C   UNL     1       6.264   4.419  17.026  0.00  0.00    +0.000 A 
ATOM      2  N   UNL     1       7.086   4.522  18.087  0.00  0.00    +0.000 NA
ATOM      3  O   UNL     1       6.279   4.365  19.204  0.00  0.00    +0.000 OA
ATOM      4  C   UNL     1       4.993   4.159  18.813  0.00  0.00    +0.000 A 
ATOM      5  C   UNL     1       3.905   3.945  19.655  0.00  0.00    +0.000 A 
ATOM      6  C   UNL     1       2.678   3.736  19.017  0.00  0.00    +0.000 A 
ATOM      7 BR   UNL     1       1.141   3.405  20.072  0.00  0.00    +0.000 Br
ATOM      8  C   UNL     1       2.558   3.758  17.624  0.00  0.00    +0.000 A 
ATOM      9  C   UNL     1       3.677   3.988  16.812  0.00  0.00    +0.000 A 
ATOM     10  C   UNL     1       4.924   4.186  17.432  0.00  0.00    +0.000 A 
ENDROOT
BRANCH   1  12
ATOM     11  O   UNL     1       7.493   5.458  15.283  0.00  0.00    +0.000 OA
ATOM     12  C   UNL     1       6.790   4.533  15.672  0.00  0.00    +0.000 C 
BRANCH  12  13
ATOM     13  O   UNL     1       6.421   3.510  14.853  0.00  0.00    +0.000 OA
ATOM     14  H   UNL     1       7.059   3.448  14.109  0.00  0.00    +0.000 HD
ENDBRANCH  12  13
ENDBRANCH   1  12
TORSDOF 2
ENDMDL
MODEL 3
REMARK VINA RESULT:      -6.3      1.626      1.959
REMARK  Name = 
REMARK  2 active torsions:
REMARK  status: ('A' for Active; 'I' for Inactive)
REMARK    1  A    between atoms: C_2  and  O_3
REMARK    2  A    between atoms: C_2  and  C_4
REMARK                            x       y       z     vdW  Elec       q    Type
REMARK                         _______ _______ _______ _____ _____    ______ ____
ROOT
ATOM      1  C   UNL     1       6.424   4.820  17.527  0.00  0.00    +0.000 A 
ATOM      2  N   UNL     1       7.002   4.797  18.742  0.00  0.00    +0.000 NA
ATOM      3  O   UNL     1       6.043   4.291  19.605  0.00  0.00    +0.000 OA
ATOM      4  C   UNL     1       4.909   4.004  18.911  0.00  0.00    +0.000 A 
ATOM      5  C   UNL     1       3.738   3.465  19.439  0.00  0.00    +0.000 A 
ATOM      6  C   UNL     1       2.708   3.239  18.521  0.00  0.00    +0.000 A 
ATOM      7 BR   UNL     1       1.085   2.479  19.133  0.00  0.00    +0.000 Br
ATOM      8  C   UNL     1       2.847   3.550  17.165  0.00  0.00    +0.000 A 
ATOM      9  C   UNL     1       4.039   4.102  16.674  0.00  0.00    +0.000 A 
ATOM     10  C   UNL     1       5.094   4.325  17.579  0.00  0.00    +0.000 A 
ENDROOT
BRANCH   1  12
ATOM     11  O   UNL     1       7.432   4.611  15.390  0.00  0.00    +0.000 OA
ATOM     12  C   UNL     1       7.164   5.300  16.366  0.00  0.00    +0.000 C 
BRANCH  12  13
ATOM     13  O   UNL     1       7.549   6.602  16.463  0.00  0.00    +0.000 OA
ATOM     14  H   UNL     1       6.935   7.157  15.933  0.00  0.00    +0.000 HD
ENDBRANCH  12  13
ENDBRANCH   1  12
TORSDOF 2
ENDMDL
MODEL 4
REMARK VINA RESULT:      -6.1      1.909      2.174
REMARK  Name = 
REMARK  2 active torsions:
REMARK  status: ('A' for Active; 'I' for Inactive)
REMARK    1  A    between atoms: C_2  and  O_3
REMARK    2  A    between atoms: C_2  and  C_4
REMARK                            x       y       z     vdW  Elec       q    Type
REMARK                         _______ _______ _______ _____ _____    ______ ____
ROOT
ATOM      1  C   UNL     1       6.587   5.689  17.993  0.00  0.00    +0.000 A 
ATOM      2  N   UNL     1       7.186   5.456  19.176  0.00  0.00    +0.000 NA
ATOM      3  O   UNL     1       6.321   4.632  19.879  0.00  0.00    +0.000 OA
ATOM      4  C   UNL     1       5.223   4.368  19.121  0.00  0.00    +0.000 A 
ATOM      5  C   UNL     1       4.147   3.564  19.487  0.00  0.00    +0.000 A 
ATOM      6  C   UNL     1       3.140   3.425  18.527  0.00  0.00    +0.000 A 
ATOM      7 BR   UNL     1       1.647   2.327  18.917  0.00  0.00    +0.000 Br
ATOM      8  C   UNL     1       3.210   4.067  17.287  0.00  0.00    +0.000 A 
ATOM      9  C   UNL     1       4.306   4.877  16.960  0.00  0.00    +0.000 A 
ATOM     10  C   UNL     1       5.338   5.019  17.906  0.00  0.00    +0.000 A 
ENDROOT
BRANCH   1  12
ATOM     11  O   UNL     1       7.486   7.716  17.150  0.00  0.00    +0.000 OA
ATOM     12  C   UNL     1       7.233   6.528  16.991  0.00  0.00    +0.000 C 
BRANCH  12  13
ATOM     13  O   UNL     1       7.529   5.871  15.836  0.00  0.00    +0.000 OA
ATOM     14  H   UNL     1       7.339   4.914  15.954  0.00  0.00    +0.000 HD
ENDBRANCH  12  13
ENDBRANCH   1  12
TORSDOF 2
ENDMDL
MODEL 5
REMARK VINA RESULT:      -6.1      1.861      2.225
REMARK  Name = 
REMARK  2 active torsions:
REMARK  status: ('A' for Active; 'I' for Inactive)
REMARK    1  A    between atoms: C_2  and  O_3
REMARK    2  A    between atoms: C_2  and  C_4
REMARK                            x       y       z     vdW  Elec       q    Type
REMARK                         _______ _______ _______ _____ _____    ______ ____
ROOT
ATOM      1  C   UNL     1       5.524   5.367  15.855  0.00  0.00    +0.000 A 
ATOM      2  N   UNL     1       5.442   6.709  15.924  0.00  0.00    +0.000 NA
ATOM      3  O   UNL     1       4.462   6.977  16.867  0.00  0.00    +0.000 OA
ATOM      4  C   UNL     1       3.973   5.810  17.364  0.00  0.00    +0.000 A 
ATOM      5  C   UNL     1       2.989   5.683  18.341  0.00  0.00    +0.000 A 
ATOM      6  C   UNL     1       2.664   4.373  18.706  0.00  0.00    +0.000 A 
ATOM      7 BR   UNL     1       1.359   4.092  20.049  0.00  0.00    +0.000 Br
ATOM      8  C   UNL     1       3.281   3.267  18.113  0.00  0.00    +0.000 A 
ATOM      9  C   UNL     1       4.260   3.437  17.124  0.00  0.00    +0.000 A 
ATOM     10  C   UNL     1       4.613   4.748  16.752  0.00  0.00    +0.000 A 
ENDROOT
BRANCH   1  12
ATOM     11  O   UNL     1       6.250   3.691  14.341  0.00  0.00    +0.000 OA
ATOM     12  C   UNL     1       6.473   4.730  14.950  0.00  0.00    +0.000 C 
BRANCH  12  13
ATOM     13  O   UNL     1       7.656   5.396  14.842  0.00  0.00    +0.000 OA
ATOM     14  H   UNL     1       7.787   5.947  15.644  0.00  0.00    +0.000 HD
ENDBRANCH  12  13
ENDBRANCH   1  12
TORSDOF 2
ENDMDL
MODEL 6
REMARK VINA RESULT:      -6.0      3.986      5.551
REMARK  Name = 
REMARK  2 active torsions:
REMARK  status: ('A' for Active; 'I' for Inactive)
REMARK    1  A    between atoms: C_2  and  O_3
REMARK    2  A    between atoms: C_2  and  C_4
REMARK                            x       y       z     vdW  Elec       q    Type
REMARK                         _______ _______ _______ _____ _____    ______ ____
ROOT
ATOM      1  C   UNL     1       2.817   3.040  20.426  0.00  0.00    +0.000 A 
ATOM      2  N   UNL     1       3.894   2.271  20.676  0.00  0.00    +0.000 NA
ATOM      3  O   UNL     1       4.877   2.707  19.801  0.00  0.00    +0.000 OA
ATOM      4  C   UNL     1       4.397   3.730  19.046  0.00  0.00    +0.000 A 
ATOM      5  C   UNL     1       5.102   4.431  18.071  0.00  0.00    +0.000 A 
ATOM      6  C   UNL     1       4.399   5.461  17.438  0.00  0.00    +0.000 A 
ATOM      7 BR   UNL     1       5.279   6.495  16.118  0.00  0.00    +0.000 Br
ATOM      8  C   UNL     1       3.070   5.753  17.760  0.00  0.00    +0.000 A 
ATOM      9  C   UNL     1       2.392   5.017  18.741  0.00  0.00    +0.000 A 
ATOM     10  C   UNL     1       3.084   3.985  19.400  0.00  0.00    +0.000 A 
ENDROOT
BRANCH   1  12
ATOM     11  O   UNL     1       1.545   2.539  22.365  0.00  0.00    +0.000 OA
ATOM     12  C   UNL     1       1.585   2.852  21.181  0.00  0.00    +0.000 C 
BRANCH  12  13
ATOM     13  O   UNL     1       0.457   3.048  20.445  0.00  0.00    +0.000 OA
ATOM     14  H   UNL     1       0.323   2.276  19.852  0.00  0.00    +0.000 HD
ENDBRANCH  12  13
ENDBRANCH   1  12
TORSDOF 2
ENDMDL
MODEL 7
REMARK VINA RESULT:      -6.0      3.651      4.529
REMARK  Name = 
REMARK  2 active torsions:
REMARK  status: ('A' for Active; 'I' for Inactive)
REMARK    1  A    between atoms: C_2  and  O_3
REMARK    2  A    between atoms: C_2  and  C_4
REMARK                            x       y       z     vdW  Elec       q    Type
REMARK                         _______ _______ _______ _____ _____    ______ ____
ROOT
ATOM      1  C   UNL     1       3.265   3.187  18.698  0.00  0.00    +0.000 A 
ATOM      2  N   UNL     1       3.969   2.498  19.616  0.00  0.00    +0.000 NA
ATOM      3  O   UNL     1       5.200   3.131  19.697  0.00  0.00    +0.000 OA
ATOM      4  C   UNL     1       5.226   4.192  18.846  0.00  0.00    +0.000 A 
ATOM      5  C   UNL     1       6.289   5.073  18.665  0.00  0.00    +0.000 A 
ATOM      6  C   UNL     1       6.072   6.103  17.745  0.00  0.00    +0.000 A 
ATOM      7 BR   UNL     1       7.446   7.373  17.450  0.00  0.00    +0.000 Br
ATOM      8  C   UNL     1       4.868   6.225  17.045  0.00  0.00    +0.000 A 
ATOM      9  C   UNL     1       3.825   5.311  17.248  0.00  0.00    +0.000 A 
ATOM     10  C   UNL     1       4.017   4.274  18.180  0.00  0.00    +0.000 A 
ENDROOT
BRANCH   1  12
ATOM     11  O   UNL     1       1.087   3.525  17.822  0.00  0.00    +0.000 OA
ATOM     12  C   UNL     1       1.903   2.790  18.363  0.00  0.00    +0.000 C 
BRANCH  12  13
ATOM     13  O   UNL     1       1.603   1.510  18.718  0.00  0.00    +0.000 OA
ATOM     14  H   UNL     1       2.205   1.229  19.443  0.00  0.00    +0.000 HD
ENDBRANCH  12  13
ENDBRANCH   1  12
TORSDOF 2
ENDMDL
MODEL 8
REMARK VINA RESULT:      -6.0      1.666      2.074
REMARK  Name = 
REMARK  2 active torsions:
REMARK  status: ('A' for Active; 'I' for Inactive)
REMARK    1  A    between atoms: C_2  and  O_3
REMARK    2  A    between atoms: C_2  and  C_4
REMARK                            x       y       z     vdW  Elec       q    Type
REMARK                         _______ _______ _______ _____ _____    ______ ____
ROOT
ATOM      1  C   UNL     1       6.319   5.457  17.738  0.00  0.00    +0.000 A 
ATOM      2  N   UNL     1       7.086   4.697  18.542  0.00  0.00    +0.000 NA
ATOM      3  O   UNL     1       6.208   4.055  19.401  0.00  0.00    +0.000 OA
ATOM      4  C   UNL     1       4.931   4.418  19.106  0.00  0.00    +0.000 A 
ATOM      5  C   UNL     1       3.780   3.964  19.746  0.00  0.00    +0.000 A 
ATOM      6  C   UNL     1       2.573   4.467  19.250  0.00  0.00    +0.000 A 
ATOM      7 BR   UNL     1       0.949   3.887  20.032  0.00  0.00    +0.000 Br
ATOM      8  C   UNL     1       2.534   5.378  18.190  0.00  0.00    +0.000 A 
ATOM      9  C   UNL     1       3.716   5.819  17.579  0.00  0.00    +0.000 A 
ATOM     10  C   UNL     1       4.941   5.315  18.053  0.00  0.00    +0.000 A 
ENDROOT
BRANCH   1  12
ATOM     11  O   UNL     1       7.387   5.829  15.653  0.00  0.00    +0.000 OA
ATOM     12  C   UNL     1       6.926   6.276  16.696  0.00  0.00    +0.000 C 
BRANCH  12  13
ATOM     13  O   UNL     1       6.948   7.605  16.989  0.00  0.00    +0.000 OA
ATOM     14  H   UNL     1       6.288   7.789  17.692  0.00  0.00    +0.000 HD
ENDBRANCH  12  13
ENDBRANCH   1  12
TORSDOF 2
ENDMDL
MODEL 9
REMARK VINA RESULT:      -6.0      3.855      5.036
REMARK  Name = 
REMARK  2 active torsions:
REMARK  status: ('A' for Active; 'I' for Inactive)
REMARK    1  A    between atoms: C_2  and  O_3
REMARK    2  A    between atoms: C_2  and  C_4
REMARK                            x       y       z     vdW  Elec       q    Type
REMARK                         _______ _______ _______ _____ _____    ______ ____
ROOT
ATOM      1  C   UNL     1       2.761   3.287  19.331  0.00  0.00    +0.000 A 
ATOM      2  N   UNL     1       3.537   2.411  19.997  0.00  0.00    +0.000 NA
ATOM      3  O   UNL     1       4.838   2.859  19.828  0.00  0.00    +0.000 OA
ATOM      4  C   UNL     1       4.838   3.994  19.080  0.00  0.00    +0.000 A 
ATOM      5  C   UNL     1       5.959   4.738  18.718  0.00  0.00    +0.000 A 
ATOM      6  C   UNL     1       5.705   5.884  17.959  0.00  0.00    +0.000 A 
ATOM      7 BR   UNL     1       7.159   6.981  17.441  0.00  0.00    +0.000 Br
ATOM      8  C   UNL     1       4.409   6.246  17.580  0.00  0.00    +0.000 A 
ATOM      9  C   UNL     1       3.307   5.464  17.956  0.00  0.00    +0.000 A 
ATOM     10  C   UNL     1       3.539   4.314  18.732  0.00  0.00    +0.000 A 
ENDROOT
BRANCH   1  12
ATOM     11  O   UNL     1       0.692   2.674  18.346  0.00  0.00    +0.000 OA
ATOM     12  C   UNL     1       1.314   3.119  19.303  0.00  0.00    +0.000 C 
BRANCH  12  13
ATOM     13  O   UNL     1       0.695   3.513  20.450  0.00  0.00    +0.000 OA
ATOM     14  H   UNL     1      -0.116   4.017  20.219  0.00  0.00    +0.000 HD
ENDBRANCH  12  13
ENDBRANCH   1  12
TORSDOF 2
ENDMDL
