MODEL 1
REMARK VINA RESULT:      -7.5      0.000      0.000
REMARK  Name = 
REMARK  5 active torsions:
REMARK  status: ('A' for Active; 'I' for Inactive)
REMARK    1  A    between atoms: C_1  and  N_2
REMARK    2  A    between atoms: C_5  and  C_6
REMARK    3  A    between atoms: N_8  and  C_9
REMARK    4  A    between atoms: N_8  and  C_14
REMARK    5  A    between atoms: C_9  and  C_10
REMARK                            x       y       z     vdW  Elec       q    Type
REMARK                         _______ _______ _______ _____ _____    ______ ____
ROOT
ATOM      1  C   UNL     1       4.085   4.436  17.129  0.00  0.00    +0.000 C 
ATOM      2  O   UNL     1       3.427   3.557  16.565  0.00  0.00    +0.000 OA
ATOM      3  N   UNL     1       5.448   4.596  16.859  0.00  0.00    +0.000 N 
ENDROOT
BRANCH   1   8
ATOM      4  C   UNL     1       1.445   7.887  20.914  0.00  0.00    +0.000 C 
ATOM      5  N   UNL     1       2.058   7.020  19.918  0.00  0.00    +0.000 N 
ATOM      6  C   UNL     1       2.464   7.538  18.706  0.00  0.00    +0.000 A 
ATOM      7  C   UNL     1       3.063   6.768  17.788  0.00  0.00    +0.000 A 
ATOM      8  C   UNL     1       3.366   5.378  18.074  0.00  0.00    +0.000 A 
ATOM      9  C   UNL     1       2.895   4.833  19.211  0.00  0.00    +0.000 A 
ATOM     10  C   UNL     1       2.204   5.668  20.232  0.00  0.00    +0.000 A 
ATOM     11  O   UNL     1       1.833   5.157  21.281  0.00  0.00    +0.000 OA
ENDBRANCH   1   8
BRANCH   3  12
ATOM     12  C   UNL     1       6.352   5.373  17.623  0.00  0.00    +0.000 A 
ATOM     13  C   UNL     1       6.998   4.822  18.736  0.00  0.00    +0.000 A 
ATOM     14  C   UNL     1       7.970   5.560  19.413  0.00  0.00    +0.000 A 
ATOM     15  C   UNL     1       8.278   6.856  18.999  0.00  0.00    +0.000 A 
ATOM     16  C   UNL     1       7.621   7.409  17.903  0.00  0.00    +0.000 A 
ATOM     17 CL   UNL     1       7.978   9.015  17.405  0.00  0.00    +0.000 Cl
ATOM     18  C   UNL     1       6.671   6.670  17.203  0.00  0.00    +0.000 A 
ENDBRANCH   3  12
BRANCH   3  19
ATOM     19  C   UNL     1       6.066   3.757  15.791  0.00  0.00    +0.000 C 
BRANCH  19  20
ATOM     20  C   UNL     1       6.196   4.372  14.383  0.00  0.00    +0.000 C 
ATOM     21  F   UNL     1       6.002   3.489  13.381  0.00  0.00    +0.000 F 
ATOM     22  F   UNL     1       5.296   5.370  14.205  0.00  0.00    +0.000 F 
ATOM     23  F   UNL     1       7.425   4.918  14.213  0.00  0.00    +0.000 F 
ENDBRANCH  19  20
ENDBRANCH   3  19
TORSDOF 4
ENDMDL
MODEL 2
REMARK VINA RESULT:      -7.5      1.037      1.439
REMARK  Name = 
REMARK  5 active torsions:
REMARK  status: ('A' for Active; 'I' for Inactive)
REMARK    1  A    between atoms: C_1  and  N_2
REMARK    2  A    between atoms: C_5  and  C_6
REMARK    3  A    between atoms: N_8  and  C_9
REMARK    4  A    between atoms: N_8  and  C_14
REMARK    5  A    between atoms: C_9  and  C_10
REMARK                            x       y       z     vdW  Elec       q    Type
REMARK                         _______ _______ _______ _____ _____    ______ ____
ROOT
ATOM      1  C   UNL     1       3.846   4.531  17.306  0.00  0.00    +0.000 C 
ATOM      2  O   UNL     1       3.128   3.686  16.763  0.00  0.00    +0.000 OA
ATOM      3  N   UNL     1       5.199   4.643  16.971  0.00  0.00    +0.000 N 
ENDROOT
BRANCH   1   8
ATOM      4  C   UNL     1       1.314   8.257  20.898  0.00  0.00    +0.000 C 
ATOM      5  N   UNL     1       2.009   7.321  20.028  0.00  0.00    +0.000 N 
ATOM      6  C   UNL     1       2.330   6.060  20.484  0.00  0.00    +0.000 A 
ATOM      7  C   UNL     1       2.938   5.168  19.690  0.00  0.00    +0.000 A 
ATOM      8  C   UNL     1       3.211   5.483  18.300  0.00  0.00    +0.000 A 
ATOM      9  C   UNL     1       2.991   6.737  17.865  0.00  0.00    +0.000 A 
ATOM     10  C   UNL     1       2.340   7.749  18.741  0.00  0.00    +0.000 A 
ATOM     11  O   UNL     1       2.103   8.867  18.302  0.00  0.00    +0.000 OA
ENDBRANCH   1   8
BRANCH   3  12
ATOM     12  C   UNL     1       6.169   5.373  17.701  0.00  0.00    +0.000 A 
ATOM     13  C   UNL     1       6.842   4.781  18.776  0.00  0.00    +0.000 A 
ATOM     14  C   UNL     1       7.874   5.470  19.416  0.00  0.00    +0.000 A 
ATOM     15  C   UNL     1       8.216   6.757  19.002  0.00  0.00    +0.000 A 
ATOM     16  C   UNL     1       7.533   7.351  17.943  0.00  0.00    +0.000 A 
ATOM     17 CL   UNL     1       7.934   8.947  17.447  0.00  0.00    +0.000 Cl
ATOM     18  C   UNL     1       6.522   6.660  17.280  0.00  0.00    +0.000 A 
ENDBRANCH   3  12
BRANCH   3  19
ATOM     19  C   UNL     1       5.731   3.800  15.861  0.00  0.00    +0.000 C 
BRANCH  19  20
ATOM     20  C   UNL     1       5.985   4.482  14.502  0.00  0.00    +0.000 C 
ATOM     21  F   UNL     1       5.646   3.722  13.438  0.00  0.00    +0.000 F 
ATOM     22  F   UNL     1       5.279   5.635  14.400  0.00  0.00    +0.000 F 
ATOM     23  F   UNL     1       7.293   4.809  14.369  0.00  0.00    +0.000 F 
ENDBRANCH  19  20
ENDBRANCH   3  19
TORSDOF 4
ENDMDL
MODEL 3
REMARK VINA RESULT:      -7.4      3.512      5.482
REMARK  Name = 
REMARK  5 active torsions:
REMARK  status: ('A' for Active; 'I' for Inactive)
REMARK    1  A    between atoms: C_1  and  N_2
REMARK    2  A    between atoms: C_5  and  C_6
REMARK    3  A    between atoms: N_8  and  C_9
REMARK    4  A    between atoms: N_8  and  C_14
REMARK    5  A    between atoms: C_9  and  C_10
REMARK                            x       y       z     vdW  Elec       q    Type
REMARK                         _______ _______ _______ _____ _____    ______ ____
ROOT
ATOM      1  C   UNL     1       3.665   4.453  17.477  0.00  0.00    +0.000 C 
ATOM      2  O   UNL     1       3.763   3.480  16.725  0.00  0.00    +0.000 OA
ATOM      3  N   UNL     1       2.456   4.746  18.115  0.00  0.00    +0.000 N 
ENDROOT
BRANCH   1   8
ATOM      4  C   UNL     1       8.478   7.427  18.569  0.00  0.00    +0.000 C 
ATOM      5  N   UNL     1       7.227   6.730  18.310  0.00  0.00    +0.000 N 
ATOM      6  C   UNL     1       6.446   7.088  17.232  0.00  0.00    +0.000 A 
ATOM      7  C   UNL     1       5.308   6.438  16.952  0.00  0.00    +0.000 A 
ATOM      8  C   UNL     1       4.902   5.288  17.739  0.00  0.00    +0.000 A 
ATOM      9  C   UNL     1       5.601   4.983  18.848  0.00  0.00    +0.000 A 
ATOM     10  C   UNL     1       6.854   5.711  19.189  0.00  0.00    +0.000 A 
ATOM     11  O   UNL     1       7.499   5.378  20.175  0.00  0.00    +0.000 OA
ENDBRANCH   1   8
BRANCH   3  12
ATOM     12  C   UNL     1       2.146   5.962  18.774  0.00  0.00    +0.000 A 
ATOM     13  C   UNL     1       1.967   5.992  20.162  0.00  0.00    +0.000 A 
ATOM     14  C   UNL     1       1.774   7.211  20.812  0.00  0.00    +0.000 A 
ATOM     15  C   UNL     1       1.732   8.397  20.077  0.00  0.00    +0.000 A 
ATOM     16  C   UNL     1       1.892   8.362  18.694  0.00  0.00    +0.000 A 
ATOM     17 CL   UNL     1       1.815   9.817  17.782  0.00  0.00    +0.000 Cl
ATOM     18  C   UNL     1       2.115   7.153  18.040  0.00  0.00    +0.000 A 
ENDBRANCH   3  12
BRANCH   3  19
ATOM     19  C   UNL     1       1.318   3.793  17.961  0.00  0.00    +0.000 C 
BRANCH  19  20
ATOM     20  C   UNL     1       1.120   2.730  19.059  0.00  0.00    +0.000 C 
ATOM     21  F   UNL     1       2.275   2.240  19.559  0.00  0.00    +0.000 F 
ATOM     22  F   UNL     1       0.426   3.239  20.106  0.00  0.00    +0.000 F 
ATOM     23  F   UNL     1       0.404   1.682  18.585  0.00  0.00    +0.000 F 
ENDBRANCH  19  20
ENDBRANCH   3  19
TORSDOF 4
ENDMDL
MODEL 4
REMARK VINA RESULT:      -7.4      3.039      3.826
REMARK  Name = 
REMARK  5 active torsions:
REMARK  status: ('A' for Active; 'I' for Inactive)
REMARK    1  A    between atoms: C_1  and  N_2
REMARK    2  A    between atoms: C_5  and  C_6
REMARK    3  A    between atoms: N_8  and  C_9
REMARK    4  A    between atoms: N_8  and  C_14
REMARK    5  A    between atoms: C_9  and  C_10
REMARK                            x       y       z     vdW  Elec       q    Type
REMARK                         _______ _______ _______ _____ _____    ______ ____
ROOT
ATOM      1  C   UNL     1       2.744   4.904  19.806  0.00  0.00    +0.000 C 
ATOM      2  O   UNL     1       2.000   4.332  20.608  0.00  0.00    +0.000 OA
ATOM      3  N   UNL     1       3.829   4.235  19.231  0.00  0.00    +0.000 N 
ENDROOT
BRANCH   1   8
ATOM      4  C   UNL     1       1.559  10.399  18.539  0.00  0.00    +0.000 C 
ATOM      5  N   UNL     1       1.806   8.993  18.821  0.00  0.00    +0.000 N 
ATOM      6  C   UNL     1       2.261   8.156  17.824  0.00  0.00    +0.000 A 
ATOM      7  C   UNL     1       2.529   6.867  18.068  0.00  0.00    +0.000 A 
ATOM      8  C   UNL     1       2.416   6.331  19.413  0.00  0.00    +0.000 A 
ATOM      9  C   UNL     1       1.886   7.106  20.376  0.00  0.00    +0.000 A 
ATOM     10  C   UNL     1       1.557   8.534  20.116  0.00  0.00    +0.000 A 
ATOM     11  O   UNL     1       1.125   9.232  21.026  0.00  0.00    +0.000 OA
ENDBRANCH   1   8
BRANCH   3  12
ATOM     12  C   UNL     1       4.891   4.848  18.521  0.00  0.00    +0.000 A 
ATOM     13  C   UNL     1       5.942   5.466  19.208  0.00  0.00    +0.000 A 
ATOM     14  C   UNL     1       7.036   5.966  18.503  0.00  0.00    +0.000 A 
ATOM     15  C   UNL     1       7.071   5.875  17.111  0.00  0.00    +0.000 A 
ATOM     16  C   UNL     1       6.016   5.276  16.428  0.00  0.00    +0.000 A 
ATOM     17 CL   UNL     1       6.043   5.185  14.711  0.00  0.00    +0.000 Cl
ATOM     18  C   UNL     1       4.933   4.748  17.125  0.00  0.00    +0.000 A 
ENDBRANCH   3  12
BRANCH   3  19
ATOM     19  C   UNL     1       4.004   2.782  19.517  0.00  0.00    +0.000 C 
BRANCH  19  20
ATOM     20  C   UNL     1       3.203   1.781  18.660  0.00  0.00    +0.000 C 
ATOM     21  F   UNL     1       2.884   2.246  17.433  0.00  0.00    +0.000 F 
ATOM     22  F   UNL     1       3.901   0.635  18.474  0.00  0.00    +0.000 F 
ATOM     23  F   UNL     1       2.047   1.441  19.280  0.00  0.00    +0.000 F 
ENDBRANCH  19  20
ENDBRANCH   3  19
TORSDOF 4
ENDMDL
MODEL 5
REMARK VINA RESULT:      -7.4      2.892      3.828
REMARK  Name = 
REMARK  5 active torsions:
REMARK  status: ('A' for Active; 'I' for Inactive)
REMARK    1  A    between atoms: C_1  and  N_2
REMARK    2  A    between atoms: C_5  and  C_6
REMARK    3  A    between atoms: N_8  and  C_9
REMARK    4  A    between atoms: N_8  and  C_14
REMARK    5  A    between atoms: C_9  and  C_10
REMARK                            x       y       z     vdW  Elec       q    Type
REMARK                         _______ _______ _______ _____ _____    ______ ____
ROOT
ATOM      1  C   UNL     1       2.802   4.968  19.857  0.00  0.00    +0.000 C 
ATOM      2  O   UNL     1       2.195   4.418  20.780  0.00  0.00    +0.000 OA
ATOM      3  N   UNL     1       3.787   4.284  19.138  0.00  0.00    +0.000 N 
ENDROOT
BRANCH   1   8
ATOM      4  C   UNL     1       1.382  10.422  18.655  0.00  0.00    +0.000 C 
ATOM      5  N   UNL     1       1.688   9.024  18.923  0.00  0.00    +0.000 N 
ATOM      6  C   UNL     1       2.138   8.208  17.907  0.00  0.00    +0.000 A 
ATOM      7  C   UNL     1       2.460   6.927  18.137  0.00  0.00    +0.000 A 
ATOM      8  C   UNL     1       2.411   6.383  19.481  0.00  0.00    +0.000 A 
ATOM      9  C   UNL     1       1.886   7.136  20.465  0.00  0.00    +0.000 A 
ATOM     10  C   UNL     1       1.498   8.552  20.224  0.00  0.00    +0.000 A 
ATOM     11  O   UNL     1       1.072   9.231  21.150  0.00  0.00    +0.000 OA
ENDBRANCH   1   8
BRANCH   3  12
ATOM     12  C   UNL     1       4.722   4.876  18.254  0.00  0.00    +0.000 A 
ATOM     13  C   UNL     1       4.498   4.870  16.873  0.00  0.00    +0.000 A 
ATOM     14  C   UNL     1       5.368   5.553  16.023  0.00  0.00    +0.000 A 
ATOM     15  C   UNL     1       6.476   6.220  16.546  0.00  0.00    +0.000 A 
ATOM     16  C   UNL     1       6.708   6.209  17.919  0.00  0.00    +0.000 A 
ATOM     17 CL   UNL     1       8.086   7.007  18.566  0.00  0.00    +0.000 Cl
ATOM     18  C   UNL     1       5.829   5.555  18.778  0.00  0.00    +0.000 A 
ENDBRANCH   3  12
BRANCH   3  19
ATOM     19  C   UNL     1       4.010   2.838  19.433  0.00  0.00    +0.000 C 
BRANCH  19  20
ATOM     20  C   UNL     1       3.164   1.810  18.656  0.00  0.00    +0.000 C 
ATOM     21  F   UNL     1       2.792   2.225  17.426  0.00  0.00    +0.000 F 
ATOM     22  F   UNL     1       3.844   0.650  18.488  0.00  0.00    +0.000 F 
ATOM     23  F   UNL     1       2.035   1.506  19.342  0.00  0.00    +0.000 F 
ENDBRANCH  19  20
ENDBRANCH   3  19
TORSDOF 4
ENDMDL
MODEL 6
REMARK VINA RESULT:      -7.4      1.070      1.468
REMARK  Name = 
REMARK  5 active torsions:
REMARK  status: ('A' for Active; 'I' for Inactive)
REMARK    1  A    between atoms: C_1  and  N_2
REMARK    2  A    between atoms: C_5  and  C_6
REMARK    3  A    between atoms: N_8  and  C_9
REMARK    4  A    between atoms: N_8  and  C_14
REMARK    5  A    between atoms: C_9  and  C_10
REMARK                            x       y       z     vdW  Elec       q    Type
REMARK                         _______ _______ _______ _____ _____    ______ ____
ROOT
ATOM      1  C   UNL     1       4.073   4.288  17.055  0.00  0.00    +0.000 C 
ATOM      2  O   UNL     1       3.401   3.351  16.613  0.00  0.00    +0.000 OA
ATOM      3  N   UNL     1       5.400   4.470  16.653  0.00  0.00    +0.000 N 
ENDROOT
BRANCH   1   8
ATOM      4  C   UNL     1       1.625   7.895  20.823  0.00  0.00    +0.000 C 
ATOM      5  N   UNL     1       2.189   6.990  19.832  0.00  0.00    +0.000 N 
ATOM      6  C   UNL     1       2.605   7.476  18.610  0.00  0.00    +0.000 A 
ATOM      7  C   UNL     1       3.161   6.669  17.695  0.00  0.00    +0.000 A 
ATOM      8  C   UNL     1       3.406   5.271  17.996  0.00  0.00    +0.000 A 
ATOM      9  C   UNL     1       2.923   4.761  19.143  0.00  0.00    +0.000 A 
ATOM     10  C   UNL     1       2.280   5.636  20.161  0.00  0.00    +0.000 A 
ATOM     11  O   UNL     1       1.897   5.155  21.220  0.00  0.00    +0.000 OA
ENDBRANCH   1   8
BRANCH   3  12
ATOM     12  C   UNL     1       6.339   5.326  17.279  0.00  0.00    +0.000 A 
ATOM     13  C   UNL     1       6.584   6.606  16.768  0.00  0.00    +0.000 A 
ATOM     14  C   UNL     1       7.426   7.481  17.456  0.00  0.00    +0.000 A 
ATOM     15  C   UNL     1       8.045   7.071  18.637  0.00  0.00    +0.000 A 
ATOM     16  C   UNL     1       7.814   5.791  19.134  0.00  0.00    +0.000 A 
ATOM     17 CL   UNL     1       8.595   5.272  20.575  0.00  0.00    +0.000 Cl
ATOM     18  C   UNL     1       6.953   4.921  18.470  0.00  0.00    +0.000 A 
ENDBRANCH   3  12
BRANCH   3  19
ATOM     19  C   UNL     1       5.953   3.578  15.593  0.00  0.00    +0.000 C 
BRANCH  19  20
ATOM     20  C   UNL     1       6.092   4.157  14.171  0.00  0.00    +0.000 C 
ATOM     21  F   UNL     1       5.966   3.236  13.191  0.00  0.00    +0.000 F 
ATOM     22  F   UNL     1       5.151   5.105  13.940  0.00  0.00    +0.000 F 
ATOM     23  F   UNL     1       7.298   4.755  14.015  0.00  0.00    +0.000 F 
ENDBRANCH  19  20
ENDBRANCH   3  19
TORSDOF 4
ENDMDL
MODEL 7
REMARK VINA RESULT:      -7.3      1.472      2.041
REMARK  Name = 
REMARK  5 active torsions:
REMARK  status: ('A' for Active; 'I' for Inactive)
REMARK    1  A    between atoms: C_1  and  N_2
REMARK    2  A    between atoms: C_5  and  C_6
REMARK    3  A    between atoms: N_8  and  C_9
REMARK    4  A    between atoms: N_8  and  C_14
REMARK    5  A    between atoms: C_9  and  C_10
REMARK                            x       y       z     vdW  Elec       q    Type
REMARK                         _______ _______ _______ _____ _____    ______ ____
ROOT
ATOM      1  C   UNL     1       4.037   4.318  17.177  0.00  0.00    +0.000 C 
ATOM      2  O   UNL     1       3.345   3.388  16.752  0.00  0.00    +0.000 OA
ATOM      3  N   UNL     1       5.353   4.492  16.737  0.00  0.00    +0.000 N 
ENDROOT
BRANCH   1   8
ATOM      4  C   UNL     1       1.512   8.159  20.651  0.00  0.00    +0.000 C 
ATOM      5  N   UNL     1       2.206   7.196  19.809  0.00  0.00    +0.000 N 
ATOM      6  C   UNL     1       2.546   5.958  20.312  0.00  0.00    +0.000 A 
ATOM      7  C   UNL     1       3.153   5.041  19.546  0.00  0.00    +0.000 A 
ATOM      8  C   UNL     1       3.405   5.302  18.141  0.00  0.00    +0.000 A 
ATOM      9  C   UNL     1       3.166   6.536  17.659  0.00  0.00    +0.000 A 
ATOM     10  C   UNL     1       2.516   7.576  18.502  0.00  0.00    +0.000 A 
ATOM     11  O   UNL     1       2.260   8.673  18.022  0.00  0.00    +0.000 OA
ENDBRANCH   1   8
BRANCH   3  12
ATOM     12  C   UNL     1       6.316   5.339  17.337  0.00  0.00    +0.000 A 
ATOM     13  C   UNL     1       6.571   6.611  16.810  0.00  0.00    +0.000 A 
ATOM     14  C   UNL     1       7.439   7.478  17.474  0.00  0.00    +0.000 A 
ATOM     15  C   UNL     1       8.073   7.070  18.648  0.00  0.00    +0.000 A 
ATOM     16  C   UNL     1       7.832   5.798  19.160  0.00  0.00    +0.000 A 
ATOM     17 CL   UNL     1       8.631   5.281  20.592  0.00  0.00    +0.000 Cl
ATOM     18  C   UNL     1       6.945   4.936  18.521  0.00  0.00    +0.000 A 
ENDBRANCH   3  12
BRANCH   3  19
ATOM     19  C   UNL     1       5.868   3.600  15.658  0.00  0.00    +0.000 C 
BRANCH  19  20
ATOM     20  C   UNL     1       6.044   4.206  14.251  0.00  0.00    +0.000 C 
ATOM     21  F   UNL     1       5.902   3.312  13.249  0.00  0.00    +0.000 F 
ATOM     22  F   UNL     1       5.138   5.189  14.030  0.00  0.00    +0.000 F 
ATOM     23  F   UNL     1       7.271   4.767  14.124  0.00  0.00    +0.000 F 
ENDBRANCH  19  20
ENDBRANCH   3  19
TORSDOF 4
ENDMDL
MODEL 8
REMARK VINA RESULT:      -7.0      3.661      5.723
REMARK  Name = 
REMARK  5 active torsions:
REMARK  status: ('A' for Active; 'I' for Inactive)
REMARK    1  A    between atoms: C_1  and  N_2
REMARK    2  A    between atoms: C_5  and  C_6
REMARK    3  A    between atoms: N_8  and  C_9
REMARK    4  A    between atoms: N_8  and  C_14
REMARK    5  A    between atoms: C_9  and  C_10
REMARK                            x       y       z     vdW  Elec       q    Type
REMARK                         _______ _______ _______ _____ _____    ______ ____
ROOT
ATOM      1  C   UNL     1       3.759   4.653  17.606  0.00  0.00    +0.000 C 
ATOM      2  O   UNL     1       3.860   3.556  17.050  0.00  0.00    +0.000 OA
ATOM      3  N   UNL     1       2.520   5.119  18.055  0.00  0.00    +0.000 N 
ENDROOT
BRANCH   1   8
ATOM      4  C   UNL     1       8.665   7.507  18.603  0.00  0.00    +0.000 C 
ATOM      5  N   UNL     1       7.392   6.841  18.369  0.00  0.00    +0.000 N 
ATOM      6  C   UNL     1       6.595   7.224  17.311  0.00  0.00    +0.000 A 
ATOM      7  C   UNL     1       5.436   6.603  17.054  0.00  0.00    +0.000 A 
ATOM      8  C   UNL     1       5.022   5.457  17.844  0.00  0.00    +0.000 A 
ATOM      9  C   UNL     1       5.738   5.130  18.934  0.00  0.00    +0.000 A 
ATOM     10  C   UNL     1       7.016   5.826  19.251  0.00  0.00    +0.000 A 
ATOM     11  O   UNL     1       7.675   5.472  20.220  0.00  0.00    +0.000 OA
ENDBRANCH   1   8
BRANCH   3  12
ATOM     12  C   UNL     1       2.235   6.447  18.455  0.00  0.00    +0.000 A 
ATOM     13  C   UNL     1       2.074   7.458  17.500  0.00  0.00    +0.000 A 
ATOM     14  C   UNL     1       1.684   8.737  17.899  0.00  0.00    +0.000 A 
ATOM     15  C   UNL     1       1.481   9.016  19.250  0.00  0.00    +0.000 A 
ATOM     16  C   UNL     1       1.660   8.014  20.201  0.00  0.00    +0.000 A 
ATOM     17 CL   UNL     1       1.437   8.360  21.870  0.00  0.00    +0.000 Cl
ATOM     18  C   UNL     1       2.021   6.727  19.810  0.00  0.00    +0.000 A 
ENDBRANCH   3  12
BRANCH   3  19
ATOM     19  C   UNL     1       1.338   4.213  17.953  0.00  0.00    +0.000 C 
BRANCH  19  20
ATOM     20  C   UNL     1       1.083   3.236  19.118  0.00  0.00    +0.000 C 
ATOM     21  F   UNL     1       2.207   2.700  19.639  0.00  0.00    +0.000 F 
ATOM     22  F   UNL     1       0.436   3.855  20.137  0.00  0.00    +0.000 F 
ATOM     23  F   UNL     1       0.292   2.212  18.717  0.00  0.00    +0.000 F 
ENDBRANCH  19  20
ENDBRANCH   3  19
TORSDOF 4
ENDMDL
MODEL 9
REMARK VINA RESULT:      -7.0      3.497      5.659
REMARK  Name = 
REMARK  5 active torsions:
REMARK  status: ('A' for Active; 'I' for Inactive)
REMARK    1  A    between atoms: C_1  and  N_2
REMARK    2  A    between atoms: C_5  and  C_6
REMARK    3  A    between atoms: N_8  and  C_9
REMARK    4  A    between atoms: N_8  and  C_14
REMARK    5  A    between atoms: C_9  and  C_10
REMARK                            x       y       z     vdW  Elec       q    Type
REMARK                         _______ _______ _______ _____ _____    ______ ____
ROOT
ATOM      1  C   UNL     1       3.758   4.051  17.630  0.00  0.00    +0.000 C 
ATOM      2  O   UNL     1       3.859   3.065  16.895  0.00  0.00    +0.000 OA
ATOM      3  N   UNL     1       2.520   4.421  18.167  0.00  0.00    +0.000 N 
ENDROOT
BRANCH   1   8
ATOM      4  C   UNL     1       8.496   7.114  18.801  0.00  0.00    +0.000 C 
ATOM      5  N   UNL     1       7.333   6.285  18.520  0.00  0.00    +0.000 N 
ATOM      6  C   UNL     1       6.675   5.645  19.550  0.00  0.00    +0.000 A 
ATOM      7  C   UNL     1       5.582   4.906  19.321  0.00  0.00    +0.000 A 
ATOM      8  C   UNL     1       5.017   4.816  17.987  0.00  0.00    +0.000 A 
ATOM      9  C   UNL     1       5.696   5.355  16.958  0.00  0.00    +0.000 A 
ATOM     10  C   UNL     1       6.928   6.158  17.190  0.00  0.00    +0.000 A 
ATOM     11  O   UNL     1       7.497   6.682  16.241  0.00  0.00    +0.000 OA
ENDBRANCH   1   8
BRANCH   3  12
ATOM     12  C   UNL     1       2.230   5.660  18.790  0.00  0.00    +0.000 A 
ATOM     13  C   UNL     1       2.003   5.724  20.170  0.00  0.00    +0.000 A 
ATOM     14  C   UNL     1       1.830   6.963  20.789  0.00  0.00    +0.000 A 
ATOM     15  C   UNL     1       1.855   8.133  20.031  0.00  0.00    +0.000 A 
ATOM     16  C   UNL     1       2.063   8.065  18.656  0.00  0.00    +0.000 A 
ATOM     17 CL   UNL     1       2.070   9.503  17.713  0.00  0.00    +0.000 Cl
ATOM     18  C   UNL     1       2.267   6.836  18.033  0.00  0.00    +0.000 A 
ENDBRANCH   3  12
BRANCH   3  19
ATOM     19  C   UNL     1       1.345   3.534  17.926  0.00  0.00    +0.000 C 
BRANCH  19  20
ATOM     20  C   UNL     1       1.014   2.477  18.999  0.00  0.00    +0.000 C 
ATOM     21  F   UNL     1       0.382   2.977  20.082  0.00  0.00    +0.000 F 
ATOM     22  F   UNL     1       0.215   1.506  18.492  0.00  0.00    +0.000 F 
ATOM     23  F   UNL     1       2.145   1.868  19.433  0.00  0.00    +0.000 F 
ENDBRANCH  19  20
ENDBRANCH   3  19
TORSDOF 4
ENDMDL
