MODEL 1
REMARK VINA RESULT:      -8.0      0.000      0.000
REMARK  Name = 
REMARK  9 active torsions:
REMARK  status: ('A' for Active; 'I' for Inactive)
REMARK    1  A    between atoms: C_1  and  N_2
REMARK    2  A    between atoms: C_3  and  S_4
REMARK    3  A    between atoms: S_4  and  C_5
REMARK    4  A    between atoms: C_5  and  C_6
REMARK    5  A    between atoms: C_6  and  C_7
REMARK    6  A    between atoms: C_7  and  N_8
REMARK    7  A    between atoms: C_13  and  C_14
REMARK    8  A    between atoms: C_17  and  C_18
REMARK    9  A    between atoms: C_27  and  C_28
REMARK                            x       y       z     vdW  Elec       q    Type
REMARK                         _______ _______ _______ _____ _____    ______ ____
ROOT
ATOM      1  N   UNL     1       2.545   5.651  18.558  0.00  0.00    +0.000 NA
ATOM      2  C   UNL     1       2.979   4.621  19.517  0.00  0.00    +0.000 C 
ATOM      3  C   UNL     1       4.465   4.878  19.724  0.00  0.00    +0.000 C 
ATOM      4  C   UNL     1       4.894   5.363  18.368  0.00  0.00    +0.000 C 
ATOM      5  C   UNL     1       6.120   6.236  18.230  0.00  0.00    +0.000 C 
ATOM      6  C   UNL     1       6.179   4.799  17.779  0.00  0.00    +0.000 C 
ATOM      7  C   UNL     1       3.655   5.718  17.568  0.00  0.00    +0.000 C 
ENDROOT
BRANCH   6   8
ATOM      8  C   UNL     1       6.367   4.460  16.322  0.00  0.00    +0.000 A 
ATOM      9  C   UNL     1       5.579   3.471  15.711  0.00  0.00    +0.000 A 
ATOM     10  C   UNL     1       5.647   3.222  14.336  0.00  0.00    +0.000 A 
ATOM     11  C   UNL     1       6.520   3.957  13.525  0.00  0.00    +0.000 A 
ATOM     12  C   UNL     1       7.330   4.930  14.122  0.00  0.00    +0.000 A 
ATOM     13  C   UNL     1       7.237   5.186  15.493  0.00  0.00    +0.000 A 
BRANCH  11  14
ATOM     14  C   UNL     1       6.575   3.738  12.033  0.00  0.00    +0.000 C 
ATOM     15  F   UNL     1       7.116   2.539  11.678  0.00  0.00    +0.000 F 
ATOM     16  F   UNL     1       5.341   3.772  11.458  0.00  0.00    +0.000 F 
ATOM     17  F   UNL     1       7.311   4.686  11.391  0.00  0.00    +0.000 F 
ENDBRANCH  11  14
ENDBRANCH   6   8
BRANCH   1  18
ATOM     18  C   UNL     1       2.350   6.984  19.155  0.00  0.00    +0.000 C 
BRANCH  18  19
ATOM     19  C   UNL     1       2.095   8.116  18.152  0.00  0.00    +0.000 C 
BRANCH  19  20
ATOM     20  C   UNL     1       1.413   9.324  18.803  0.00  0.00    +0.000 C 
BRANCH  20  21
ATOM     21  S   UNL     1       0.973   9.044  20.554  0.00  0.00    +0.000 S 
BRANCH  21  24
ATOM     22  C   UNL     1      -0.506  10.015  23.291  0.00  0.00    +0.000 C 
ATOM     23  N   UNL     1      -0.700  10.657  22.016  0.00  0.00    +0.000 N 
ATOM     24  C   UNL     1      -0.141  10.337  20.810  0.00  0.00    +0.000 A 
ATOM     25  N   UNL     1      -0.551  11.181  19.891  0.00  0.00    +0.000 NA
ATOM     26  N   UNL     1      -1.363  12.098  20.502  0.00  0.00    +0.000 NA
ATOM     27  C   UNL     1      -1.453  11.797  21.787  0.00  0.00    +0.000 A 
BRANCH  27  28
ATOM     28  C   UNL     1      -2.173  12.573  22.786  0.00  0.00    +0.000 A 
ATOM     29  C   UNL     1      -1.596  13.690  23.384  0.00  0.00    +0.000 A 
ATOM     30  N   UNL     1      -2.222  14.414  24.346  0.00  0.00    +0.000 NA
ATOM     31  C   UNL     1      -3.464  13.991  24.670  0.00  0.00    +0.000 A 
ATOM     32  C   UNL     1      -4.051  12.892  24.066  0.00  0.00    +0.000 A 
ATOM     33  N   UNL     1      -3.422  12.156  23.121  0.00  0.00    +0.000 NA
ENDBRANCH  27  28
ENDBRANCH  21  24
ENDBRANCH  20  21
ENDBRANCH  19  20
ENDBRANCH  18  19
ENDBRANCH   1  18
TORSDOF 8
ENDMDL
MODEL 2
REMARK VINA RESULT:      -7.6      0.989      1.561
REMARK  Name = 
REMARK  9 active torsions:
REMARK  status: ('A' for Active; 'I' for Inactive)
REMARK    1  A    between atoms: C_1  and  N_2
REMARK    2  A    between atoms: C_3  and  S_4
REMARK    3  A    between atoms: S_4  and  C_5
REMARK    4  A    between atoms: C_5  and  C_6
REMARK    5  A    between atoms: C_6  and  C_7
REMARK    6  A    between atoms: C_7  and  N_8
REMARK    7  A    between atoms: C_13  and  C_14
REMARK    8  A    between atoms: C_17  and  C_18
REMARK    9  A    between atoms: C_27  and  C_28
REMARK                            x       y       z     vdW  Elec       q    Type
REMARK                         _______ _______ _______ _____ _____    ______ ____
ROOT
ATOM      1  N   UNL     1       2.377   6.329  18.372  0.00  0.00    +0.000 NA
ATOM      2  C   UNL     1       2.573   5.249  19.354  0.00  0.00    +0.000 C 
ATOM      3  C   UNL     1       4.061   5.270  19.669  0.00  0.00    +0.000 C 
ATOM      4  C   UNL     1       4.658   5.673  18.350  0.00  0.00    +0.000 C 
ATOM      5  C   UNL     1       6.014   6.341  18.305  0.00  0.00    +0.000 C 
ATOM      6  C   UNL     1       5.878   4.910  17.852  0.00  0.00    +0.000 C 
ATOM      7  C   UNL     1       3.552   6.214  17.465  0.00  0.00    +0.000 C 
ENDROOT
BRANCH   6   8
ATOM      8  C   UNL     1       6.115   4.536  16.411  0.00  0.00    +0.000 A 
ATOM      9  C   UNL     1       5.253   3.643  15.753  0.00  0.00    +0.000 A 
ATOM     10  C   UNL     1       5.377   3.374  14.386  0.00  0.00    +0.000 A 
ATOM     11  C   UNL     1       6.381   3.990  13.631  0.00  0.00    +0.000 A 
ATOM     12  C   UNL     1       7.263   4.865  14.275  0.00  0.00    +0.000 A 
ATOM     13  C   UNL     1       7.116   5.144  15.637  0.00  0.00    +0.000 A 
BRANCH  11  14
ATOM     14  C   UNL     1       6.502   3.751  12.145  0.00  0.00    +0.000 C 
ATOM     15  F   UNL     1       5.303   3.705  11.501  0.00  0.00    +0.000 F 
ATOM     16  F   UNL     1       7.221   4.725  11.521  0.00  0.00    +0.000 F 
ATOM     17  F   UNL     1       7.130   2.579  11.854  0.00  0.00    +0.000 F 
ENDBRANCH  11  14
ENDBRANCH   6   8
BRANCH   1  18
ATOM     18  C   UNL     1       2.353   7.680  18.960  0.00  0.00    +0.000 C 
BRANCH  18  19
ATOM     19  C   UNL     1       1.811   7.757  20.393  0.00  0.00    +0.000 C 
BRANCH  19  20
ATOM     20  C   UNL     1       0.502   8.550  20.476  0.00  0.00    +0.000 C 
BRANCH  20  21
ATOM     21  S   UNL     1       0.725  10.338  20.175  0.00  0.00    +0.000 S 
BRANCH  21  24
ATOM     22  C   UNL     1      -1.743  12.465  20.086  0.00  0.00    +0.000 C 
ATOM     23  N   UNL     1      -1.240  11.886  21.306  0.00  0.00    +0.000 N 
ATOM     24  C   UNL     1      -0.215  10.994  21.464  0.00  0.00    +0.000 A 
ATOM     25  N   UNL     1      -0.082  10.690  22.735  0.00  0.00    +0.000 NA
ATOM     26  N   UNL     1      -1.056  11.357  23.426  0.00  0.00    +0.000 NA
ATOM     27  C   UNL     1      -1.767  12.076  22.572  0.00  0.00    +0.000 A 
BRANCH  27  28
ATOM     28  C   UNL     1      -2.936  12.875  22.913  0.00  0.00    +0.000 A 
ATOM     29  C   UNL     1      -2.805  14.122  23.516  0.00  0.00    +0.000 A 
ATOM     30  N   UNL     1      -3.871  14.877  23.882  0.00  0.00    +0.000 NA
ATOM     31  C   UNL     1      -5.080  14.344  23.597  0.00  0.00    +0.000 A 
ATOM     32  C   UNL     1      -5.218  13.112  22.981  0.00  0.00    +0.000 A 
ATOM     33  N   UNL     1      -4.157  12.348  22.633  0.00  0.00    +0.000 NA
ENDBRANCH  27  28
ENDBRANCH  21  24
ENDBRANCH  20  21
ENDBRANCH  19  20
ENDBRANCH  18  19
ENDBRANCH   1  18
TORSDOF 8
ENDMDL
MODEL 3
REMARK VINA RESULT:      -7.5      0.929      1.826
REMARK  Name = 
REMARK  9 active torsions:
REMARK  status: ('A' for Active; 'I' for Inactive)
REMARK    1  A    between atoms: C_1  and  N_2
REMARK    2  A    between atoms: C_3  and  S_4
REMARK    3  A    between atoms: S_4  and  C_5
REMARK    4  A    between atoms: C_5  and  C_6
REMARK    5  A    between atoms: C_6  and  C_7
REMARK    6  A    between atoms: C_7  and  N_8
REMARK    7  A    between atoms: C_13  and  C_14
REMARK    8  A    between atoms: C_17  and  C_18
REMARK    9  A    between atoms: C_27  and  C_28
REMARK                            x       y       z     vdW  Elec       q    Type
REMARK                         _______ _______ _______ _____ _____    ______ ____
ROOT
ATOM      1  N   UNL     1       2.368   5.441  18.889  0.00  0.00    +0.000 NA
ATOM      2  C   UNL     1       2.655   4.166  19.568  0.00  0.00    +0.000 C 
ATOM      3  C   UNL     1       4.161   4.168  19.787  0.00  0.00    +0.000 C 
ATOM      4  C   UNL     1       4.656   4.896  18.568  0.00  0.00    +0.000 C 
ATOM      5  C   UNL     1       5.990   5.607  18.602  0.00  0.00    +0.000 C 
ATOM      6  C   UNL     1       5.855   4.320  17.827  0.00  0.00    +0.000 C 
ATOM      7  C   UNL     1       3.480   5.590  17.910  0.00  0.00    +0.000 C 
ENDROOT
BRANCH   6   8
ATOM      8  C   UNL     1       6.000   4.311  16.327  0.00  0.00    +0.000 A 
ATOM      9  C   UNL     1       7.131   4.875  15.714  0.00  0.00    +0.000 A 
ATOM     10  C   UNL     1       7.350   4.772  14.337  0.00  0.00    +0.000 A 
ATOM     11  C   UNL     1       6.430   4.102  13.521  0.00  0.00    +0.000 A 
ATOM     12  C   UNL     1       5.286   3.554  14.112  0.00  0.00    +0.000 A 
ATOM     13  C   UNL     1       5.089   3.644  15.493  0.00  0.00    +0.000 A 
BRANCH  11  14
ATOM     14  C   UNL     1       6.670   3.937  12.040  0.00  0.00    +0.000 C 
ATOM     15  F   UNL     1       5.530   3.977  11.296  0.00  0.00    +0.000 F 
ATOM     16  F   UNL     1       7.477   4.911  11.535  0.00  0.00    +0.000 F 
ATOM     17  F   UNL     1       7.275   2.757  11.736  0.00  0.00    +0.000 F 
ENDBRANCH  11  14
ENDBRANCH   6   8
BRANCH   1  18
ATOM     18  C   UNL     1       2.355   6.611  19.786  0.00  0.00    +0.000 C 
BRANCH  18  19
ATOM     19  C   UNL     1       1.916   7.927  19.132  0.00  0.00    +0.000 C 
BRANCH  19  20
ATOM     20  C   UNL     1       1.551   8.995  20.169  0.00  0.00    +0.000 C 
BRANCH  20  21
ATOM     21  S   UNL     1       0.139  10.037  19.661  0.00  0.00    +0.000 S 
BRANCH  21  24
ATOM     22  C   UNL     1      -1.461  12.792  20.347  0.00  0.00    +0.000 C 
ATOM     23  N   UNL     1      -1.016  11.863  21.354  0.00  0.00    +0.000 N 
ATOM     24  C   UNL     1      -0.338  10.687  21.186  0.00  0.00    +0.000 A 
ATOM     25  N   UNL     1      -0.141  10.116  22.352  0.00  0.00    +0.000 NA
ATOM     26  N   UNL     1      -0.729  10.903  23.305  0.00  0.00    +0.000 NA
ATOM     27  C   UNL     1      -1.269  11.955  22.713  0.00  0.00    +0.000 A 
BRANCH  27  28
ATOM     28  C   UNL     1      -2.043  12.992  23.381  0.00  0.00    +0.000 A 
ATOM     29  C   UNL     1      -3.415  12.856  23.572  0.00  0.00    +0.000 A 
ATOM     30  N   UNL     1      -4.174  13.817  24.155  0.00  0.00    +0.000 NA
ATOM     31  C   UNL     1      -3.501  14.916  24.564  0.00  0.00    +0.000 A 
ATOM     32  C   UNL     1      -2.133  15.050  24.393  0.00  0.00    +0.000 A 
ATOM     33  N   UNL     1      -1.377  14.102  23.794  0.00  0.00    +0.000 NA
ENDBRANCH  27  28
ENDBRANCH  21  24
ENDBRANCH  20  21
ENDBRANCH  19  20
ENDBRANCH  18  19
ENDBRANCH   1  18
TORSDOF 8
ENDMDL
MODEL 4
REMARK VINA RESULT:      -7.5      2.090      2.634
REMARK  Name = 
REMARK  9 active torsions:
REMARK  status: ('A' for Active; 'I' for Inactive)
REMARK    1  A    between atoms: C_1  and  N_2
REMARK    2  A    between atoms: C_3  and  S_4
REMARK    3  A    between atoms: S_4  and  C_5
REMARK    4  A    between atoms: C_5  and  C_6
REMARK    5  A    between atoms: C_6  and  C_7
REMARK    6  A    between atoms: C_7  and  N_8
REMARK    7  A    between atoms: C_13  and  C_14
REMARK    8  A    between atoms: C_17  and  C_18
REMARK    9  A    between atoms: C_27  and  C_28
REMARK                            x       y       z     vdW  Elec       q    Type
REMARK                         _______ _______ _______ _____ _____    ______ ____
ROOT
ATOM      1  N   UNL     1       2.612   5.888  18.509  0.00  0.00    +0.000 NA
ATOM      2  C   UNL     1       3.140   4.969  19.532  0.00  0.00    +0.000 C 
ATOM      3  C   UNL     1       4.617   5.317  19.648  0.00  0.00    +0.000 C 
ATOM      4  C   UNL     1       4.963   5.702  18.236  0.00  0.00    +0.000 C 
ATOM      5  C   UNL     1       6.133   6.620  17.967  0.00  0.00    +0.000 C 
ATOM      6  C   UNL     1       6.251   5.153  17.639  0.00  0.00    +0.000 C 
ATOM      7  C   UNL     1       3.675   5.922  17.467  0.00  0.00    +0.000 C 
ENDROOT
BRANCH   6   8
ATOM      8  C   UNL     1       6.397   4.697  16.210  0.00  0.00    +0.000 A 
ATOM      9  C   UNL     1       5.564   3.692  15.692  0.00  0.00    +0.000 A 
ATOM     10  C   UNL     1       5.594   3.335  14.340  0.00  0.00    +0.000 A 
ATOM     11  C   UNL     1       6.474   3.975  13.458  0.00  0.00    +0.000 A 
ATOM     12  C   UNL     1       7.327   4.963  13.962  0.00  0.00    +0.000 A 
ATOM     13  C   UNL     1       7.272   5.327  15.311  0.00  0.00    +0.000 A 
BRANCH  11  14
ATOM     14  C   UNL     1       6.489   3.640  11.987  0.00  0.00    +0.000 C 
ATOM     15  F   UNL     1       7.179   4.539  11.231  0.00  0.00    +0.000 F 
ATOM     16  F   UNL     1       7.062   2.430  11.737  0.00  0.00    +0.000 F 
ATOM     17  F   UNL     1       5.240   3.580  11.450  0.00  0.00    +0.000 F 
ENDBRANCH  11  14
ENDBRANCH   6   8
BRANCH   1  18
ATOM     18  C   UNL     1       2.370   7.257  18.997  0.00  0.00    +0.000 C 
BRANCH  18  19
ATOM     19  C   UNL     1       2.063   8.292  17.908  0.00  0.00    +0.000 C 
BRANCH  19  20
ATOM     20  C   UNL     1       1.796   9.684  18.490  0.00  0.00    +0.000 C 
BRANCH  20  21
ATOM     21  S   UNL     1       0.594   9.669  19.866  0.00  0.00    +0.000 S 
BRANCH  21  24
ATOM     22  C   UNL     1      -1.127  12.102  18.546  0.00  0.00    +0.000 C 
ATOM     23  N   UNL     1      -0.213  12.284  19.645  0.00  0.00    +0.000 N 
ATOM     24  C   UNL     1       0.559  11.345  20.272  0.00  0.00    +0.000 A 
ATOM     25  N   UNL     1       1.237  11.906  21.248  0.00  0.00    +0.000 NA
ATOM     26  N   UNL     1       0.881  13.226  21.295  0.00  0.00    +0.000 NA
ATOM     27  C   UNL     1      -0.001  13.464  20.338  0.00  0.00    +0.000 A 
BRANCH  27  28
ATOM     28  C   UNL     1      -0.668  14.737  20.105  0.00  0.00    +0.000 A 
ATOM     29  C   UNL     1      -0.224  15.613  19.119  0.00  0.00    +0.000 A 
ATOM     30  N   UNL     1      -0.796  16.823  18.899  0.00  0.00    +0.000 NA
ATOM     31  C   UNL     1      -1.852  17.115  19.691  0.00  0.00    +0.000 A 
ATOM     32  C   UNL     1      -2.310  16.241  20.663  0.00  0.00    +0.000 A 
ATOM     33  N   UNL     1      -1.729  15.041  20.897  0.00  0.00    +0.000 NA
ENDBRANCH  27  28
ENDBRANCH  21  24
ENDBRANCH  20  21
ENDBRANCH  19  20
ENDBRANCH  18  19
ENDBRANCH   1  18
TORSDOF 8
ENDMDL
MODEL 5
REMARK VINA RESULT:      -7.4      1.179      1.747
REMARK  Name = 
REMARK  9 active torsions:
REMARK  status: ('A' for Active; 'I' for Inactive)
REMARK    1  A    between atoms: C_1  and  N_2
REMARK    2  A    between atoms: C_3  and  S_4
REMARK    3  A    between atoms: S_4  and  C_5
REMARK    4  A    between atoms: C_5  and  C_6
REMARK    5  A    between atoms: C_6  and  C_7
REMARK    6  A    between atoms: C_7  and  N_8
REMARK    7  A    between atoms: C_13  and  C_14
REMARK    8  A    between atoms: C_17  and  C_18
REMARK    9  A    between atoms: C_27  and  C_28
REMARK                            x       y       z     vdW  Elec       q    Type
REMARK                         _______ _______ _______ _____ _____    ______ ____
ROOT
ATOM      1  N   UNL     1       2.163   5.565  18.826  0.00  0.00    +0.000 NA
ATOM      2  C   UNL     1       2.488   4.347  19.588  0.00  0.00    +0.000 C 
ATOM      3  C   UNL     1       3.989   4.419  19.823  0.00  0.00    +0.000 C 
ATOM      4  C   UNL     1       4.474   5.089  18.568  0.00  0.00    +0.000 C 
ATOM      5  C   UNL     1       5.780   5.850  18.572  0.00  0.00    +0.000 C 
ATOM      6  C   UNL     1       5.703   4.514  17.878  0.00  0.00    +0.000 C 
ATOM      7  C   UNL     1       3.282   5.695  17.853  0.00  0.00    +0.000 C 
ENDROOT
BRANCH   6   8
ATOM      8  C   UNL     1       5.870   4.417  16.383  0.00  0.00    +0.000 A 
ATOM      9  C   UNL     1       6.992   4.978  15.751  0.00  0.00    +0.000 A 
ATOM     10  C   UNL     1       7.233   4.798  14.385  0.00  0.00    +0.000 A 
ATOM     11  C   UNL     1       6.347   4.049  13.601  0.00  0.00    +0.000 A 
ATOM     12  C   UNL     1       5.212   3.503  14.211  0.00  0.00    +0.000 A 
ATOM     13  C   UNL     1       4.992   3.671  15.581  0.00  0.00    +0.000 A 
BRANCH  11  14
ATOM     14  C   UNL     1       6.613   3.802  12.137  0.00  0.00    +0.000 C 
ATOM     15  F   UNL     1       7.291   2.646  11.894  0.00  0.00    +0.000 F 
ATOM     16  F   UNL     1       5.465   3.718  11.409  0.00  0.00    +0.000 F 
ATOM     17  F   UNL     1       7.347   4.794  11.564  0.00  0.00    +0.000 F 
ENDBRANCH  11  14
ENDBRANCH   6   8
BRANCH   1  18
ATOM     18  C   UNL     1       2.093   6.787  19.648  0.00  0.00    +0.000 C 
BRANCH  18  19
ATOM     19  C   UNL     1       2.355   8.096  18.891  0.00  0.00    +0.000 C 
BRANCH  19  20
ATOM     20  C   UNL     1       1.095   8.961  18.779  0.00  0.00    +0.000 C 
BRANCH  20  21
ATOM     21  S   UNL     1       1.456  10.708  18.384  0.00  0.00    +0.000 S 
BRANCH  21  24
ATOM     22  C   UNL     1      -1.623  11.383  19.214  0.00  0.00    +0.000 C 
ATOM     23  N   UNL     1      -0.489  11.713  20.040  0.00  0.00    +0.000 N 
ATOM     24  C   UNL     1       0.837  11.485  19.795  0.00  0.00    +0.000 A 
ATOM     25  N   UNL     1       1.556  11.912  20.807  0.00  0.00    +0.000 NA
ATOM     26  N   UNL     1       0.695  12.395  21.754  0.00  0.00    +0.000 NA
ATOM     27  C   UNL     1      -0.543  12.272  21.306  0.00  0.00    +0.000 A 
BRANCH  27  28
ATOM     28  C   UNL     1      -1.746  12.613  22.051  0.00  0.00    +0.000 A 
ATOM     29  C   UNL     1      -2.252  11.765  23.032  0.00  0.00    +0.000 A 
ATOM     30  N   UNL     1      -3.391  12.032  23.719  0.00  0.00    +0.000 NA
ATOM     31  C   UNL     1      -3.996  13.198  23.403  0.00  0.00    +0.000 A 
ATOM     32  C   UNL     1      -3.489  14.056  22.441  0.00  0.00    +0.000 A 
ATOM     33  N   UNL     1      -2.364  13.783  21.740  0.00  0.00    +0.000 NA
ENDBRANCH  27  28
ENDBRANCH  21  24
ENDBRANCH  20  21
ENDBRANCH  19  20
ENDBRANCH  18  19
ENDBRANCH   1  18
TORSDOF 8
ENDMDL
MODEL 6
REMARK VINA RESULT:      -7.3      2.975      4.107
REMARK  Name = 
REMARK  9 active torsions:
REMARK  status: ('A' for Active; 'I' for Inactive)
REMARK    1  A    between atoms: C_1  and  N_2
REMARK    2  A    between atoms: C_3  and  S_4
REMARK    3  A    between atoms: S_4  and  C_5
REMARK    4  A    between atoms: C_5  and  C_6
REMARK    5  A    between atoms: C_6  and  C_7
REMARK    6  A    between atoms: C_7  and  N_8
REMARK    7  A    between atoms: C_13  and  C_14
REMARK    8  A    between atoms: C_17  and  C_18
REMARK    9  A    between atoms: C_27  and  C_28
REMARK                            x       y       z     vdW  Elec       q    Type
REMARK                         _______ _______ _______ _____ _____    ______ ____
ROOT
ATOM      1  N   UNL     1       6.332   4.538  18.613  0.00  0.00    +0.000 NA
ATOM      2  C   UNL     1       7.517   5.407  18.523  0.00  0.00    +0.000 C 
ATOM      3  C   UNL     1       7.111   6.529  17.579  0.00  0.00    +0.000 C 
ATOM      4  C   UNL     1       6.196   5.820  16.620  0.00  0.00    +0.000 C 
ATOM      5  C   UNL     1       5.146   6.599  15.861  0.00  0.00    +0.000 C 
ATOM      6  C   UNL     1       6.366   6.095  15.133  0.00  0.00    +0.000 C 
ATOM      7  C   UNL     1       5.816   4.480  17.217  0.00  0.00    +0.000 C 
ENDROOT
BRANCH   6   8
ATOM      8  C   UNL     1       6.238   5.047  14.056  0.00  0.00    +0.000 A 
ATOM      9  C   UNL     1       7.327   4.741  13.224  0.00  0.00    +0.000 A 
ATOM     10  C   UNL     1       7.275   3.691  12.301  0.00  0.00    +0.000 A 
ATOM     11  C   UNL     1       6.117   2.913  12.177  0.00  0.00    +0.000 A 
ATOM     12  C   UNL     1       5.015   3.220  12.983  0.00  0.00    +0.000 A 
ATOM     13  C   UNL     1       5.086   4.257  13.917  0.00  0.00    +0.000 A 
BRANCH  11  14
ATOM     14  C   UNL     1       6.056   1.746  11.222  0.00  0.00    +0.000 C 
ATOM     15  F   UNL     1       5.006   1.805  10.356  0.00  0.00    +0.000 F 
ATOM     16  F   UNL     1       7.171   1.653  10.446  0.00  0.00    +0.000 F 
ATOM     17  F   UNL     1       5.946   0.551  11.863  0.00  0.00    +0.000 F 
ENDBRANCH  11  14
ENDBRANCH   6   8
BRANCH   1  18
ATOM     18  C   UNL     1       5.273   5.055  19.497  0.00  0.00    +0.000 C 
BRANCH  18  19
ATOM     19  C   UNL     1       3.929   4.322  19.402  0.00  0.00    +0.000 C 
BRANCH  19  20
ATOM     20  C   UNL     1       2.798   5.243  18.931  0.00  0.00    +0.000 C 
BRANCH  20  21
ATOM     21  S   UNL     1       2.255   6.427  20.211  0.00  0.00    +0.000 S 
BRANCH  21  24
ATOM     22  C   UNL     1       0.764   9.224  20.972  0.00  0.00    +0.000 C 
ATOM     23  N   UNL     1       1.334   8.958  19.676  0.00  0.00    +0.000 N 
ATOM     24  C   UNL     1       1.975   7.829  19.245  0.00  0.00    +0.000 A 
ATOM     25  N   UNL     1       2.372   7.990  18.003  0.00  0.00    +0.000 NA
ATOM     26  N   UNL     1       2.026   9.256  17.617  0.00  0.00    +0.000 NA
ATOM     27  C   UNL     1       1.407   9.853  18.622  0.00  0.00    +0.000 A 
BRANCH  27  28
ATOM     28  C   UNL     1       0.942  11.233  18.624  0.00  0.00    +0.000 A 
ATOM     29  C   UNL     1       1.841  12.296  18.601  0.00  0.00    +0.000 A 
ATOM     30  N   UNL     1       1.445  13.593  18.641  0.00  0.00    +0.000 NA
ATOM     31  C   UNL     1       0.108  13.788  18.681  0.00  0.00    +0.000 A 
ATOM     32  C   UNL     1      -0.792  12.736  18.686  0.00  0.00    +0.000 A 
ATOM     33  N   UNL     1      -0.400  11.441  18.666  0.00  0.00    +0.000 NA
ENDBRANCH  27  28
ENDBRANCH  21  24
ENDBRANCH  20  21
ENDBRANCH  19  20
ENDBRANCH  18  19
ENDBRANCH   1  18
TORSDOF 8
ENDMDL
MODEL 7
REMARK VINA RESULT:      -7.3      1.382      1.844
REMARK  Name = 
REMARK  9 active torsions:
REMARK  status: ('A' for Active; 'I' for Inactive)
REMARK    1  A    between atoms: C_1  and  N_2
REMARK    2  A    between atoms: C_3  and  S_4
REMARK    3  A    between atoms: S_4  and  C_5
REMARK    4  A    between atoms: C_5  and  C_6
REMARK    5  A    between atoms: C_6  and  C_7
REMARK    6  A    between atoms: C_7  and  N_8
REMARK    7  A    between atoms: C_13  and  C_14
REMARK    8  A    between atoms: C_17  and  C_18
REMARK    9  A    between atoms: C_27  and  C_28
REMARK                            x       y       z     vdW  Elec       q    Type
REMARK                         _______ _______ _______ _____ _____    ______ ____
ROOT
ATOM      1  N   UNL     1       2.255   6.408  18.623  0.00  0.00    +0.000 NA
ATOM      2  C   UNL     1       2.314   5.157  19.399  0.00  0.00    +0.000 C 
ATOM      3  C   UNL     1       3.791   4.952  19.702  0.00  0.00    +0.000 C 
ATOM      4  C   UNL     1       4.447   5.508  18.469  0.00  0.00    +0.000 C 
ATOM      5  C   UNL     1       5.870   6.014  18.531  0.00  0.00    +0.000 C 
ATOM      6  C   UNL     1       5.577   4.709  17.836  0.00  0.00    +0.000 C 
ATOM      7  C   UNL     1       3.421   6.318  17.701  0.00  0.00    +0.000 C 
ENDROOT
BRANCH   6   8
ATOM      8  C   UNL     1       5.788   4.569  16.350  0.00  0.00    +0.000 A 
ATOM      9  C   UNL     1       6.958   5.058  15.745  0.00  0.00    +0.000 A 
ATOM     10  C   UNL     1       7.235   4.834  14.392  0.00  0.00    +0.000 A 
ATOM     11  C   UNL     1       6.338   4.113  13.595  0.00  0.00    +0.000 A 
ATOM     12  C   UNL     1       5.157   3.638  14.176  0.00  0.00    +0.000 A 
ATOM     13  C   UNL     1       4.901   3.849  15.534  0.00  0.00    +0.000 A 
BRANCH  11  14
ATOM     14  C   UNL     1       6.640   3.818  12.146  0.00  0.00    +0.000 C 
ATOM     15  F   UNL     1       7.454   4.741  11.560  0.00  0.00    +0.000 F 
ATOM     16  F   UNL     1       7.262   2.618  11.980  0.00  0.00    +0.000 F 
ATOM     17  F   UNL     1       5.518   3.767  11.378  0.00  0.00    +0.000 F 
ENDBRANCH  11  14
ENDBRANCH   6   8
BRANCH   1  18
ATOM     18  C   UNL     1       2.378   7.628  19.439  0.00  0.00    +0.000 C 
BRANCH  18  19
ATOM     19  C   UNL     1       1.474   8.792  19.010  0.00  0.00    +0.000 C 
BRANCH  19  20
ATOM     20  C   UNL     1       0.791   9.465  20.205  0.00  0.00    +0.000 C 
BRANCH  20  21
ATOM     21  S   UNL     1       0.923  11.287  20.176  0.00  0.00    +0.000 S 
BRANCH  21  24
ATOM     22  C   UNL     1      -0.899  12.569  22.555  0.00  0.00    +0.000 C 
ATOM     23  N   UNL     1      -1.411  12.263  21.243  0.00  0.00    +0.000 N 
ATOM     24  C   UNL     1      -0.746  11.724  20.176  0.00  0.00    +0.000 A 
ATOM     25  N   UNL     1      -1.559  11.625  19.149  0.00  0.00    +0.000 NA
ATOM     26  N   UNL     1      -2.769  12.141  19.526  0.00  0.00    +0.000 NA
ATOM     27  C   UNL     1      -2.689  12.538  20.785  0.00  0.00    +0.000 A 
BRANCH  27  28
ATOM     28  C   UNL     1      -3.750  13.202  21.529  0.00  0.00    +0.000 A 
ATOM     29  C   UNL     1      -3.917  14.583  21.468  0.00  0.00    +0.000 A 
ATOM     30  N   UNL     1      -4.870  15.239  22.177  0.00  0.00    +0.000 NA
ATOM     31  C   UNL     1      -5.669  14.455  22.933  0.00  0.00    +0.000 A 
ATOM     32  C   UNL     1      -5.520  13.079  22.985  0.00  0.00    +0.000 A 
ATOM     33  N   UNL     1      -4.558  12.424  22.294  0.00  0.00    +0.000 NA
ENDBRANCH  27  28
ENDBRANCH  21  24
ENDBRANCH  20  21
ENDBRANCH  19  20
ENDBRANCH  18  19
ENDBRANCH   1  18
TORSDOF 8
ENDMDL
MODEL 8
REMARK VINA RESULT:      -7.3      1.129      1.695
REMARK  Name = 
REMARK  9 active torsions:
REMARK  status: ('A' for Active; 'I' for Inactive)
REMARK    1  A    between atoms: C_1  and  N_2
REMARK    2  A    between atoms: C_3  and  S_4
REMARK    3  A    between atoms: S_4  and  C_5
REMARK    4  A    between atoms: C_5  and  C_6
REMARK    5  A    between atoms: C_6  and  C_7
REMARK    6  A    between atoms: C_7  and  N_8
REMARK    7  A    between atoms: C_13  and  C_14
REMARK    8  A    between atoms: C_17  and  C_18
REMARK    9  A    between atoms: C_27  and  C_28
REMARK                            x       y       z     vdW  Elec       q    Type
REMARK                         _______ _______ _______ _____ _____    ______ ____
ROOT
ATOM      1  N   UNL     1       2.397   6.308  18.396  0.00  0.00    +0.000 NA
ATOM      2  C   UNL     1       2.514   5.170  19.324  0.00  0.00    +0.000 C 
ATOM      3  C   UNL     1       3.991   5.110  19.687  0.00  0.00    +0.000 C 
ATOM      4  C   UNL     1       4.648   5.556  18.411  0.00  0.00    +0.000 C 
ATOM      5  C   UNL     1       6.031   6.166  18.445  0.00  0.00    +0.000 C 
ATOM      6  C   UNL     1       5.851   4.768  17.912  0.00  0.00    +0.000 C 
ATOM      7  C   UNL     1       3.596   6.190  17.521  0.00  0.00    +0.000 C 
ENDROOT
BRANCH   6   8
ATOM      8  C   UNL     1       6.122   4.461  16.461  0.00  0.00    +0.000 A 
ATOM      9  C   UNL     1       5.409   3.447  15.800  0.00  0.00    +0.000 A 
ATOM     10  C   UNL     1       5.551   3.223  14.427  0.00  0.00    +0.000 A 
ATOM     11  C   UNL     1       6.426   4.009  13.667  0.00  0.00    +0.000 A 
ATOM     12  C   UNL     1       7.161   5.009  14.314  0.00  0.00    +0.000 A 
ATOM     13  C   UNL     1       6.994   5.239  15.683  0.00  0.00    +0.000 A 
BRANCH  11  14
ATOM     14  C   UNL     1       6.559   3.816  12.176  0.00  0.00    +0.000 C 
ATOM     15  F   UNL     1       7.101   2.616  11.829  0.00  0.00    +0.000 F 
ATOM     16  F   UNL     1       5.359   3.880  11.536  0.00  0.00    +0.000 F 
ATOM     17  F   UNL     1       7.343   4.764  11.594  0.00  0.00    +0.000 F 
ENDBRANCH  11  14
ENDBRANCH   6   8
BRANCH   1  18
ATOM     18  C   UNL     1       2.408   7.626  19.055  0.00  0.00    +0.000 C 
BRANCH  18  19
ATOM     19  C   UNL     1       1.948   7.626  20.518  0.00  0.00    +0.000 C 
BRANCH  19  20
ATOM     20  C   UNL     1       0.661   8.431  20.721  0.00  0.00    +0.000 C 
BRANCH  20  21
ATOM     21  S   UNL     1       0.837  10.193  20.272  0.00  0.00    +0.000 S 
BRANCH  21  24
ATOM     22  C   UNL     1       0.278  13.348  20.869  0.00  0.00    +0.000 C 
ATOM     23  N   UNL     1      -0.215  12.284  21.706  0.00  0.00    +0.000 N 
ATOM     24  C   UNL     1      -0.041  10.936  21.558  0.00  0.00    +0.000 A 
ATOM     25  N   UNL     1      -0.671  10.298  22.518  0.00  0.00    +0.000 NA
ATOM     26  N   UNL     1      -1.304  11.232  23.292  0.00  0.00    +0.000 NA
ATOM     27  C   UNL     1      -1.043  12.434  22.806  0.00  0.00    +0.000 A 
BRANCH  27  28
ATOM     28  C   UNL     1      -1.589  13.684  23.314  0.00  0.00    +0.000 A 
ATOM     29  C   UNL     1      -2.910  14.048  23.065  0.00  0.00    +0.000 A 
ATOM     30  N   UNL     1      -3.441  15.222  23.490  0.00  0.00    +0.000 NA
ATOM     31  C   UNL     1      -2.604  16.012  24.198  0.00  0.00    +0.000 A 
ATOM     32  C   UNL     1      -1.294  15.648  24.465  0.00  0.00    +0.000 A 
ATOM     33  N   UNL     1      -0.756  14.487  24.026  0.00  0.00    +0.000 NA
ENDBRANCH  27  28
ENDBRANCH  21  24
ENDBRANCH  20  21
ENDBRANCH  19  20
ENDBRANCH  18  19
ENDBRANCH   1  18
TORSDOF 8
ENDMDL
MODEL 9
REMARK VINA RESULT:      -7.3      3.758      6.162
REMARK  Name = 
REMARK  9 active torsions:
REMARK  status: ('A' for Active; 'I' for Inactive)
REMARK    1  A    between atoms: C_1  and  N_2
REMARK    2  A    between atoms: C_3  and  S_4
REMARK    3  A    between atoms: S_4  and  C_5
REMARK    4  A    between atoms: C_5  and  C_6
REMARK    5  A    between atoms: C_6  and  C_7
REMARK    6  A    between atoms: C_7  and  N_8
REMARK    7  A    between atoms: C_13  and  C_14
REMARK    8  A    between atoms: C_17  and  C_18
REMARK    9  A    between atoms: C_27  and  C_28
REMARK                            x       y       z     vdW  Elec       q    Type
REMARK                         _______ _______ _______ _____ _____    ______ ____
ROOT
ATOM      1  N   UNL     1       0.852  10.612  21.363  0.00  0.00    +0.000 NA
ATOM      2  C   UNL     1       1.548  11.696  20.650  0.00  0.00    +0.000 C 
ATOM      3  C   UNL     1       1.164  11.516  19.189  0.00  0.00    +0.000 C 
ATOM      4  C   UNL     1       1.055  10.022  19.073  0.00  0.00    +0.000 C 
ATOM      5  C   UNL     1       0.190   9.408  17.996  0.00  0.00    +0.000 C 
ATOM      6  C   UNL     1       1.691   9.349  17.865  0.00  0.00    +0.000 C 
ATOM      7  C   UNL     1       1.005   9.431  20.469  0.00  0.00    +0.000 C 
ENDROOT
BRANCH   6   8
ATOM      8  C   UNL     1       2.413   8.026  17.913  0.00  0.00    +0.000 A 
ATOM      9  C   UNL     1       1.733   6.854  18.282  0.00  0.00    +0.000 A 
ATOM     10  C   UNL     1       2.345   5.598  18.218  0.00  0.00    +0.000 A 
ATOM     11  C   UNL     1       3.670   5.476  17.784  0.00  0.00    +0.000 A 
ATOM     12  C   UNL     1       4.370   6.637  17.433  0.00  0.00    +0.000 A 
ATOM     13  C   UNL     1       3.741   7.885  17.481  0.00  0.00    +0.000 A 
BRANCH  11  14
ATOM     14  C   UNL     1       4.334   4.127  17.660  0.00  0.00    +0.000 C 
ATOM     15  F   UNL     1       5.113   3.803  18.730  0.00  0.00    +0.000 F 
ATOM     16  F   UNL     1       3.431   3.115  17.539  0.00  0.00    +0.000 F 
ATOM     17  F   UNL     1       5.142   4.039  16.569  0.00  0.00    +0.000 F 
ENDBRANCH  11  14
ENDBRANCH   6   8
BRANCH   1  18
ATOM     18  C   UNL     1      -0.583  10.864  21.588  0.00  0.00    +0.000 C 
BRANCH  18  19
ATOM     19  C   UNL     1      -0.899  12.037  22.525  0.00  0.00    +0.000 C 
BRANCH  19  20
ATOM     20  C   UNL     1      -2.111  11.754  23.418  0.00  0.00    +0.000 C 
BRANCH  20  21
ATOM     21  S   UNL     1      -3.119  13.241  23.754  0.00  0.00    +0.000 S 
BRANCH  21  24
ATOM     22  C   UNL     1      -3.502  14.054  20.621  0.00  0.00    +0.000 C 
ATOM     23  N   UNL     1      -4.501  13.351  21.385  0.00  0.00    +0.000 N 
ATOM     24  C   UNL     1      -4.452  12.963  22.696  0.00  0.00    +0.000 A 
ATOM     25  N   UNL     1      -5.554  12.321  23.011  0.00  0.00    +0.000 NA
ATOM     26  N   UNL     1      -6.328  12.246  21.885  0.00  0.00    +0.000 NA
ATOM     27  C   UNL     1      -5.699  12.856  20.895  0.00  0.00    +0.000 A 
BRANCH  27  28
ATOM     28  C   UNL     1      -6.169  12.934  19.519  0.00  0.00    +0.000 A 
ATOM     29  C   UNL     1      -7.367  13.568  19.202  0.00  0.00    +0.000 A 
ATOM     30  N   UNL     1      -7.855  13.626  17.937  0.00  0.00    +0.000 NA
ATOM     31  C   UNL     1      -7.083  13.044  16.993  0.00  0.00    +0.000 A 
ATOM     32  C   UNL     1      -5.881  12.427  17.299  0.00  0.00    +0.000 A 
ATOM     33  N   UNL     1      -5.402  12.350  18.562  0.00  0.00    +0.000 NA
ENDBRANCH  27  28
ENDBRANCH  21  24
ENDBRANCH  20  21
ENDBRANCH  19  20
ENDBRANCH  18  19
ENDBRANCH   1  18
TORSDOF 8
ENDMDL
