MODEL 1
REMARK VINA RESULT:      -8.2      0.000      0.000
REMARK  Name = 
REMARK  7 active torsions:
REMARK  status: ('A' for Active; 'I' for Inactive)
REMARK    1  A    between atoms: C_1  and  N_2
REMARK    2  A    between atoms: C_8  and  C_9
REMARK    3  A    between atoms: N_11  and  C_12
REMARK    4  A    between atoms: C_12  and  C_13
REMARK    5  A    between atoms: C_13  and  C_14
REMARK    6  A    between atoms: C_14  and  O_15
REMARK    7  A    between atoms: O_15  and  C_16
REMARK                            x       y       z     vdW  Elec       q    Type
REMARK                         _______ _______ _______ _____ _____    ______ ____
ROOT
ATOM      1  C   UNL     1       5.138   3.666  18.528  0.00  0.00    +0.000 C 
ATOM      2  O   UNL     1       4.875   3.498  17.342  0.00  0.00    +0.000 OA
ATOM      3  N   UNL     1       6.271   4.333  18.937  0.00  0.00    +0.000 N 
ATOM      4  H   UNL     1       6.378   4.612  19.899  0.00  0.00    +0.000 HD
ENDROOT
BRANCH   1  12
ATOM      5  C   UNL     1       2.138   5.549  18.756  0.00  0.00    +0.000 C 
ATOM      6  N   UNL     1       1.962   4.344  19.536  0.00  0.00    +0.000 N 
ATOM      7  C   UNL     1       0.911   4.085  20.425  0.00  0.00    +0.000 A 
ATOM      8  C   UNL     1       1.275   3.108  21.279  0.00  0.00    +0.000 A 
ATOM      9  N   UNL     1       2.575   2.762  20.952  0.00  0.00    +0.000 N 
ATOM     10  N   UNL     1       3.522   1.935  21.418  0.00  0.00    +0.000 NA
ATOM     11  C   UNL     1       4.556   2.181  20.598  0.00  0.00    +0.000 A 
ATOM     12  C   UNL     1       4.298   3.174  19.601  0.00  0.00    +0.000 A 
ATOM     13  C   UNL     1       3.003   3.525  19.885  0.00  0.00    +0.000 A 
ENDBRANCH   1  12
BRANCH   3  14
ATOM     14  C   UNL     1       7.253   4.792  17.975  0.00  0.00    +0.000 C 
BRANCH  14  15
ATOM     15  C   UNL     1       7.013   6.268  17.617  0.00  0.00    +0.000 C 
ATOM     16  C   UNL     1       8.152   6.881  18.573  0.00  0.00    +0.000 C 
ATOM     17  C   UNL     1       7.657   7.731  17.569  0.00  0.00    +0.000 C 
BRANCH  15  18
ATOM     18  C   UNL     1       6.420   6.263  16.179  0.00  0.00    +0.000 C 
BRANCH  18  19
ATOM     19  O   UNL     1       7.416   5.768  15.274  0.00  0.00    +0.000 OA
BRANCH  19  20
ATOM     20  C   UNL     1       6.953   5.019  14.227  0.00  0.00    +0.000 A 
ATOM     21  C   UNL     1       7.749   5.037  13.078  0.00  0.00    +0.000 A 
ATOM     22  C   UNL     1       7.392   4.287  11.955  0.00  0.00    +0.000 A 
ATOM     23  C   UNL     1       6.242   3.500  11.980  0.00  0.00    +0.000 A 
ATOM     24  C   UNL     1       5.458   3.462  13.133  0.00  0.00    +0.000 A 
ATOM     25  C   UNL     1       5.811   4.218  14.254  0.00  0.00    +0.000 A 
ENDBRANCH  19  20
ENDBRANCH  18  19
ENDBRANCH  15  18
ENDBRANCH  14  15
ENDBRANCH   3  14
TORSDOF 6
ENDMDL
MODEL 2
REMARK VINA RESULT:      -8.0      1.299      1.526
REMARK  Name = 
REMARK  7 active torsions:
REMARK  status: ('A' for Active; 'I' for Inactive)
REMARK    1  A    between atoms: C_1  and  N_2
REMARK    2  A    between atoms: C_8  and  C_9
REMARK    3  A    between atoms: N_11  and  C_12
REMARK    4  A    between atoms: C_12  and  C_13
REMARK    5  A    between atoms: C_13  and  C_14
REMARK    6  A    between atoms: C_14  and  O_15
REMARK    7  A    between atoms: O_15  and  C_16
REMARK                            x       y       z     vdW  Elec       q    Type
REMARK                         _______ _______ _______ _____ _____    ______ ____
ROOT
ATOM      1  C   UNL     1       5.324   4.051  18.915  0.00  0.00    +0.000 C 
ATOM      2  O   UNL     1       5.529   4.559  20.012  0.00  0.00    +0.000 OA
ATOM      3  N   UNL     1       6.215   4.183  17.872  0.00  0.00    +0.000 N 
ATOM      4  H   UNL     1       6.116   3.620  17.044  0.00  0.00    +0.000 HD
ENDROOT
BRANCH   1  12
ATOM      5  C   UNL     1       2.676   4.875  21.130  0.00  0.00    +0.000 C 
ATOM      6  N   UNL     1       2.110   4.141  20.020  0.00  0.00    +0.000 N 
ATOM      7  C   UNL     1       0.810   3.624  19.954  0.00  0.00    +0.000 A 
ATOM      8  C   UNL     1       0.759   2.657  19.016  0.00  0.00    +0.000 A 
ATOM      9  N   UNL     1       2.038   2.537  18.503  0.00  0.00    +0.000 N 
ATOM     10  N   UNL     1       2.677   1.758  17.617  0.00  0.00    +0.000 NA
ATOM     11  C   UNL     1       3.937   2.214  17.679  0.00  0.00    +0.000 A 
ATOM     12  C   UNL     1       4.135   3.283  18.609  0.00  0.00    +0.000 A 
ATOM     13  C   UNL     1       2.874   3.443  19.123  0.00  0.00    +0.000 A 
ENDBRANCH   1  12
BRANCH   3  14
ATOM     14  C   UNL     1       7.399   5.009  18.005  0.00  0.00    +0.000 C 
BRANCH  14  15
ATOM     15  C   UNL     1       7.109   6.449  17.552  0.00  0.00    +0.000 C 
ATOM     16  C   UNL     1       8.092   7.176  18.597  0.00  0.00    +0.000 C 
ATOM     17  C   UNL     1       7.662   7.949  17.506  0.00  0.00    +0.000 C 
BRANCH  15  18
ATOM     18  C   UNL     1       6.683   6.345  16.060  0.00  0.00    +0.000 C 
BRANCH  18  19
ATOM     19  O   UNL     1       7.588   5.461  15.386  0.00  0.00    +0.000 OA
BRANCH  19  20
ATOM     20  C   UNL     1       7.106   4.859  14.256  0.00  0.00    +0.000 A 
ATOM     21  C   UNL     1       7.790   5.161  13.076  0.00  0.00    +0.000 A 
ATOM     22  C   UNL     1       7.406   4.583  11.864  0.00  0.00    +0.000 A 
ATOM     23  C   UNL     1       6.340   3.685  11.828  0.00  0.00    +0.000 A 
ATOM     24  C   UNL     1       5.669   3.365  13.007  0.00  0.00    +0.000 A 
ATOM     25  C   UNL     1       6.049   3.949  14.219  0.00  0.00    +0.000 A 
ENDBRANCH  19  20
ENDBRANCH  18  19
ENDBRANCH  15  18
ENDBRANCH  14  15
ENDBRANCH   3  14
TORSDOF 6
ENDMDL
MODEL 3
REMARK VINA RESULT:      -7.9      1.440      2.129
REMARK  Name = 
REMARK  7 active torsions:
REMARK  status: ('A' for Active; 'I' for Inactive)
REMARK    1  A    between atoms: C_1  and  N_2
REMARK    2  A    between atoms: C_8  and  C_9
REMARK    3  A    between atoms: N_11  and  C_12
REMARK    4  A    between atoms: C_12  and  C_13
REMARK    5  A    between atoms: C_13  and  C_14
REMARK    6  A    between atoms: C_14  and  O_15
REMARK    7  A    between atoms: O_15  and  C_16
REMARK                            x       y       z     vdW  Elec       q    Type
REMARK                         _______ _______ _______ _____ _____    ______ ____
ROOT
ATOM      1  C   UNL     1       4.561   4.919  18.892  0.00  0.00    +0.000 C 
ATOM      2  O   UNL     1       4.334   5.871  19.630  0.00  0.00    +0.000 OA
ATOM      3  N   UNL     1       5.833   4.627  18.449  0.00  0.00    +0.000 N 
ATOM      4  H   UNL     1       6.023   3.750  17.993  0.00  0.00    +0.000 HD
ENDROOT
BRANCH   1  12
ATOM      5  C   UNL     1       2.392   3.954  21.531  0.00  0.00    +0.000 C 
ATOM      6  N   UNL     1       1.753   3.600  20.283  0.00  0.00    +0.000 N 
ATOM      7  C   UNL     1       0.615   2.796  20.140  0.00  0.00    +0.000 A 
ATOM      8  C   UNL     1       0.554   2.323  18.880  0.00  0.00    +0.000 A 
ATOM      9  N   UNL     1       1.673   2.804  18.223  0.00  0.00    +0.000 N 
ATOM     10  N   UNL     1       2.239   2.676  17.013  0.00  0.00    +0.000 NA
ATOM     11  C   UNL     1       3.351   3.419  17.129  0.00  0.00    +0.000 A 
ATOM     12  C   UNL     1       3.526   4.026  18.412  0.00  0.00    +0.000 A 
ATOM     13  C   UNL     1       2.417   3.585  19.085  0.00  0.00    +0.000 A 
ENDBRANCH   1  12
BRANCH   3  14
ATOM     14  C   UNL     1       6.950   5.494  18.768  0.00  0.00    +0.000 C 
BRANCH  14  15
ATOM     15  C   UNL     1       6.964   6.722  17.843  0.00  0.00    +0.000 C 
ATOM     16  C   UNL     1       8.191   7.479  18.557  0.00  0.00    +0.000 C 
ATOM     17  C   UNL     1       7.849   7.924  17.268  0.00  0.00    +0.000 C 
BRANCH  15  18
ATOM     18  C   UNL     1       6.379   6.236  16.486  0.00  0.00    +0.000 C 
BRANCH  18  19
ATOM     19  O   UNL     1       7.456   5.760  15.667  0.00  0.00    +0.000 OA
BRANCH  19  20
ATOM     20  C   UNL     1       7.092   5.065  14.546  0.00  0.00    +0.000 A 
ATOM     21  C   UNL     1       5.924   4.307  14.663  0.00  0.00    +0.000 A 
ATOM     22  C   UNL     1       5.438   3.578  13.575  0.00  0.00    +0.000 A 
ATOM     23  C   UNL     1       6.112   3.616  12.356  0.00  0.00    +0.000 A 
ATOM     24  C   UNL     1       7.265   4.389  12.229  0.00  0.00    +0.000 A 
ATOM     25  C   UNL     1       7.755   5.113  13.320  0.00  0.00    +0.000 A 
ENDBRANCH  19  20
ENDBRANCH  18  19
ENDBRANCH  15  18
ENDBRANCH  14  15
ENDBRANCH   3  14
TORSDOF 6
ENDMDL
MODEL 4
REMARK VINA RESULT:      -7.9      1.175      1.527
REMARK  Name = 
REMARK  7 active torsions:
REMARK  status: ('A' for Active; 'I' for Inactive)
REMARK    1  A    between atoms: C_1  and  N_2
REMARK    2  A    between atoms: C_8  and  C_9
REMARK    3  A    between atoms: N_11  and  C_12
REMARK    4  A    between atoms: C_12  and  C_13
REMARK    5  A    between atoms: C_13  and  C_14
REMARK    6  A    between atoms: C_14  and  O_15
REMARK    7  A    between atoms: O_15  and  C_16
REMARK                            x       y       z     vdW  Elec       q    Type
REMARK                         _______ _______ _______ _____ _____    ______ ____
ROOT
ATOM      1  C   UNL     1       5.547   4.349  19.165  0.00  0.00    +0.000 C 
ATOM      2  O   UNL     1       5.625   5.286  19.952  0.00  0.00    +0.000 OA
ATOM      3  N   UNL     1       6.498   4.134  18.191  0.00  0.00    +0.000 N 
ATOM      4  H   UNL     1       6.511   3.270  17.675  0.00  0.00    +0.000 HD
ENDROOT
BRANCH   1  12
ATOM      5  C   UNL     1       2.489   5.927  20.034  0.00  0.00    +0.000 C 
ATOM      6  N   UNL     1       2.174   4.628  19.482  0.00  0.00    +0.000 N 
ATOM      7  C   UNL     1       0.922   4.000  19.521  0.00  0.00    +0.000 A 
ATOM      8  C   UNL     1       1.078   2.677  19.323  0.00  0.00    +0.000 A 
ATOM      9  N   UNL     1       2.438   2.454  19.188  0.00  0.00    +0.000 N 
ATOM     10  N   UNL     1       3.255   1.402  19.034  0.00  0.00    +0.000 NA
ATOM     11  C   UNL     1       4.470   1.974  19.020  0.00  0.00    +0.000 A 
ATOM     12  C   UNL     1       4.457   3.395  19.175  0.00  0.00    +0.000 A 
ATOM     13  C   UNL     1       3.115   3.652  19.292  0.00  0.00    +0.000 A 
ENDBRANCH   1  12
BRANCH   3  14
ATOM     14  C   UNL     1       7.591   5.067  17.999  0.00  0.00    +0.000 C 
BRANCH  14  15
ATOM     15  C   UNL     1       7.057   6.453  17.599  0.00  0.00    +0.000 C 
ATOM     16  C   UNL     1       8.084   7.313  18.490  0.00  0.00    +0.000 C 
ATOM     17  C   UNL     1       7.403   8.009  17.476  0.00  0.00    +0.000 C 
BRANCH  15  18
ATOM     18  C   UNL     1       6.434   6.273  16.185  0.00  0.00    +0.000 C 
BRANCH  18  19
ATOM     19  O   UNL     1       7.427   5.716  15.314  0.00  0.00    +0.000 OA
BRANCH  19  20
ATOM     20  C   UNL     1       6.956   4.948  14.284  0.00  0.00    +0.000 A 
ATOM     21  C   UNL     1       5.705   4.361  14.496  0.00  0.00    +0.000 A 
ATOM     22  C   UNL     1       5.110   3.580  13.503  0.00  0.00    +0.000 A 
ATOM     23  C   UNL     1       5.757   3.393  12.283  0.00  0.00    +0.000 A 
ATOM     24  C   UNL     1       6.995   3.995  12.059  0.00  0.00    +0.000 A 
ATOM     25  C   UNL     1       7.594   4.772  13.056  0.00  0.00    +0.000 A 
ENDBRANCH  19  20
ENDBRANCH  18  19
ENDBRANCH  15  18
ENDBRANCH  14  15
ENDBRANCH   3  14
TORSDOF 6
ENDMDL
MODEL 5
REMARK VINA RESULT:      -7.5      1.320      1.432
REMARK  Name = 
REMARK  7 active torsions:
REMARK  status: ('A' for Active; 'I' for Inactive)
REMARK    1  A    between atoms: C_1  and  N_2
REMARK    2  A    between atoms: C_8  and  C_9
REMARK    3  A    between atoms: N_11  and  C_12
REMARK    4  A    between atoms: C_12  and  C_13
REMARK    5  A    between atoms: C_13  and  C_14
REMARK    6  A    between atoms: C_14  and  O_15
REMARK    7  A    between atoms: O_15  and  C_16
REMARK                            x       y       z     vdW  Elec       q    Type
REMARK                         _______ _______ _______ _____ _____    ______ ____
ROOT
ATOM      1  C   UNL     1       5.631   4.426  19.195  0.00  0.00    +0.000 C 
ATOM      2  O   UNL     1       5.861   5.318  20.004  0.00  0.00    +0.000 OA
ATOM      3  N   UNL     1       6.502   4.128  18.170  0.00  0.00    +0.000 N 
ATOM      4  H   UNL     1       6.382   3.287  17.630  0.00  0.00    +0.000 HD
ENDROOT
BRANCH   1  12
ATOM      5  C   UNL     1       2.841   6.227  17.942  0.00  0.00    +0.000 C 
ATOM      6  N   UNL     1       2.473   4.830  18.001  0.00  0.00    +0.000 N 
ATOM      7  C   UNL     1       1.181   4.312  17.843  0.00  0.00    +0.000 A 
ATOM      8  C   UNL     1       1.125   3.076  18.378  0.00  0.00    +0.000 A 
ATOM      9  N   UNL     1       2.378   2.816  18.905  0.00  0.00    +0.000 N 
ATOM     10  N   UNL     1       2.971   1.835  19.602  0.00  0.00    +0.000 NA
ATOM     11  C   UNL     1       4.209   2.317  19.792  0.00  0.00    +0.000 A 
ATOM     12  C   UNL     1       4.431   3.615  19.233  0.00  0.00    +0.000 A 
ATOM     13  C   UNL     1       3.208   3.895  18.681  0.00  0.00    +0.000 A 
ENDBRANCH   1  12
BRANCH   3  14
ATOM     14  C   UNL     1       7.693   4.924  17.950  0.00  0.00    +0.000 C 
BRANCH  14  15
ATOM     15  C   UNL     1       7.319   6.347  17.501  0.00  0.00    +0.000 C 
ATOM     16  C   UNL     1       8.163   7.126  18.628  0.00  0.00    +0.000 C 
ATOM     17  C   UNL     1       7.750   7.887  17.520  0.00  0.00    +0.000 C 
BRANCH  15  18
ATOM     18  C   UNL     1       7.012   6.242  15.980  0.00  0.00    +0.000 C 
BRANCH  18  19
ATOM     19  O   UNL     1       6.672   4.883  15.674  0.00  0.00    +0.000 OA
BRANCH  19  20
ATOM     20  C   UNL     1       6.655   4.556  14.345  0.00  0.00    +0.000 A 
ATOM     21  C   UNL     1       7.627   5.183  13.560  0.00  0.00    +0.000 A 
ATOM     22  C   UNL     1       7.726   4.905  12.195  0.00  0.00    +0.000 A 
ATOM     23  C   UNL     1       6.858   3.985  11.608  0.00  0.00    +0.000 A 
ATOM     24  C   UNL     1       5.902   3.342  12.392  0.00  0.00    +0.000 A 
ATOM     25  C   UNL     1       5.799   3.625  13.757  0.00  0.00    +0.000 A 
ENDBRANCH  19  20
ENDBRANCH  18  19
ENDBRANCH  15  18
ENDBRANCH  14  15
ENDBRANCH   3  14
TORSDOF 6
ENDMDL
MODEL 6
REMARK VINA RESULT:      -7.4      3.331      5.579
REMARK  Name = 
REMARK  7 active torsions:
REMARK  status: ('A' for Active; 'I' for Inactive)
REMARK    1  A    between atoms: C_1  and  N_2
REMARK    2  A    between atoms: C_8  and  C_9
REMARK    3  A    between atoms: N_11  and  C_12
REMARK    4  A    between atoms: C_12  and  C_13
REMARK    5  A    between atoms: C_13  and  C_14
REMARK    6  A    between atoms: C_14  and  O_15
REMARK    7  A    between atoms: O_15  and  C_16
REMARK                            x       y       z     vdW  Elec       q    Type
REMARK                         _______ _______ _______ _____ _____    ______ ____
ROOT
ATOM      1  C   UNL     1       2.942   6.882  17.797  0.00  0.00    +0.000 C 
ATOM      2  O   UNL     1       2.387   5.794  17.692  0.00  0.00    +0.000 OA
ATOM      3  N   UNL     1       4.252   7.072  17.416  0.00  0.00    +0.000 N 
ATOM      4  H   UNL     1       4.631   8.002  17.346  0.00  0.00    +0.000 HD
ENDROOT
BRANCH   1  12
ATOM      5  C   UNL     1       1.507   6.191  20.969  0.00  0.00    +0.000 C 
ATOM      6  N   UNL     1       1.535   7.627  20.802  0.00  0.00    +0.000 N 
ATOM      7  C   UNL     1       0.885   8.563  21.616  0.00  0.00    +0.000 A 
ATOM      8  C   UNL     1       0.757   9.726  20.948  0.00  0.00    +0.000 A 
ATOM      9  N   UNL     1       1.301   9.523  19.692  0.00  0.00    +0.000 N 
ATOM     10  N   UNL     1       1.443  10.219  18.554  0.00  0.00    +0.000 NA
ATOM     11  C   UNL     1       2.042   9.334  17.742  0.00  0.00    +0.000 A 
ATOM     12  C   UNL     1       2.285   8.056  18.336  0.00  0.00    +0.000 A 
ATOM     13  C   UNL     1       1.774   8.230  19.596  0.00  0.00    +0.000 A 
ENDBRANCH   1  12
BRANCH   3  14
ATOM     14  C   UNL     1       5.061   5.962  16.954  0.00  0.00    +0.000 C 
BRANCH  14  15
ATOM     15  C   UNL     1       6.199   5.671  17.946  0.00  0.00    +0.000 C 
ATOM     16  C   UNL     1       7.267   6.693  17.311  0.00  0.00    +0.000 C 
ATOM     17  C   UNL     1       7.539   6.236  18.613  0.00  0.00    +0.000 C 
BRANCH  15  18
ATOM     18  C   UNL     1       5.506   5.199  19.256  0.00  0.00    +0.000 C 
BRANCH  18  19
ATOM     19  O   UNL     1       5.481   3.766  19.270  0.00  0.00    +0.000 OA
BRANCH  19  20
ATOM     20  C   UNL     1       4.258   3.187  19.062  0.00  0.00    +0.000 A 
ATOM     21  C   UNL     1       3.406   3.169  20.170  0.00  0.00    +0.000 A 
ATOM     22  C   UNL     1       2.122   2.631  20.070  0.00  0.00    +0.000 A 
ATOM     23  C   UNL     1       1.675   2.119  18.853  0.00  0.00    +0.000 A 
ATOM     24  C   UNL     1       2.514   2.155  17.740  0.00  0.00    +0.000 A 
ATOM     25  C   UNL     1       3.802   2.688  17.842  0.00  0.00    +0.000 A 
ENDBRANCH  19  20
ENDBRANCH  18  19
ENDBRANCH  15  18
ENDBRANCH  14  15
ENDBRANCH   3  14
TORSDOF 6
ENDMDL
MODEL 7
REMARK VINA RESULT:      -7.4      1.450      4.020
REMARK  Name = 
REMARK  7 active torsions:
REMARK  status: ('A' for Active; 'I' for Inactive)
REMARK    1  A    between atoms: C_1  and  N_2
REMARK    2  A    between atoms: C_8  and  C_9
REMARK    3  A    between atoms: N_11  and  C_12
REMARK    4  A    between atoms: C_12  and  C_13
REMARK    5  A    between atoms: C_13  and  C_14
REMARK    6  A    between atoms: C_14  and  O_15
REMARK    7  A    between atoms: O_15  and  C_16
REMARK                            x       y       z     vdW  Elec       q    Type
REMARK                         _______ _______ _______ _____ _____    ______ ____
ROOT
ATOM      1  C   UNL     1       3.890   4.358  16.968  0.00  0.00    +0.000 C 
ATOM      2  O   UNL     1       3.777   5.571  17.102  0.00  0.00    +0.000 OA
ATOM      3  N   UNL     1       4.429   3.796  15.832  0.00  0.00    +0.000 N 
ATOM      4  H   UNL     1       4.673   2.820  15.814  0.00  0.00    +0.000 HD
ENDROOT
BRANCH   1  12
ATOM      5  C   UNL     1       2.519   6.026  19.786  0.00  0.00    +0.000 C 
ATOM      6  N   UNL     1       2.155   4.629  19.880  0.00  0.00    +0.000 N 
ATOM      7  C   UNL     1       1.594   4.000  20.998  0.00  0.00    +0.000 A 
ATOM      8  C   UNL     1       1.787   2.669  20.908  0.00  0.00    +0.000 A 
ATOM      9  N   UNL     1       2.502   2.451  19.743  0.00  0.00    +0.000 N 
ATOM     10  N   UNL     1       3.055   1.409  19.105  0.00  0.00    +0.000 NA
ATOM     11  C   UNL     1       3.627   1.989  18.038  0.00  0.00    +0.000 A 
ATOM     12  C   UNL     1       3.462   3.408  17.975  0.00  0.00    +0.000 A 
ATOM     13  C   UNL     1       2.736   3.656  19.111  0.00  0.00    +0.000 A 
ENDBRANCH   1  12
BRANCH   3  14
ATOM     14  C   UNL     1       4.806   4.621  14.701  0.00  0.00    +0.000 C 
BRANCH  14  15
ATOM     15  C   UNL     1       6.044   4.041  13.997  0.00  0.00    +0.000 C 
ATOM     16  C   UNL     1       5.307   3.638  12.625  0.00  0.00    +0.000 C 
ATOM     17  C   UNL     1       6.711   3.693  12.585  0.00  0.00    +0.000 C 
BRANCH  15  18
ATOM     18  C   UNL     1       7.267   4.770  14.623  0.00  0.00    +0.000 C 
BRANCH  18  19
ATOM     19  O   UNL     1       6.795   5.910  15.353  0.00  0.00    +0.000 OA
BRANCH  19  20
ATOM     20  C   UNL     1       7.223   6.009  16.649  0.00  0.00    +0.000 A 
ATOM     21  C   UNL     1       7.395   4.794  17.318  0.00  0.00    +0.000 A 
ATOM     22  C   UNL     1       7.855   4.768  18.636  0.00  0.00    +0.000 A 
ATOM     23  C   UNL     1       8.162   5.960  19.290  0.00  0.00    +0.000 A 
ATOM     24  C   UNL     1       8.013   7.173  18.619  0.00  0.00    +0.000 A 
ATOM     25  C   UNL     1       7.545   7.199  17.301  0.00  0.00    +0.000 A 
ENDBRANCH  19  20
ENDBRANCH  18  19
ENDBRANCH  15  18
ENDBRANCH  14  15
ENDBRANCH   3  14
TORSDOF 6
ENDMDL
MODEL 8
REMARK VINA RESULT:      -7.3      3.602      6.261
REMARK  Name = 
REMARK  7 active torsions:
REMARK  status: ('A' for Active; 'I' for Inactive)
REMARK    1  A    between atoms: C_1  and  N_2
REMARK    2  A    between atoms: C_8  and  C_9
REMARK    3  A    between atoms: N_11  and  C_12
REMARK    4  A    between atoms: C_12  and  C_13
REMARK    5  A    between atoms: C_13  and  C_14
REMARK    6  A    between atoms: C_14  and  O_15
REMARK    7  A    between atoms: O_15  and  C_16
REMARK                            x       y       z     vdW  Elec       q    Type
REMARK                         _______ _______ _______ _____ _____    ______ ____
ROOT
ATOM      1  C   UNL     1       2.611   8.114  18.181  0.00  0.00    +0.000 C 
ATOM      2  O   UNL     1       2.389   8.778  17.175  0.00  0.00    +0.000 OA
ATOM      3  N   UNL     1       3.588   7.143  18.213  0.00  0.00    +0.000 N 
ATOM      4  H   UNL     1       3.871   6.736  19.089  0.00  0.00    +0.000 HD
ENDROOT
BRANCH   1  12
ATOM      5  C   UNL     1       1.597  11.488  18.618  0.00  0.00    +0.000 C 
ATOM      6  N   UNL     1       0.847  10.678  19.552  0.00  0.00    +0.000 N 
ATOM      7  C   UNL     1       0.061  11.155  20.609  0.00  0.00    +0.000 A 
ATOM      8  C   UNL     1      -0.124  10.171  21.510  0.00  0.00    +0.000 A 
ATOM      9  N   UNL     1       0.570   9.069  21.042  0.00  0.00    +0.000 N 
ATOM     10  N   UNL     1       0.844   7.825  21.460  0.00  0.00    +0.000 NA
ATOM     11  C   UNL     1       1.622   7.349  20.475  0.00  0.00    +0.000 A 
ATOM     12  C   UNL     1       1.870   8.277  19.416  0.00  0.00    +0.000 A 
ATOM     13  C   UNL     1       1.175   9.379  19.841  0.00  0.00    +0.000 A 
ENDBRANCH   1  12
BRANCH   3  14
ATOM     14  C   UNL     1       4.339   6.803  17.022  0.00  0.00    +0.000 C 
BRANCH  14  15
ATOM     15  C   UNL     1       4.727   5.315  17.032  0.00  0.00    +0.000 C 
ATOM     16  C   UNL     1       5.345   5.273  15.547  0.00  0.00    +0.000 C 
ATOM     17  C   UNL     1       5.679   4.200  16.392  0.00  0.00    +0.000 C 
BRANCH  15  18
ATOM     18  C   UNL     1       4.965   4.951  18.525  0.00  0.00    +0.000 C 
BRANCH  18  19
ATOM     19  O   UNL     1       4.609   3.576  18.724  0.00  0.00    +0.000 OA
BRANCH  19  20
ATOM     20  C   UNL     1       3.304   3.340  19.061  0.00  0.00    +0.000 A 
ATOM     21  C   UNL     1       2.897   3.863  20.291  0.00  0.00    +0.000 A 
ATOM     22  C   UNL     1       1.580   3.709  20.728  0.00  0.00    +0.000 A 
ATOM     23  C   UNL     1       0.654   3.043  19.926  0.00  0.00    +0.000 A 
ATOM     24  C   UNL     1       1.050   2.539  18.688  0.00  0.00    +0.000 A 
ATOM     25  C   UNL     1       2.371   2.687  18.254  0.00  0.00    +0.000 A 
ENDBRANCH  19  20
ENDBRANCH  18  19
ENDBRANCH  15  18
ENDBRANCH  14  15
ENDBRANCH   3  14
TORSDOF 6
ENDMDL
MODEL 9
REMARK VINA RESULT:      -7.3      1.425      2.111
REMARK  Name = 
REMARK  7 active torsions:
REMARK  status: ('A' for Active; 'I' for Inactive)
REMARK    1  A    between atoms: C_1  and  N_2
REMARK    2  A    between atoms: C_8  and  C_9
REMARK    3  A    between atoms: N_11  and  C_12
REMARK    4  A    between atoms: C_12  and  C_13
REMARK    5  A    between atoms: C_13  and  C_14
REMARK    6  A    between atoms: C_14  and  O_15
REMARK    7  A    between atoms: O_15  and  C_16
REMARK                            x       y       z     vdW  Elec       q    Type
REMARK                         _______ _______ _______ _____ _____    ______ ____
ROOT
ATOM      1  C   UNL     1       4.730   4.304  19.572  0.00  0.00    +0.000 C 
ATOM      2  O   UNL     1       5.407   3.291  19.709  0.00  0.00    +0.000 OA
ATOM      3  N   UNL     1       5.281   5.501  19.169  0.00  0.00    +0.000 N 
ATOM      4  H   UNL     1       4.688   6.267  18.895  0.00  0.00    +0.000 HD
ENDROOT
BRANCH   1  12
ATOM      5  C   UNL     1       3.031   1.837  17.666  0.00  0.00    +0.000 C 
ATOM      6  N   UNL     1       2.121   2.313  18.684  0.00  0.00    +0.000 N 
ATOM      7  C   UNL     1       0.747   2.047  18.748  0.00  0.00    +0.000 A 
ATOM      8  C   UNL     1       0.147   2.966  19.529  0.00  0.00    +0.000 A 
ATOM      9  N   UNL     1       1.137   3.840  19.942  0.00  0.00    +0.000 N 
ATOM     10  N   UNL     1       1.219   4.970  20.661  0.00  0.00    +0.000 NA
ATOM     11  C   UNL     1       2.527   5.266  20.594  0.00  0.00    +0.000 A 
ATOM     12  C   UNL     1       3.305   4.343  19.827  0.00  0.00    +0.000 A 
ATOM     13  C   UNL     1       2.352   3.446  19.418  0.00  0.00    +0.000 A 
ENDBRANCH   1  12
BRANCH   3  14
ATOM     14  C   UNL     1       6.711   5.634  18.975  0.00  0.00    +0.000 C 
BRANCH  14  15
ATOM     15  C   UNL     1       7.016   6.288  17.617  0.00  0.00    +0.000 C 
ATOM     16  C   UNL     1       7.738   7.602  18.199  0.00  0.00    +0.000 C 
ATOM     17  C   UNL     1       7.950   7.326  16.837  0.00  0.00    +0.000 C 
BRANCH  15  18
ATOM     18  C   UNL     1       7.123   5.117  16.600  0.00  0.00    +0.000 C 
BRANCH  18  19
ATOM     19  O   UNL     1       7.497   5.651  15.323  0.00  0.00    +0.000 OA
BRANCH  19  20
ATOM     20  C   UNL     1       7.075   4.943  14.231  0.00  0.00    +0.000 A 
ATOM     21  C   UNL     1       5.876   4.244  14.396  0.00  0.00    +0.000 A 
ATOM     22  C   UNL     1       5.331   3.508  13.341  0.00  0.00    +0.000 A 
ATOM     23  C   UNL     1       5.978   3.479  12.106  0.00  0.00    +0.000 A 
ATOM     24  C   UNL     1       7.162   4.193  11.931  0.00  0.00    +0.000 A 
ATOM     25  C   UNL     1       7.711   4.924  12.990  0.00  0.00    +0.000 A 
ENDBRANCH  19  20
ENDBRANCH  18  19
ENDBRANCH  15  18
ENDBRANCH  14  15
ENDBRANCH   3  14
TORSDOF 6
ENDMDL
