MODEL 1
REMARK VINA RESULT:      -8.9      0.000      0.000
REMARK  Name = 
REMARK  5 active torsions:
REMARK  status: ('A' for Active; 'I' for Inactive)
REMARK    1  A    between atoms: N_10  and  C_11
REMARK    2  A    between atoms: C_11  and  C_12
REMARK    3  A    between atoms: C_23  and  N_24
REMARK    4  A    between atoms: N_24  and  C_25
REMARK    5  A    between atoms: C_25  and  C_26
REMARK                            x       y       z     vdW  Elec       q    Type
REMARK                         _______ _______ _______ _____ _____    ______ ____
ROOT
ATOM      1  O   UNL     1       2.083   9.486  17.281  0.00  0.00    +0.000 OA
ATOM      2  C   UNL     1       1.728   9.087  18.382  0.00  0.00    +0.000 A 
ATOM      3  C   UNL     1       2.279   7.878  18.980  0.00  0.00    +0.000 A 
ATOM      4  C   UNL     1       3.283   6.993  18.477  0.00  0.00    +0.000 A 
ATOM      5  C   UNL     1       3.498   5.940  19.350  0.00  0.00    +0.000 A 
ATOM      6  S   UNL     1       2.532   6.039  20.747  0.00  0.00    +0.000 S 
ATOM      7  C   UNL     1       1.778   7.470  20.196  0.00  0.00    +0.000 A 
ATOM      8  N   UNL     1       0.797   8.077  20.909  0.00  0.00    +0.000 NA
ATOM      9  C   UNL     1       0.342   9.162  20.362  0.00  0.00    +0.000 A 
ATOM     10  N   UNL     1       0.758   9.712  19.162  0.00  0.00    +0.000 N 
ATOM     11  C   UNL     1       4.473   4.820  19.121  0.00  0.00    +0.000 C 
ATOM     12  C   UNL     1       4.824   4.708  17.608  0.00  0.00    +0.000 C 
ATOM     13  C   UNL     1       5.184   6.122  17.083  0.00  0.00    +0.000 C 
ATOM     14  C   UNL     1       4.000   7.098  17.163  0.00  0.00    +0.000 C 
ENDROOT
BRANCH  12  15
ATOM     15  N   UNL     1       3.716   4.058  16.873  0.00  0.00    +0.000 NA
ATOM     16  H   UNL     1       4.014   3.144  16.532  0.00  0.00    +0.000 HD
BRANCH  15  17
ATOM     17  C   UNL     1       2.489   3.940  17.660  0.00  0.00    +0.000 C 
BRANCH  17  18
ATOM     18  C   UNL     1       2.072   2.473  17.870  0.00  0.00    +0.000 C 
ATOM     19  C   UNL     1       0.872   2.288  18.775  0.00  0.00    +0.000 C 
ATOM     20  C   UNL     1       1.481   2.412  20.154  0.00  0.00    +0.000 C 
ATOM     21  O   UNL     1       2.825   1.915  20.056  0.00  0.00    +0.000 OA
ATOM     22  C   UNL     1       3.146   1.741  18.666  0.00  0.00    +0.000 C 
ENDBRANCH  17  18
ENDBRANCH  15  17
ENDBRANCH  12  15
BRANCH  10  23
ATOM     23  C   UNL     1       0.172  10.961  18.680  0.00  0.00    +0.000 C 
BRANCH  23  24
ATOM     24  C   UNL     1      -1.300  10.807  18.331  0.00  0.00    +0.000 A 
ATOM     25  C   UNL     1      -1.625  10.001  17.219  0.00  0.00    +0.000 A 
ATOM     26  C   UNL     1      -2.940   9.870  16.787  0.00  0.00    +0.000 A 
ATOM     27  C   UNL     1      -3.946  10.596  17.412  0.00  0.00    +0.000 A 
ATOM     28  C   UNL     1      -3.657  11.443  18.490  0.00  0.00    +0.000 A 
ATOM     29  C   UNL     1      -4.672  12.243  19.039  0.00  0.00    +0.000 A 
ATOM     30  C   UNL     1      -4.423  13.069  20.132  0.00  0.00    +0.000 A 
ATOM     31  C   UNL     1      -3.173  13.053  20.731  0.00  0.00    +0.000 A 
ATOM     32  C   UNL     1      -2.149  12.277  20.184  0.00  0.00    +0.000 A 
ATOM     33  C   UNL     1      -2.339  11.506  19.013  0.00  0.00    +0.000 A 
ENDBRANCH  23  24
ENDBRANCH  10  23
TORSDOF 5
ENDMDL
MODEL 2
REMARK VINA RESULT:      -8.9      2.444      8.771
REMARK  Name = 
REMARK  5 active torsions:
REMARK  status: ('A' for Active; 'I' for Inactive)
REMARK    1  A    between atoms: N_10  and  C_11
REMARK    2  A    between atoms: C_11  and  C_12
REMARK    3  A    between atoms: C_23  and  N_24
REMARK    4  A    between atoms: N_24  and  C_25
REMARK    5  A    between atoms: C_25  and  C_26
REMARK                            x       y       z     vdW  Elec       q    Type
REMARK                         _______ _______ _______ _____ _____    ______ ____
ROOT
ATOM      1  O   UNL     1       0.959   8.122  21.387  0.00  0.00    +0.000 OA
ATOM      2  C   UNL     1       1.343   8.523  20.297  0.00  0.00    +0.000 A 
ATOM      3  C   UNL     1       0.943   9.819  19.766  0.00  0.00    +0.000 A 
ATOM      4  C   UNL     1       0.120  10.827  20.356  0.00  0.00    +0.000 A 
ATOM      5  C   UNL     1      -0.036  11.904  19.500  0.00  0.00    +0.000 A 
ATOM      6  S   UNL     1       0.812  11.708  18.038  0.00  0.00    +0.000 S 
ATOM      7  C   UNL     1       1.374  10.162  18.504  0.00  0.00    +0.000 A 
ATOM      8  N   UNL     1       2.137   9.405  17.678  0.00  0.00    +0.000 NA
ATOM      9  C   UNL     1       2.495   8.267  18.187  0.00  0.00    +0.000 A 
ATOM     10  N   UNL     1       2.166   7.791  19.444  0.00  0.00    +0.000 N 
ATOM     11  C   UNL     1      -0.854  13.129  19.800  0.00  0.00    +0.000 C 
ATOM     12  C   UNL     1      -1.886  12.828  20.927  0.00  0.00    +0.000 C 
ATOM     13  C   UNL     1      -1.146  12.127  22.095  0.00  0.00    +0.000 C 
ATOM     14  C   UNL     1      -0.564  10.764  21.690  0.00  0.00    +0.000 C 
ENDROOT
BRANCH  12  15
ATOM     15  N   UNL     1      -3.023  12.051  20.385  0.00  0.00    +0.000 NA
ATOM     16  H   UNL     1      -3.888  12.328  20.850  0.00  0.00    +0.000 HD
BRANCH  15  17
ATOM     17  C   UNL     1      -3.161  12.161  18.933  0.00  0.00    +0.000 C 
BRANCH  17  18
ATOM     18  C   UNL     1      -3.679  10.858  18.298  0.00  0.00    +0.000 C 
ATOM     19  C   UNL     1      -2.632  10.079  17.528  0.00  0.00    +0.000 C 
ATOM     20  C   UNL     1      -2.583  10.816  16.208  0.00  0.00    +0.000 C 
ATOM     21  O   UNL     1      -3.901  11.339  15.979  0.00  0.00    +0.000 OA
ATOM     22  C   UNL     1      -4.667  11.186  17.185  0.00  0.00    +0.000 C 
ENDBRANCH  17  18
ENDBRANCH  15  17
ENDBRANCH  12  15
BRANCH  10  23
ATOM     23  C   UNL     1       2.667   6.495  19.897  0.00  0.00    +0.000 C 
BRANCH  23  24
ATOM     24  C   UNL     1       2.747   5.483  18.765  0.00  0.00    +0.000 A 
ATOM     25  C   UNL     1       1.604   4.692  18.516  0.00  0.00    +0.000 A 
ATOM     26  C   UNL     1       1.620   3.692  17.550  0.00  0.00    +0.000 A 
ATOM     27  C   UNL     1       2.796   3.414  16.865  0.00  0.00    +0.000 A 
ATOM     28  C   UNL     1       3.965   4.146  17.118  0.00  0.00    +0.000 A 
ATOM     29  C   UNL     1       5.165   3.780  16.488  0.00  0.00    +0.000 A 
ATOM     30  C   UNL     1       6.334   4.508  16.692  0.00  0.00    +0.000 A 
ATOM     31  C   UNL     1       6.300   5.651  17.476  0.00  0.00    +0.000 A 
ATOM     32  C   UNL     1       5.117   6.016  18.124  0.00  0.00    +0.000 A 
ATOM     33  C   UNL     1       3.938   5.240  18.021  0.00  0.00    +0.000 A 
ENDBRANCH  23  24
ENDBRANCH  10  23
TORSDOF 5
ENDMDL
MODEL 3
REMARK VINA RESULT:      -8.9      2.774      9.042
REMARK  Name = 
REMARK  5 active torsions:
REMARK  status: ('A' for Active; 'I' for Inactive)
REMARK    1  A    between atoms: N_10  and  C_11
REMARK    2  A    between atoms: C_11  and  C_12
REMARK    3  A    between atoms: C_23  and  N_24
REMARK    4  A    between atoms: N_24  and  C_25
REMARK    5  A    between atoms: C_25  and  C_26
REMARK                            x       y       z     vdW  Elec       q    Type
REMARK                         _______ _______ _______ _____ _____    ______ ____
ROOT
ATOM      1  O   UNL     1       1.078  10.050  17.902  0.00  0.00    +0.000 OA
ATOM      2  C   UNL     1       1.226   9.322  18.875  0.00  0.00    +0.000 A 
ATOM      3  C   UNL     1       0.733   9.689  20.195  0.00  0.00    +0.000 A 
ATOM      4  C   UNL     1       0.006  10.850  20.603  0.00  0.00    +0.000 A 
ATOM      5  C   UNL     1      -0.248  10.823  21.964  0.00  0.00    +0.000 A 
ATOM      6  S   UNL     1       0.350   9.420  22.716  0.00  0.00    +0.000 S 
ATOM      7  C   UNL     1       0.997   8.837  21.245  0.00  0.00    +0.000 A 
ATOM      8  N   UNL     1       1.693   7.675  21.185  0.00  0.00    +0.000 NA
ATOM      9  C   UNL     1       2.100   7.365  19.994  0.00  0.00    +0.000 A 
ATOM     10  N   UNL     1       1.894   8.100  18.839  0.00  0.00    +0.000 N 
ATOM     11  C   UNL     1      -0.975  11.898  22.723  0.00  0.00    +0.000 C 
ATOM     12  C   UNL     1      -0.953  13.235  21.925  0.00  0.00    +0.000 C 
ATOM     13  C   UNL     1      -1.382  12.940  20.464  0.00  0.00    +0.000 C 
ATOM     14  C   UNL     1      -0.400  12.008  19.739  0.00  0.00    +0.000 C 
ENDROOT
BRANCH  12  15
ATOM     15  N   UNL     1       0.374  13.878  22.043  0.00  0.00    +0.000 NA
ATOM     16  H   UNL     1       1.102  13.236  21.728  0.00  0.00    +0.000 HD
BRANCH  15  17
ATOM     17  C   UNL     1       0.468  15.151  21.330  0.00  0.00    +0.000 C 
BRANCH  17  18
ATOM     18  C   UNL     1       1.918  15.501  20.950  0.00  0.00    +0.000 C 
ATOM     19  C   UNL     1       2.129  15.772  19.475  0.00  0.00    +0.000 C 
ATOM     20  C   UNL     1       2.213  14.378  18.895  0.00  0.00    +0.000 C 
ATOM     21  O   UNL     1       2.783  13.542  19.915  0.00  0.00    +0.000 OA
ATOM     22  C   UNL     1       2.809  14.281  21.147  0.00  0.00    +0.000 C 
ENDBRANCH  17  18
ENDBRANCH  15  17
ENDBRANCH  12  15
BRANCH  10  23
ATOM     23  C   UNL     1       2.390   7.612  17.554  0.00  0.00    +0.000 C 
BRANCH  23  24
ATOM     24  C   UNL     1       3.415   6.500  17.719  0.00  0.00    +0.000 A 
ATOM     25  C   UNL     1       4.779   6.858  17.656  0.00  0.00    +0.000 A 
ATOM     26  C   UNL     1       5.778   5.893  17.721  0.00  0.00    +0.000 A 
ATOM     27  C   UNL     1       5.434   4.548  17.778  0.00  0.00    +0.000 A 
ATOM     28  C   UNL     1       4.090   4.151  17.796  0.00  0.00    +0.000 A 
ATOM     29  C   UNL     1       3.767   2.785  17.751  0.00  0.00    +0.000 A 
ATOM     30  C   UNL     1       2.443   2.358  17.802  0.00  0.00    +0.000 A 
ATOM     31  C   UNL     1       1.429   3.290  17.966  0.00  0.00    +0.000 A 
ATOM     32  C   UNL     1       1.735   4.652  17.993  0.00  0.00    +0.000 A 
ATOM     33  C   UNL     1       3.059   5.126  17.840  0.00  0.00    +0.000 A 
ENDBRANCH  23  24
ENDBRANCH  10  23
TORSDOF 5
ENDMDL
MODEL 4
REMARK VINA RESULT:      -8.9      2.908      9.326
REMARK  Name = 
REMARK  5 active torsions:
REMARK  status: ('A' for Active; 'I' for Inactive)
REMARK    1  A    between atoms: N_10  and  C_11
REMARK    2  A    between atoms: C_11  and  C_12
REMARK    3  A    between atoms: C_23  and  N_24
REMARK    4  A    between atoms: N_24  and  C_25
REMARK    5  A    between atoms: C_25  and  C_26
REMARK                            x       y       z     vdW  Elec       q    Type
REMARK                         _______ _______ _______ _____ _____    ______ ____
ROOT
ATOM      1  O   UNL     1       0.429   8.998  22.384  0.00  0.00    +0.000 OA
ATOM      2  C   UNL     1       0.543   9.268  21.196  0.00  0.00    +0.000 A 
ATOM      3  C   UNL     1      -0.108  10.428  20.602  0.00  0.00    +0.000 A 
ATOM      4  C   UNL     1      -0.917  11.431  21.221  0.00  0.00    +0.000 A 
ATOM      5  C   UNL     1      -1.366  12.350  20.288  0.00  0.00    +0.000 A 
ATOM      6  S   UNL     1      -0.801  12.022  18.718  0.00  0.00    +0.000 S 
ATOM      7  C   UNL     1       0.024  10.621  19.245  0.00  0.00    +0.000 A 
ATOM      8  N   UNL     1       0.699   9.825  18.379  0.00  0.00    +0.000 NA
ATOM      9  C   UNL     1       1.285   8.813  18.940  0.00  0.00    +0.000 A 
ATOM     10  N   UNL     1       1.267   8.499  20.288  0.00  0.00    +0.000 N 
ATOM     11  C   UNL     1      -2.253  13.524  20.597  0.00  0.00    +0.000 C 
ATOM     12  C   UNL     1      -3.002  13.297  21.944  0.00  0.00    +0.000 C 
ATOM     13  C   UNL     1      -1.969  12.849  23.010  0.00  0.00    +0.000 C 
ATOM     14  C   UNL     1      -1.316  11.502  22.666  0.00  0.00    +0.000 C 
ENDROOT
BRANCH  12  15
ATOM     15  N   UNL     1      -4.119  12.346  21.753  0.00  0.00    +0.000 NA
ATOM     16  H   UNL     1      -3.904  11.459  22.210  0.00  0.00    +0.000 HD
BRANCH  15  17
ATOM     17  C   UNL     1      -5.407  12.863  22.215  0.00  0.00    +0.000 C 
BRANCH  17  18
ATOM     18  C   UNL     1      -6.365  13.165  21.049  0.00  0.00    +0.000 C 
ATOM     19  C   UNL     1      -7.690  12.435  21.125  0.00  0.00    +0.000 C 
ATOM     20  C   UNL     1      -7.336  11.060  20.603  0.00  0.00    +0.000 C 
ATOM     21  O   UNL     1      -6.275  11.241  19.652  0.00  0.00    +0.000 OA
ATOM     22  C   UNL     1      -5.797  12.592  19.756  0.00  0.00    +0.000 C 
ENDBRANCH  17  18
ENDBRANCH  15  17
ENDBRANCH  12  15
BRANCH  10  23
ATOM     23  C   UNL     1       2.000   7.336  20.784  0.00  0.00    +0.000 C 
BRANCH  23  24
ATOM     24  C   UNL     1       2.493   6.444  19.657  0.00  0.00    +0.000 A 
ATOM     25  C   UNL     1       3.367   7.017  18.707  0.00  0.00    +0.000 A 
ATOM     26  C   UNL     1       3.804   6.291  17.604  0.00  0.00    +0.000 A 
ATOM     27  C   UNL     1       3.320   5.007  17.389  0.00  0.00    +0.000 A 
ATOM     28  C   UNL     1       2.416   4.420  18.284  0.00  0.00    +0.000 A 
ATOM     29  C   UNL     1       1.864   3.162  17.993  0.00  0.00    +0.000 A 
ATOM     30  C   UNL     1       0.989   2.539  18.879  0.00  0.00    +0.000 A 
ATOM     31  C   UNL     1       0.709   3.137  20.098  0.00  0.00    +0.000 A 
ATOM     32  C   UNL     1       1.235   4.397  20.392  0.00  0.00    +0.000 A 
ATOM     33  C   UNL     1       2.044   5.104  19.471  0.00  0.00    +0.000 A 
ENDBRANCH  23  24
ENDBRANCH  10  23
TORSDOF 5
ENDMDL
MODEL 5
REMARK VINA RESULT:      -8.8      2.877      9.168
REMARK  Name = 
REMARK  5 active torsions:
REMARK  status: ('A' for Active; 'I' for Inactive)
REMARK    1  A    between atoms: N_10  and  C_11
REMARK    2  A    between atoms: C_11  and  C_12
REMARK    3  A    between atoms: C_23  and  N_24
REMARK    4  A    between atoms: N_24  and  C_25
REMARK    5  A    between atoms: C_25  and  C_26
REMARK                            x       y       z     vdW  Elec       q    Type
REMARK                         _______ _______ _______ _____ _____    ______ ____
ROOT
ATOM      1  O   UNL     1       0.163   9.073  22.322  0.00  0.00    +0.000 OA
ATOM      2  C   UNL     1       0.365   9.383  21.156  0.00  0.00    +0.000 A 
ATOM      3  C   UNL     1      -0.272  10.542  20.544  0.00  0.00    +0.000 A 
ATOM      4  C   UNL     1      -1.161  11.501  21.123  0.00  0.00    +0.000 A 
ATOM      5  C   UNL     1      -1.562  12.435  20.183  0.00  0.00    +0.000 A 
ATOM      6  S   UNL     1      -0.859  12.173  18.656  0.00  0.00    +0.000 S 
ATOM      7  C   UNL     1      -0.035  10.781  19.209  0.00  0.00    +0.000 A 
ATOM      8  N   UNL     1       0.733  10.034  18.379  0.00  0.00    +0.000 NA
ATOM      9  C   UNL     1       1.303   9.022  18.957  0.00  0.00    +0.000 A 
ATOM     10  N   UNL     1       1.185   8.665  20.289  0.00  0.00    +0.000 N 
ATOM     11  C   UNL     1      -2.508  13.572  20.452  0.00  0.00    +0.000 C 
ATOM     12  C   UNL     1      -3.357  13.280  21.724  0.00  0.00    +0.000 C 
ATOM     13  C   UNL     1      -2.400  12.830  22.858  0.00  0.00    +0.000 C 
ATOM     14  C   UNL     1      -1.678  11.514  22.531  0.00  0.00    +0.000 C 
ENDROOT
BRANCH  12  15
ATOM     15  N   UNL     1      -4.424  12.303  21.415  0.00  0.00    +0.000 NA
ATOM     16  H   UNL     1      -5.033  12.184  22.224  0.00  0.00    +0.000 HD
BRANCH  15  17
ATOM     17  C   UNL     1      -5.205  12.653  20.229  0.00  0.00    +0.000 C 
BRANCH  17  18
ATOM     18  C   UNL     1      -5.307  11.483  19.234  0.00  0.00    +0.000 C 
ATOM     19  C   UNL     1      -4.819  11.807  17.837  0.00  0.00    +0.000 C 
ATOM     20  C   UNL     1      -5.998  12.543  17.241  0.00  0.00    +0.000 C 
ATOM     21  O   UNL     1      -7.177  11.997  17.855  0.00  0.00    +0.000 OA
ATOM     22  C   UNL     1      -6.773  11.169  18.959  0.00  0.00    +0.000 C 
ENDBRANCH  17  18
ENDBRANCH  15  17
ENDBRANCH  12  15
BRANCH  10  23
ATOM     23  C   UNL     1       1.912   7.510  20.811  0.00  0.00    +0.000 C 
BRANCH  23  24
ATOM     24  C   UNL     1       2.417   6.600  19.702  0.00  0.00    +0.000 A 
ATOM     25  C   UNL     1       3.260   7.171  18.724  0.00  0.00    +0.000 A 
ATOM     26  C   UNL     1       3.704   6.428  17.636  0.00  0.00    +0.000 A 
ATOM     27  C   UNL     1       3.257   5.124  17.464  0.00  0.00    +0.000 A 
ATOM     28  C   UNL     1       2.382   4.537  18.389  0.00  0.00    +0.000 A 
ATOM     29  C   UNL     1       1.865   3.255  18.141  0.00  0.00    +0.000 A 
ATOM     30  C   UNL     1       1.021   2.632  19.056  0.00  0.00    +0.000 A 
ATOM     31  C   UNL     1       0.739   3.256  20.262  0.00  0.00    +0.000 A 
ATOM     32  C   UNL     1       1.231   4.539  20.513  0.00  0.00    +0.000 A 
ATOM     33  C   UNL     1       2.006   5.243  19.561  0.00  0.00    +0.000 A 
ENDBRANCH  23  24
ENDBRANCH  10  23
TORSDOF 5
ENDMDL
MODEL 6
REMARK VINA RESULT:      -8.8      2.919      9.191
REMARK  Name = 
REMARK  5 active torsions:
REMARK  status: ('A' for Active; 'I' for Inactive)
REMARK    1  A    between atoms: N_10  and  C_11
REMARK    2  A    between atoms: C_11  and  C_12
REMARK    3  A    between atoms: C_23  and  N_24
REMARK    4  A    between atoms: N_24  and  C_25
REMARK    5  A    between atoms: C_25  and  C_26
REMARK                            x       y       z     vdW  Elec       q    Type
REMARK                         _______ _______ _______ _____ _____    ______ ____
ROOT
ATOM      1  O   UNL     1       1.908   9.741  17.518  0.00  0.00    +0.000 OA
ATOM      2  C   UNL     1       1.699   9.184  18.587  0.00  0.00    +0.000 A 
ATOM      3  C   UNL     1       1.036   9.860  19.694  0.00  0.00    +0.000 A 
ATOM      4  C   UNL     1       0.503  11.185  19.760  0.00  0.00    +0.000 A 
ATOM      5  C   UNL     1      -0.021  11.446  21.015  0.00  0.00    +0.000 A 
ATOM      6  S   UNL     1       0.103  10.116  22.068  0.00  0.00    +0.000 S 
ATOM      7  C   UNL     1       0.897   9.176  20.881  0.00  0.00    +0.000 A 
ATOM      8  N   UNL     1       1.329   7.918  21.143  0.00  0.00    +0.000 NA
ATOM      9  C   UNL     1       1.895   7.335  20.132  0.00  0.00    +0.000 A 
ATOM     10  N   UNL     1       2.087   7.877  18.874  0.00  0.00    +0.000 N 
ATOM     11  C   UNL     1      -0.645  12.749  21.431  0.00  0.00    +0.000 C 
ATOM     12  C   UNL     1      -0.180  13.898  20.488  0.00  0.00    +0.000 C 
ATOM     13  C   UNL     1      -0.356  13.428  19.021  0.00  0.00    +0.000 C 
ATOM     14  C   UNL     1       0.534  12.223  18.677  0.00  0.00    +0.000 C 
ENDROOT
BRANCH  12  15
ATOM     15  N   UNL     1       1.201  14.309  20.825  0.00  0.00    +0.000 NA
ATOM     16  H   UNL     1       1.870  13.694  20.362  0.00  0.00    +0.000 HD
BRANCH  15  17
ATOM     17  C   UNL     1       1.483  15.708  20.509  0.00  0.00    +0.000 C 
BRANCH  17  18
ATOM     18  C   UNL     1       2.958  15.933  20.128  0.00  0.00    +0.000 C 
ATOM     19  C   UNL     1       3.170  16.404  18.704  0.00  0.00    +0.000 C 
ATOM     20  C   UNL     1       3.062  15.118  17.915  0.00  0.00    +0.000 C 
ATOM     21  O   UNL     1       3.543  14.069  18.770  0.00  0.00    +0.000 OA
ATOM     22  C   UNL     1       3.691  14.597  20.098  0.00  0.00    +0.000 C 
ENDBRANCH  17  18
ENDBRANCH  15  17
ENDBRANCH  12  15
BRANCH  10  23
ATOM     23  C   UNL     1       2.718   7.088  17.818  0.00  0.00    +0.000 C 
BRANCH  23  24
ATOM     24  C   UNL     1       3.491   5.901  18.372  0.00  0.00    +0.000 A 
ATOM     25  C   UNL     1       4.862   6.088  18.649  0.00  0.00    +0.000 A 
ATOM     26  C   UNL     1       5.657   5.033  19.086  0.00  0.00    +0.000 A 
ATOM     27  C   UNL     1       5.115   3.758  19.185  0.00  0.00    +0.000 A 
ATOM     28  C   UNL     1       3.768   3.523  18.874  0.00  0.00    +0.000 A 
ATOM     29  C   UNL     1       3.271   2.210  18.885  0.00  0.00    +0.000 A 
ATOM     30  C   UNL     1       1.930   1.949  18.614  0.00  0.00    +0.000 A 
ATOM     31  C   UNL     1       1.057   3.005  18.396  0.00  0.00    +0.000 A 
ATOM     32  C   UNL     1       1.543   4.313  18.364  0.00  0.00    +0.000 A 
ATOM     33  C   UNL     1       2.917   4.606  18.532  0.00  0.00    +0.000 A 
ENDBRANCH  23  24
ENDBRANCH  10  23
TORSDOF 5
ENDMDL
MODEL 7
REMARK VINA RESULT:      -8.8      3.116      9.442
REMARK  Name = 
REMARK  5 active torsions:
REMARK  status: ('A' for Active; 'I' for Inactive)
REMARK    1  A    between atoms: N_10  and  C_11
REMARK    2  A    between atoms: C_11  and  C_12
REMARK    3  A    between atoms: C_23  and  N_24
REMARK    4  A    between atoms: N_24  and  C_25
REMARK    5  A    between atoms: C_25  and  C_26
REMARK                            x       y       z     vdW  Elec       q    Type
REMARK                         _______ _______ _______ _____ _____    ______ ____
ROOT
ATOM      1  O   UNL     1       1.013   9.245  22.236  0.00  0.00    +0.000 OA
ATOM      2  C   UNL     1       0.878   9.391  21.028  0.00  0.00    +0.000 A 
ATOM      3  C   UNL     1       0.040  10.441  20.467  0.00  0.00    +0.000 A 
ATOM      4  C   UNL     1      -0.712  11.457  21.134  0.00  0.00    +0.000 A 
ATOM      5  C   UNL     1      -1.400  12.243  20.225  0.00  0.00    +0.000 A 
ATOM      6  S   UNL     1      -1.118  11.780  18.613  0.00  0.00    +0.000 S 
ATOM      7  C   UNL     1      -0.103  10.493  19.098  0.00  0.00    +0.000 A 
ATOM      8  N   UNL     1       0.455   9.649  18.196  0.00  0.00    +0.000 NA
ATOM      9  C   UNL     1       1.213   8.738  18.725  0.00  0.00    +0.000 A 
ATOM     10  N   UNL     1       1.474   8.571  20.073  0.00  0.00    +0.000 N 
ATOM     11  C   UNL     1      -2.299  13.390  20.590  0.00  0.00    +0.000 C 
ATOM     12  C   UNL     1      -2.760  13.268  22.072  0.00  0.00    +0.000 C 
ATOM     13  C   UNL     1      -1.512  12.997  22.952  0.00  0.00    +0.000 C 
ATOM     14  C   UNL     1      -0.834  11.660  22.616  0.00  0.00    +0.000 C 
ENDROOT
BRANCH  12  15
ATOM     15  N   UNL     1      -3.817  12.239  22.196  0.00  0.00    +0.000 NA
ATOM     16  H   UNL     1      -3.482  11.464  22.768  0.00  0.00    +0.000 HD
BRANCH  15  17
ATOM     17  C   UNL     1      -5.076  12.762  22.722  0.00  0.00    +0.000 C 
BRANCH  17  18
ATOM     18  C   UNL     1      -6.092  13.065  21.606  0.00  0.00    +0.000 C 
ATOM     19  C   UNL     1      -7.532  13.133  22.074  0.00  0.00    +0.000 C 
ATOM     20  C   UNL     1      -7.917  11.673  22.158  0.00  0.00    +0.000 C 
ATOM     21  O   UNL     1      -7.158  10.988  21.149  0.00  0.00    +0.000 OA
ATOM     22  C   UNL     1      -6.161  11.889  20.640  0.00  0.00    +0.000 C 
ENDBRANCH  17  18
ENDBRANCH  15  17
ENDBRANCH  12  15
BRANCH  10  23
ATOM     23  C   UNL     1       2.376   7.513  20.524  0.00  0.00    +0.000 C 
BRANCH  23  24
ATOM     24  C   UNL     1       2.058   6.173  19.878  0.00  0.00    +0.000 A 
ATOM     25  C   UNL     1       1.055   5.382  20.477  0.00  0.00    +0.000 A 
ATOM     26  C   UNL     1       0.757   4.113  19.993  0.00  0.00    +0.000 A 
ATOM     27  C   UNL     1       1.503   3.581  18.949  0.00  0.00    +0.000 A 
ATOM     28  C   UNL     1       2.539   4.317  18.358  0.00  0.00    +0.000 A 
ATOM     29  C   UNL     1       3.344   3.721  17.374  0.00  0.00    +0.000 A 
ATOM     30  C   UNL     1       4.358   4.438  16.745  0.00  0.00    +0.000 A 
ATOM     31  C   UNL     1       4.535   5.780  17.045  0.00  0.00    +0.000 A 
ATOM     32  C   UNL     1       3.754   6.381  18.035  0.00  0.00    +0.000 A 
ATOM     33  C   UNL     1       2.785   5.654  18.766  0.00  0.00    +0.000 A 
ENDBRANCH  23  24
ENDBRANCH  10  23
TORSDOF 5
ENDMDL
MODEL 8
REMARK VINA RESULT:      -8.8      3.081      9.426
REMARK  Name = 
REMARK  5 active torsions:
REMARK  status: ('A' for Active; 'I' for Inactive)
REMARK    1  A    between atoms: N_10  and  C_11
REMARK    2  A    between atoms: C_11  and  C_12
REMARK    3  A    between atoms: C_23  and  N_24
REMARK    4  A    between atoms: N_24  and  C_25
REMARK    5  A    between atoms: C_25  and  C_26
REMARK                            x       y       z     vdW  Elec       q    Type
REMARK                         _______ _______ _______ _____ _____    ______ ____
ROOT
ATOM      1  O   UNL     1       1.674   9.565  17.467  0.00  0.00    +0.000 OA
ATOM      2  C   UNL     1       1.569   9.056  18.575  0.00  0.00    +0.000 A 
ATOM      3  C   UNL     1       0.932   9.750  19.686  0.00  0.00    +0.000 A 
ATOM      4  C   UNL     1       0.317  11.041  19.719  0.00  0.00    +0.000 A 
ATOM      5  C   UNL     1      -0.145  11.337  20.990  0.00  0.00    +0.000 A 
ATOM      6  S   UNL     1       0.133  10.079  22.100  0.00  0.00    +0.000 S 
ATOM      7  C   UNL     1       0.914   9.126  20.914  0.00  0.00    +0.000 A 
ATOM      8  N   UNL     1       1.444   7.915  21.212  0.00  0.00    +0.000 NA
ATOM      9  C   UNL     1       1.985   7.313  20.198  0.00  0.00    +0.000 A 
ATOM     10  N   UNL     1       2.061   7.795  18.903  0.00  0.00    +0.000 N 
ATOM     11  C   UNL     1      -0.827  12.619  21.378  0.00  0.00    +0.000 C 
ATOM     12  C   UNL     1      -0.500  13.740  20.348  0.00  0.00    +0.000 C 
ATOM     13  C   UNL     1      -0.735  13.179  18.922  0.00  0.00    +0.000 C 
ATOM     14  C   UNL     1       0.211  12.016  18.584  0.00  0.00    +0.000 C 
ENDROOT
BRANCH  12  15
ATOM     15  N   UNL     1       0.869  14.257  20.572  0.00  0.00    +0.000 NA
ATOM     16  H   UNL     1       1.548  13.658  20.102  0.00  0.00    +0.000 HD
BRANCH  15  17
ATOM     17  C   UNL     1       1.038  15.649  20.160  0.00  0.00    +0.000 C 
BRANCH  17  18
ATOM     18  C   UNL     1       1.543  15.770  18.710  0.00  0.00    +0.000 C 
ATOM     19  C   UNL     1       2.816  14.999  18.426  0.00  0.00    +0.000 C 
ATOM     20  C   UNL     1       3.884  15.919  18.976  0.00  0.00    +0.000 C 
ATOM     21  O   UNL     1       3.395  17.260  18.816  0.00  0.00    +0.000 OA
ATOM     22  C   UNL     1       2.007  17.197  18.445  0.00  0.00    +0.000 C 
ENDBRANCH  17  18
ENDBRANCH  15  17
ENDBRANCH  12  15
BRANCH  10  23
ATOM     23  C   UNL     1       2.678   6.990  17.850  0.00  0.00    +0.000 C 
BRANCH  23  24
ATOM     24  C   UNL     1       3.463   5.815  18.412  0.00  0.00    +0.000 A 
ATOM     25  C   UNL     1       4.834   6.016  18.679  0.00  0.00    +0.000 A 
ATOM     26  C   UNL     1       5.640   4.972  19.121  0.00  0.00    +0.000 A 
ATOM     27  C   UNL     1       5.109   3.693  19.236  0.00  0.00    +0.000 A 
ATOM     28  C   UNL     1       3.763   3.445  18.936  0.00  0.00    +0.000 A 
ATOM     29  C   UNL     1       3.276   2.128  18.962  0.00  0.00    +0.000 A 
ATOM     30  C   UNL     1       1.936   1.853  18.701  0.00  0.00    +0.000 A 
ATOM     31  C   UNL     1       1.054   2.899  18.478  0.00  0.00    +0.000 A 
ATOM     32  C   UNL     1       1.529   4.211  18.430  0.00  0.00    +0.000 A 
ATOM     33  C   UNL     1       2.901   4.517  18.588  0.00  0.00    +0.000 A 
ENDBRANCH  23  24
ENDBRANCH  10  23
TORSDOF 5
ENDMDL
MODEL 9
REMARK VINA RESULT:      -8.7      2.954      9.362
REMARK  Name = 
REMARK  5 active torsions:
REMARK  status: ('A' for Active; 'I' for Inactive)
REMARK    1  A    between atoms: N_10  and  C_11
REMARK    2  A    between atoms: C_11  and  C_12
REMARK    3  A    between atoms: C_23  and  N_24
REMARK    4  A    between atoms: N_24  and  C_25
REMARK    5  A    between atoms: C_25  and  C_26
REMARK                            x       y       z     vdW  Elec       q    Type
REMARK                         _______ _______ _______ _____ _____    ______ ____
ROOT
ATOM      1  O   UNL     1       1.416  10.339  18.065  0.00  0.00    +0.000 OA
ATOM      2  C   UNL     1       1.409   9.526  18.979  0.00  0.00    +0.000 A 
ATOM      3  C   UNL     1       0.761   9.803  20.253  0.00  0.00    +0.000 A 
ATOM      4  C   UNL     1       0.033  10.961  20.669  0.00  0.00    +0.000 A 
ATOM      5  C   UNL     1      -0.398  10.832  21.979  0.00  0.00    +0.000 A 
ATOM      6  S   UNL     1       0.044   9.342  22.671  0.00  0.00    +0.000 S 
ATOM      7  C   UNL     1       0.855   8.854  21.247  0.00  0.00    +0.000 A 
ATOM      8  N   UNL     1       1.507   7.668  21.171  0.00  0.00    +0.000 NA
ATOM      9  C   UNL     1       2.055   7.441  20.018  0.00  0.00    +0.000 A 
ATOM     10  N   UNL     1       2.028   8.280  18.918  0.00  0.00    +0.000 N 
ATOM     11  C   UNL     1      -1.177  11.872  22.733  0.00  0.00    +0.000 C 
ATOM     12  C   UNL     1      -1.000  13.269  22.068  0.00  0.00    +0.000 C 
ATOM     13  C   UNL     1      -1.246  13.121  20.544  0.00  0.00    +0.000 C 
ATOM     14  C   UNL     1      -0.214  12.206  19.868  0.00  0.00    +0.000 C 
ENDROOT
BRANCH  12  15
ATOM     15  N   UNL     1       0.324  13.835  22.410  0.00  0.00    +0.000 NA
ATOM     16  H   UNL     1       1.038  13.449  21.792  0.00  0.00    +0.000 HD
BRANCH  15  17
ATOM     17  C   UNL     1       0.355  15.296  22.384  0.00  0.00    +0.000 C 
BRANCH  17  18
ATOM     18  C   UNL     1       1.725  15.842  21.942  0.00  0.00    +0.000 C 
ATOM     19  C   UNL     1       1.694  16.636  20.653  0.00  0.00    +0.000 C 
ATOM     20  C   UNL     1       1.680  15.550  19.600  0.00  0.00    +0.000 C 
ATOM     21  O   UNL     1       2.406  14.438  20.146  0.00  0.00    +0.000 OA
ATOM     22  C   UNL     1       2.634  14.685  21.544  0.00  0.00    +0.000 C 
ENDBRANCH  17  18
ENDBRANCH  15  17
ENDBRANCH  12  15
BRANCH  10  23
ATOM     23  C   UNL     1       2.669   7.878  17.667  0.00  0.00    +0.000 C 
BRANCH  23  24
ATOM     24  C   UNL     1       3.224   6.464  17.735  0.00  0.00    +0.000 A 
ATOM     25  C   UNL     1       2.308   5.414  17.959  0.00  0.00    +0.000 A 
ATOM     26  C   UNL     1       2.742   4.102  18.110  0.00  0.00    +0.000 A 
ATOM     27  C   UNL     1       4.104   3.823  18.112  0.00  0.00    +0.000 A 
ATOM     28  C   UNL     1       5.047   4.845  17.939  0.00  0.00    +0.000 A 
ATOM     29  C   UNL     1       6.416   4.554  18.046  0.00  0.00    +0.000 A 
ATOM     30  C   UNL     1       7.377   5.541  17.846  0.00  0.00    +0.000 A 
ATOM     31  C   UNL     1       6.982   6.816  17.469  0.00  0.00    +0.000 A 
ATOM     32  C   UNL     1       5.622   7.123  17.377  0.00  0.00    +0.000 A 
ATOM     33  C   UNL     1       4.618   6.172  17.675  0.00  0.00    +0.000 A 
ENDBRANCH  23  24
ENDBRANCH  10  23
TORSDOF 5
ENDMDL
