MODEL 1
REMARK VINA RESULT:      -7.7      0.000      0.000
REMARK  Name = 
REMARK  4 active torsions:
REMARK  status: ('A' for Active; 'I' for Inactive)
REMARK    1  A    between atoms: C_5  and  N_6
REMARK    2  A    between atoms: N_10  and  C_11
REMARK    3  A    between atoms: C_11  and  C_12
REMARK    4  A    between atoms: N_19  and  C_20
REMARK                            x       y       z     vdW  Elec       q    Type
REMARK                         _______ _______ _______ _____ _____    ______ ____
ROOT
ATOM      1  N   UNL     1       1.316  11.094  18.496  0.00  0.00    +0.000 N 
ATOM      2  C   UNL     1       1.153  10.322  19.651  0.00  0.00    +0.000 A 
ATOM      3  N   UNL     1       1.495   9.050  19.609  0.00  0.00    +0.000 NA
ATOM      4  C   UNL     1       1.359   8.378  20.747  0.00  0.00    +0.000 A 
ATOM      5  N   UNL     1       1.685   7.034  20.776  0.00  0.00    +0.000 N 
ATOM      6  N   UNL     1       0.886   8.899  21.877  0.00  0.00    +0.000 NA
ATOM      7  C   UNL     1       0.457  10.150  21.791  0.00  0.00    +0.000 A 
ATOM      8  N   UNL     1      -0.224  10.703  22.881  0.00  0.00    +0.000 N 
ATOM      9  N   UNL     1       0.632  10.895  20.718  0.00  0.00    +0.000 NA
ATOM     10  H   UNL     1       1.859  10.568  17.824  0.00  0.00    +0.000 HD
ATOM     11  H   UNL     1       2.177   6.823  21.640  0.00  0.00    +0.000 HD
ATOM     12  H   UNL     1      -0.248  10.055  23.655  0.00  0.00    +0.000 HD
ENDROOT
BRANCH   1  17
ATOM     13  F   UNL     1       2.377  16.533  18.432  0.00  0.00    +0.000 F 
ATOM     14  C   UNL     1       2.114  15.221  18.456  0.00  0.00    +0.000 A 
ATOM     15  C   UNL     1       0.825  14.788  18.729  0.00  0.00    +0.000 A 
ATOM     16  C   UNL     1       0.552  13.420  18.746  0.00  0.00    +0.000 A 
ATOM     17  C   UNL     1       1.562  12.481  18.477  0.00  0.00    +0.000 A 
ATOM     18  C   UNL     1       2.861  12.941  18.233  0.00  0.00    +0.000 A 
ATOM     19  C   UNL     1       3.134  14.311  18.208  0.00  0.00    +0.000 A 
ENDBRANCH   1  17
BRANCH   8  20
ATOM     20  C   UNL     1      -1.191  11.731  22.896  0.00  0.00    +0.000 A 
ATOM     21  C   UNL     1      -0.906  13.063  22.536  0.00  0.00    +0.000 A 
ATOM     22  C   UNL     1      -1.865  14.075  22.626  0.00  0.00    +0.000 A 
ATOM     23  C   UNL     1      -3.133  13.764  23.091  0.00  0.00    +0.000 A 
ATOM     24  F   UNL     1      -4.055  14.726  23.184  0.00  0.00    +0.000 F 
ATOM     25  C   UNL     1      -3.446  12.465  23.464  0.00  0.00    +0.000 A 
ATOM     26  C   UNL     1      -2.478  11.454  23.376  0.00  0.00    +0.000 A 
ENDBRANCH   8  20
BRANCH   5  27
ATOM     27  C   UNL     1       2.283   6.481  19.566  0.00  0.00    +0.000 C 
BRANCH  27  28
ATOM     28  C   UNL     1       1.986   4.985  19.433  0.00  0.00    +0.000 C 
ATOM     29  C   UNL     1       1.107   4.405  20.534  0.00  0.00    +0.000 C 
ATOM     30  C   UNL     1       1.581   2.974  20.589  0.00  0.00    +0.000 C 
ATOM     31  C   UNL     1       3.062   3.117  20.320  0.00  0.00    +0.000 C 
ATOM     32  O   UNL     1       3.218   4.233  19.435  0.00  0.00    +0.000 OA
ENDBRANCH  27  28
ENDBRANCH   5  27
TORSDOF 4
ENDMDL
MODEL 2
REMARK VINA RESULT:      -7.6      0.686      1.224
REMARK  Name = 
REMARK  4 active torsions:
REMARK  status: ('A' for Active; 'I' for Inactive)
REMARK    1  A    between atoms: C_5  and  N_6
REMARK    2  A    between atoms: N_10  and  C_11
REMARK    3  A    between atoms: C_11  and  C_12
REMARK    4  A    between atoms: N_19  and  C_20
REMARK                            x       y       z     vdW  Elec       q    Type
REMARK                         _______ _______ _______ _____ _____    ______ ____
ROOT
ATOM      1  N   UNL     1       1.230  11.414  18.533  0.00  0.00    +0.000 N 
ATOM      2  C   UNL     1       1.064  10.617  19.672  0.00  0.00    +0.000 A 
ATOM      3  N   UNL     1       1.430   9.352  19.611  0.00  0.00    +0.000 NA
ATOM      4  C   UNL     1       1.290   8.657  20.735  0.00  0.00    +0.000 A 
ATOM      5  N   UNL     1       1.638   7.318  20.744  0.00  0.00    +0.000 N 
ATOM      6  N   UNL     1       0.791   9.149  21.867  0.00  0.00    +0.000 NA
ATOM      7  C   UNL     1       0.341  10.394  21.798  0.00  0.00    +0.000 A 
ATOM      8  N   UNL     1      -0.365  10.914  22.888  0.00  0.00    +0.000 N 
ATOM      9  N   UNL     1       0.518  11.161  20.741  0.00  0.00    +0.000 NA
ATOM     10  H   UNL     1       1.791  10.909  17.860  0.00  0.00    +0.000 HD
ATOM     11  H   UNL     1       2.123   7.100  21.611  0.00  0.00    +0.000 HD
ATOM     12  H   UNL     1      -0.388  10.252  23.649  0.00  0.00    +0.000 HD
ENDROOT
BRANCH   1  17
ATOM     13  F   UNL     1       2.005  16.900  18.558  0.00  0.00    +0.000 F 
ATOM     14  C   UNL     1       1.825  15.574  18.544  0.00  0.00    +0.000 A 
ATOM     15  C   UNL     1       2.913  14.740  18.331  0.00  0.00    +0.000 A 
ATOM     16  C   UNL     1       2.723  13.358  18.324  0.00  0.00    +0.000 A 
ATOM     17  C   UNL     1       1.451  12.805  18.543  0.00  0.00    +0.000 A 
ATOM     18  C   UNL     1       0.364  13.667  18.727  0.00  0.00    +0.000 A 
ATOM     19  C   UNL     1       0.553  15.052  18.743  0.00  0.00    +0.000 A 
ENDBRANCH   1  17
BRANCH   8  20
ATOM     20  C   UNL     1      -1.350  11.924  22.907  0.00  0.00    +0.000 A 
ATOM     21  C   UNL     1      -1.087  13.265  22.561  0.00  0.00    +0.000 A 
ATOM     22  C   UNL     1      -2.065  14.258  22.656  0.00  0.00    +0.000 A 
ATOM     23  C   UNL     1      -3.330  13.920  23.112  0.00  0.00    +0.000 A 
ATOM     24  F   UNL     1      -4.269  14.865  23.208  0.00  0.00    +0.000 F 
ATOM     25  C   UNL     1      -3.621  12.613  23.471  0.00  0.00    +0.000 A 
ATOM     26  C   UNL     1      -2.635  11.620  23.378  0.00  0.00    +0.000 A 
ENDBRANCH   8  20
BRANCH   5  27
ATOM     27  C   UNL     1       2.263   6.799  19.533  0.00  0.00    +0.000 C 
BRANCH  27  28
ATOM     28  C   UNL     1       2.371   5.272  19.574  0.00  0.00    +0.000 C 
ATOM     29  C   UNL     1       1.793   4.555  18.361  0.00  0.00    +0.000 C 
ATOM     30  C   UNL     1       1.365   3.235  18.953  0.00  0.00    +0.000 C 
ATOM     31  C   UNL     1       0.883   3.644  20.327  0.00  0.00    +0.000 C 
ATOM     32  O   UNL     1       1.685   4.758  20.735  0.00  0.00    +0.000 OA
ENDBRANCH  27  28
ENDBRANCH   5  27
TORSDOF 4
ENDMDL
MODEL 3
REMARK VINA RESULT:      -7.6      1.550      5.072
REMARK  Name = 
REMARK  4 active torsions:
REMARK  status: ('A' for Active; 'I' for Inactive)
REMARK    1  A    between atoms: C_5  and  N_6
REMARK    2  A    between atoms: N_10  and  C_11
REMARK    3  A    between atoms: C_11  and  C_12
REMARK    4  A    between atoms: N_19  and  C_20
REMARK                            x       y       z     vdW  Elec       q    Type
REMARK                         _______ _______ _______ _____ _____    ______ ____
ROOT
ATOM      1  N   UNL     1       0.294   9.993  21.167  0.00  0.00    +0.000 N 
ATOM      2  C   UNL     1       1.010   9.963  19.966  0.00  0.00    +0.000 A 
ATOM      3  N   UNL     1       1.495   8.809  19.553  0.00  0.00    +0.000 NA
ATOM      4  C   UNL     1       2.128   8.834  18.386  0.00  0.00    +0.000 A 
ATOM      5  N   UNL     1       2.677   7.663  17.895  0.00  0.00    +0.000 N 
ATOM      6  N   UNL     1       2.315   9.930  17.654  0.00  0.00    +0.000 NA
ATOM      7  C   UNL     1       1.898  11.061  18.205  0.00  0.00    +0.000 A 
ATOM      8  N   UNL     1       2.227  12.271  17.586  0.00  0.00    +0.000 N 
ATOM      9  N   UNL     1       1.197  11.097  19.321  0.00  0.00    +0.000 NA
ATOM     10  H   UNL     1       0.104   9.044  21.460  0.00  0.00    +0.000 HD
ATOM     11  H   UNL     1       2.506   7.601  16.894  0.00  0.00    +0.000 HD
ATOM     12  H   UNL     1       2.717  12.108  16.718  0.00  0.00    +0.000 HD
ENDROOT
BRANCH   1  17
ATOM     13  F   UNL     1      -3.755  13.548  22.464  0.00  0.00    +0.000 F 
ATOM     14  C   UNL     1      -2.783  12.686  22.142  0.00  0.00    +0.000 A 
ATOM     15  C   UNL     1      -2.439  12.512  20.809  0.00  0.00    +0.000 A 
ATOM     16  C   UNL     1      -1.420  11.619  20.478  0.00  0.00    +0.000 A 
ATOM     17  C   UNL     1      -0.733  10.908  21.475  0.00  0.00    +0.000 A 
ATOM     18  C   UNL     1      -1.118  11.078  22.810  0.00  0.00    +0.000 A 
ATOM     19  C   UNL     1      -2.132  11.979  23.145  0.00  0.00    +0.000 A 
ENDBRANCH   1  17
BRANCH   8  20
ATOM     20  C   UNL     1       2.381  13.550  18.161  0.00  0.00    +0.000 A 
ATOM     21  C   UNL     1       1.295  14.340  18.588  0.00  0.00    +0.000 A 
ATOM     22  C   UNL     1       1.473  15.632  19.091  0.00  0.00    +0.000 A 
ATOM     23  C   UNL     1       2.753  16.158  19.165  0.00  0.00    +0.000 A 
ATOM     24  F   UNL     1       2.931  17.393  19.641  0.00  0.00    +0.000 F 
ATOM     25  C   UNL     1       3.845  15.413  18.743  0.00  0.00    +0.000 A 
ATOM     26  C   UNL     1       3.660  14.119  18.236  0.00  0.00    +0.000 A 
ENDBRANCH   8  20
BRANCH   5  27
ATOM     27  C   UNL     1       2.401   6.446  18.650  0.00  0.00    +0.000 C 
BRANCH  27  28
ATOM     28  C   UNL     1       2.746   5.196  17.836  0.00  0.00    +0.000 C 
ATOM     29  C   UNL     1       1.639   4.152  17.762  0.00  0.00    +0.000 C 
ATOM     30  C   UNL     1       2.424   2.874  17.609  0.00  0.00    +0.000 C 
ATOM     31  C   UNL     1       3.636   3.139  18.475  0.00  0.00    +0.000 C 
ATOM     32  O   UNL     1       3.905   4.543  18.396  0.00  0.00    +0.000 OA
ENDBRANCH  27  28
ENDBRANCH   5  27
TORSDOF 4
ENDMDL
MODEL 4
REMARK VINA RESULT:      -7.6      1.052      1.210
REMARK  Name = 
REMARK  4 active torsions:
REMARK  status: ('A' for Active; 'I' for Inactive)
REMARK    1  A    between atoms: C_5  and  N_6
REMARK    2  A    between atoms: N_10  and  C_11
REMARK    3  A    between atoms: C_11  and  C_12
REMARK    4  A    between atoms: N_19  and  C_20
REMARK                            x       y       z     vdW  Elec       q    Type
REMARK                         _______ _______ _______ _____ _____    ______ ____
ROOT
ATOM      1  N   UNL     1       0.874  11.684  18.588  0.00  0.00    +0.000 N 
ATOM      2  C   UNL     1       0.703  10.884  19.723  0.00  0.00    +0.000 A 
ATOM      3  N   UNL     1       1.191   9.659  19.707  0.00  0.00    +0.000 NA
ATOM      4  C   UNL     1       1.036   8.963  20.827  0.00  0.00    +0.000 A 
ATOM      5  N   UNL     1       1.510   7.663  20.880  0.00  0.00    +0.000 N 
ATOM      6  N   UNL     1       0.412   9.412  21.913  0.00  0.00    +0.000 NA
ATOM      7  C   UNL     1      -0.148  10.607  21.795  0.00  0.00    +0.000 A 
ATOM      8  N   UNL     1      -0.979  11.065  22.823  0.00  0.00    +0.000 N 
ATOM      9  N   UNL     1       0.030  11.380  20.742  0.00  0.00    +0.000 NA
ATOM     10  H   UNL     1       1.528  11.232  17.964  0.00  0.00    +0.000 HD
ATOM     11  H   UNL     1       1.948   7.499  21.783  0.00  0.00    +0.000 HD
ATOM     12  H   UNL     1      -0.994  10.409  23.591  0.00  0.00    +0.000 HD
ENDROOT
BRANCH   1  17
ATOM     13  F   UNL     1       1.304  17.209  18.640  0.00  0.00    +0.000 F 
ATOM     14  C   UNL     1       1.192  15.875  18.635  0.00  0.00    +0.000 A 
ATOM     15  C   UNL     1      -0.068  15.296  18.682  0.00  0.00    +0.000 A 
ATOM     16  C   UNL     1      -0.181  13.905  18.668  0.00  0.00    +0.000 A 
ATOM     17  C   UNL     1       0.960  13.090  18.594  0.00  0.00    +0.000 A 
ATOM     18  C   UNL     1       2.221  13.697  18.577  0.00  0.00    +0.000 A 
ATOM     19  C   UNL     1       2.337  15.090  18.582  0.00  0.00    +0.000 A 
ENDBRANCH   1  17
BRANCH   8  20
ATOM     20  C   UNL     1      -2.055  11.976  22.758  0.00  0.00    +0.000 A 
ATOM     21  C   UNL     1      -2.138  13.003  21.797  0.00  0.00    +0.000 A 
ATOM     22  C   UNL     1      -3.180  13.934  21.798  0.00  0.00    +0.000 A 
ATOM     23  C   UNL     1      -4.157  13.852  22.778  0.00  0.00    +0.000 A 
ATOM     24  F   UNL     1      -5.154  14.741  22.788  0.00  0.00    +0.000 F 
ATOM     25  C   UNL     1      -4.101  12.861  23.746  0.00  0.00    +0.000 A 
ATOM     26  C   UNL     1      -3.051  11.932  23.743  0.00  0.00    +0.000 A 
ENDBRANCH   8  20
BRANCH   5  27
ATOM     27  C   UNL     1       2.268   7.198  19.724  0.00  0.00    +0.000 C 
BRANCH  27  28
ATOM     28  C   UNL     1       2.438   5.676  19.747  0.00  0.00    +0.000 C 
ATOM     29  C   UNL     1       2.073   4.970  18.448  0.00  0.00    +0.000 C 
ATOM     30  C   UNL     1       1.625   3.618  18.943  0.00  0.00    +0.000 C 
ATOM     31  C   UNL     1       0.933   3.967  20.242  0.00  0.00    +0.000 C 
ATOM     32  O   UNL     1       1.617   5.101  20.786  0.00  0.00    +0.000 OA
ENDBRANCH  27  28
ENDBRANCH   5  27
TORSDOF 4
ENDMDL
MODEL 5
REMARK VINA RESULT:      -7.6      7.228      9.865
REMARK  Name = 
REMARK  4 active torsions:
REMARK  status: ('A' for Active; 'I' for Inactive)
REMARK    1  A    between atoms: C_5  and  N_6
REMARK    2  A    between atoms: N_10  and  C_11
REMARK    3  A    between atoms: C_11  and  C_12
REMARK    4  A    between atoms: N_19  and  C_20
REMARK                            x       y       z     vdW  Elec       q    Type
REMARK                         _______ _______ _______ _____ _____    ______ ____
ROOT
ATOM      1  N   UNL     1       6.561  14.682  22.315  0.00  0.00    +0.000 N 
ATOM      2  C   UNL     1       7.197  13.528  22.786  0.00  0.00    +0.000 A 
ATOM      3  N   UNL     1       7.158  13.275  24.079  0.00  0.00    +0.000 NA
ATOM      4  C   UNL     1       7.741  12.144  24.462  0.00  0.00    +0.000 A 
ATOM      5  N   UNL     1       7.754  11.817  25.807  0.00  0.00    +0.000 N 
ATOM      6  N   UNL     1       8.363  11.302  23.640  0.00  0.00    +0.000 NA
ATOM      7  C   UNL     1       8.454  11.699  22.379  0.00  0.00    +0.000 A 
ATOM      8  N   UNL     1       9.253  10.962  21.498  0.00  0.00    +0.000 N 
ATOM      9  N   UNL     1       7.835  12.768  21.919  0.00  0.00    +0.000 NA
ATOM     10  H   UNL     1       5.996  15.072  23.058  0.00  0.00    +0.000 HD
ATOM     11  H   UNL     1       7.569  10.823  25.916  0.00  0.00    +0.000 HD
ATOM     12  H   UNL     1       9.628  10.143  21.955  0.00  0.00    +0.000 HD
ENDROOT
BRANCH   1  17
ATOM     13  F   UNL     1       4.456  15.327  17.229  0.00  0.00    +0.000 F 
ATOM     14  C   UNL     1       4.956  15.175  18.462  0.00  0.00    +0.000 A 
ATOM     15  C   UNL     1       4.112  14.807  19.499  0.00  0.00    +0.000 A 
ATOM     16  C   UNL     1       4.637  14.643  20.782  0.00  0.00    +0.000 A 
ATOM     17  C   UNL     1       6.006  14.833  21.029  0.00  0.00    +0.000 A 
ATOM     18  C   UNL     1       6.833  15.232  19.972  0.00  0.00    +0.000 A 
ATOM     19  C   UNL     1       6.310  15.389  18.685  0.00  0.00    +0.000 A 
ENDBRANCH   1  17
BRANCH   8  20
ATOM     20  C   UNL     1       9.925  11.394  20.336  0.00  0.00    +0.000 A 
ATOM     21  C   UNL     1       9.484  11.092  19.032  0.00  0.00    +0.000 A 
ATOM     22  C   UNL     1      10.207  11.474  17.899  0.00  0.00    +0.000 A 
ATOM     23  C   UNL     1      11.399  12.163  18.060  0.00  0.00    +0.000 A 
ATOM     24  F   UNL     1      12.098  12.529  16.982  0.00  0.00    +0.000 F 
ATOM     25  C   UNL     1      11.869  12.469  19.328  0.00  0.00    +0.000 A 
ATOM     26  C   UNL     1      11.141  12.079  20.462  0.00  0.00    +0.000 A 
ENDBRANCH   8  20
BRANCH   5  27
ATOM     27  C   UNL     1       7.001  12.693  26.698  0.00  0.00    +0.000 C 
BRANCH  27  28
ATOM     28  C   UNL     1       5.877  11.931  27.405  0.00  0.00    +0.000 C 
ATOM     29  C   UNL     1       6.275  10.569  27.960  0.00  0.00    +0.000 C 
ATOM     30  C   UNL     1       4.973   9.812  27.893  0.00  0.00    +0.000 C 
ATOM     31  C   UNL     1       4.357  10.348  26.620  0.00  0.00    +0.000 C 
ATOM     32  O   UNL     1       4.777  11.712  26.497  0.00  0.00    +0.000 OA
ENDBRANCH  27  28
ENDBRANCH   5  27
TORSDOF 4
ENDMDL
MODEL 6
REMARK VINA RESULT:      -7.5      1.064      1.674
REMARK  Name = 
REMARK  4 active torsions:
REMARK  status: ('A' for Active; 'I' for Inactive)
REMARK    1  A    between atoms: C_5  and  N_6
REMARK    2  A    between atoms: N_10  and  C_11
REMARK    3  A    between atoms: C_11  and  C_12
REMARK    4  A    between atoms: N_19  and  C_20
REMARK                            x       y       z     vdW  Elec       q    Type
REMARK                         _______ _______ _______ _____ _____    ______ ____
ROOT
ATOM      1  N   UNL     1       0.975  11.574  18.594  0.00  0.00    +0.000 N 
ATOM      2  C   UNL     1       0.789  10.764  19.720  0.00  0.00    +0.000 A 
ATOM      3  N   UNL     1       1.271   9.538  19.698  0.00  0.00    +0.000 NA
ATOM      4  C   UNL     1       1.102   8.832  20.810  0.00  0.00    +0.000 A 
ATOM      5  N   UNL     1       1.569   7.530  20.857  0.00  0.00    +0.000 N 
ATOM      6  N   UNL     1       0.468   9.274  21.894  0.00  0.00    +0.000 NA
ATOM      7  C   UNL     1      -0.086  10.473  21.780  0.00  0.00    +0.000 A 
ATOM      8  N   UNL     1      -0.925  10.925  22.804  0.00  0.00    +0.000 N 
ATOM      9  N   UNL     1       0.108  11.255  20.737  0.00  0.00    +0.000 NA
ATOM     10  H   UNL     1       1.634  11.124  17.973  0.00  0.00    +0.000 HD
ATOM     11  H   UNL     1       1.997   7.355  21.763  0.00  0.00    +0.000 HD
ATOM     12  H   UNL     1      -0.951  10.262  23.565  0.00  0.00    +0.000 HD
ENDROOT
BRANCH   1  17
ATOM     13  F   UNL     1       1.246  17.109  18.645  0.00  0.00    +0.000 F 
ATOM     14  C   UNL     1       1.189  15.771  18.625  0.00  0.00    +0.000 A 
ATOM     15  C   UNL     1       2.366  15.039  18.583  0.00  0.00    +0.000 A 
ATOM     16  C   UNL     1       2.303  13.645  18.571  0.00  0.00    +0.000 A 
ATOM     17  C   UNL     1       1.067  12.979  18.614  0.00  0.00    +0.000 A 
ATOM     18  C   UNL     1      -0.108  13.740  18.627  0.00  0.00    +0.000 A 
ATOM     19  C   UNL     1      -0.047  15.136  18.648  0.00  0.00    +0.000 A 
ENDBRANCH   1  17
BRANCH   8  20
ATOM     20  C   UNL     1      -1.996  11.841  22.735  0.00  0.00    +0.000 A 
ATOM     21  C   UNL     1      -2.976  11.960  23.741  0.00  0.00    +0.000 A 
ATOM     22  C   UNL     1      -4.064  12.828  23.614  0.00  0.00    +0.000 A 
ATOM     23  C   UNL     1      -4.191  13.588  22.462  0.00  0.00    +0.000 A 
ATOM     24  F   UNL     1      -5.230  14.417  22.333  0.00  0.00    +0.000 F 
ATOM     25  C   UNL     1      -3.251  13.490  21.447  0.00  0.00    +0.000 A 
ATOM     26  C   UNL     1      -2.163  12.614  21.578  0.00  0.00    +0.000 A 
ENDBRANCH   8  20
BRANCH   5  27
ATOM     27  C   UNL     1       2.337   7.071  19.705  0.00  0.00    +0.000 C 
BRANCH  27  28
ATOM     28  C   UNL     1       2.448   5.544  19.683  0.00  0.00    +0.000 C 
ATOM     29  C   UNL     1       2.001   4.887  18.384  0.00  0.00    +0.000 C 
ATOM     30  C   UNL     1       1.521   3.540  18.864  0.00  0.00    +0.000 C 
ATOM     31  C   UNL     1       0.899   3.881  20.200  0.00  0.00    +0.000 C 
ATOM     32  O   UNL     1       1.649   4.974  20.742  0.00  0.00    +0.000 OA
ENDBRANCH  27  28
ENDBRANCH   5  27
TORSDOF 4
ENDMDL
MODEL 7
REMARK VINA RESULT:      -7.5      1.554      4.921
REMARK  Name = 
REMARK  4 active torsions:
REMARK  status: ('A' for Active; 'I' for Inactive)
REMARK    1  A    between atoms: C_5  and  N_6
REMARK    2  A    between atoms: N_10  and  C_11
REMARK    3  A    between atoms: C_11  and  C_12
REMARK    4  A    between atoms: N_19  and  C_20
REMARK                            x       y       z     vdW  Elec       q    Type
REMARK                         _______ _______ _______ _____ _____    ______ ____
ROOT
ATOM      1  N   UNL     1       0.362   9.897  21.236  0.00  0.00    +0.000 N 
ATOM      2  C   UNL     1       1.050   9.879  20.018  0.00  0.00    +0.000 A 
ATOM      3  N   UNL     1       1.545   8.733  19.594  0.00  0.00    +0.000 NA
ATOM      4  C   UNL     1       2.149   8.768  18.412  0.00  0.00    +0.000 A 
ATOM      5  N   UNL     1       2.706   7.607  17.907  0.00  0.00    +0.000 N 
ATOM      6  N   UNL     1       2.301   9.868  17.676  0.00  0.00    +0.000 NA
ATOM      7  C   UNL     1       1.877  10.991  18.237  0.00  0.00    +0.000 A 
ATOM      8  N   UNL     1       2.171  12.207  17.611  0.00  0.00    +0.000 N 
ATOM      9  N   UNL     1       1.203  11.016  19.370  0.00  0.00    +0.000 NA
ATOM     10  H   UNL     1       0.196   8.944  21.533  0.00  0.00    +0.000 HD
ATOM     11  H   UNL     1       2.513   7.542  16.911  0.00  0.00    +0.000 HD
ATOM     12  H   UNL     1       2.643  12.052  16.732  0.00  0.00    +0.000 HD
ENDROOT
BRANCH   1  17
ATOM     13  F   UNL     1      -3.692  13.471  22.460  0.00  0.00    +0.000 F 
ATOM     14  C   UNL     1      -2.708  12.610  22.174  0.00  0.00    +0.000 A 
ATOM     15  C   UNL     1      -2.153  11.847  23.190  0.00  0.00    +0.000 A 
ATOM     16  C   UNL     1      -1.132  10.944  22.886  0.00  0.00    +0.000 A 
ATOM     17  C   UNL     1      -0.673  10.793  21.568  0.00  0.00    +0.000 A 
ATOM     18  C   UNL     1      -1.228  11.596  20.565  0.00  0.00    +0.000 A 
ATOM     19  C   UNL     1      -2.256  12.494  20.865  0.00  0.00    +0.000 A 
ENDBRANCH   1  17
BRANCH   8  20
ATOM     20  C   UNL     1       2.317  13.488  18.183  0.00  0.00    +0.000 A 
ATOM     21  C   UNL     1       3.569  14.069  18.466  0.00  0.00    +0.000 A 
ATOM     22  C   UNL     1       3.683  15.311  19.097  0.00  0.00    +0.000 A 
ATOM     23  C   UNL     1       2.532  15.989  19.465  0.00  0.00    +0.000 A 
ATOM     24  F   UNL     1       2.633  17.175  20.071  0.00  0.00    +0.000 F 
ATOM     25  C   UNL     1       1.282  15.443  19.212  0.00  0.00    +0.000 A 
ATOM     26  C   UNL     1       1.174  14.195  18.582  0.00  0.00    +0.000 A 
ENDBRANCH   8  20
BRANCH   5  27
ATOM     27  C   UNL     1       2.469   6.385  18.669  0.00  0.00    +0.000 C 
BRANCH  27  28
ATOM     28  C   UNL     1       2.871   5.144  17.868  0.00  0.00    +0.000 C 
ATOM     29  C   UNL     1       1.756   4.128  17.655  0.00  0.00    +0.000 C 
ATOM     30  C   UNL     1       2.527   2.835  17.557  0.00  0.00    +0.000 C 
ATOM     31  C   UNL     1       3.646   3.055  18.551  0.00  0.00    +0.000 C 
ATOM     32  O   UNL     1       3.951   4.454  18.531  0.00  0.00    +0.000 OA
ENDBRANCH  27  28
ENDBRANCH   5  27
TORSDOF 4
ENDMDL
MODEL 8
REMARK VINA RESULT:      -7.4      8.381      9.171
REMARK  Name = 
REMARK  4 active torsions:
REMARK  status: ('A' for Active; 'I' for Inactive)
REMARK    1  A    between atoms: C_5  and  N_6
REMARK    2  A    between atoms: N_10  and  C_11
REMARK    3  A    between atoms: C_11  and  C_12
REMARK    4  A    between atoms: N_19  and  C_20
REMARK                            x       y       z     vdW  Elec       q    Type
REMARK                         _______ _______ _______ _____ _____    ______ ____
ROOT
ATOM      1  N   UNL     1       9.069  13.149  17.416  0.00  0.00    +0.000 N 
ATOM      2  C   UNL     1       9.135  12.201  18.443  0.00  0.00    +0.000 A 
ATOM      3  N   UNL     1       8.840  10.947  18.159  0.00  0.00    +0.000 NA
ATOM      4  C   UNL     1       8.962  10.086  19.163  0.00  0.00    +0.000 A 
ATOM      5  N   UNL     1       8.656   8.754  18.945  0.00  0.00    +0.000 N 
ATOM      6  N   UNL     1       9.325  10.417  20.400  0.00  0.00    +0.000 NA
ATOM      7  C   UNL     1       9.485  11.714  20.619  0.00  0.00    +0.000 A 
ATOM      8  N   UNL     1       9.681  12.155  21.932  0.00  0.00    +0.000 N 
ATOM      9  N   UNL     1       9.454  12.612  19.654  0.00  0.00    +0.000 NA
ATOM     10  H   UNL     1       8.966  12.668  16.533  0.00  0.00    +0.000 HD
ATOM     11  H   UNL     1       9.343   8.167  19.412  0.00  0.00    +0.000 HD
ATOM     12  H   UNL     1       9.736  11.373  22.568  0.00  0.00    +0.000 HD
ENDROOT
BRANCH   1  17
ATOM     13  F   UNL     1      12.202  17.712  17.151  0.00  0.00    +0.000 F 
ATOM     14  C   UNL     1      11.440  16.614  17.224  0.00  0.00    +0.000 A 
ATOM     15  C   UNL     1      10.102  16.734  17.569  0.00  0.00    +0.000 A 
ATOM     16  C   UNL     1       9.309  15.587  17.636  0.00  0.00    +0.000 A 
ATOM     17  C   UNL     1       9.845  14.322  17.347  0.00  0.00    +0.000 A 
ATOM     18  C   UNL     1      11.205  14.224  17.030  0.00  0.00    +0.000 A 
ATOM     19  C   UNL     1      11.999  15.371  16.953  0.00  0.00    +0.000 A 
ENDBRANCH   1  17
BRANCH   8  20
ATOM     20  C   UNL     1       9.370  13.407  22.504  0.00  0.00    +0.000 A 
ATOM     21  C   UNL     1       9.971  14.613  22.095  0.00  0.00    +0.000 A 
ATOM     22  C   UNL     1       9.695  15.829  22.726  0.00  0.00    +0.000 A 
ATOM     23  C   UNL     1       8.810  15.850  23.793  0.00  0.00    +0.000 A 
ATOM     24  F   UNL     1       8.544  17.008  24.404  0.00  0.00    +0.000 F 
ATOM     25  C   UNL     1       8.208  14.680  24.230  0.00  0.00    +0.000 A 
ATOM     26  C   UNL     1       8.492  13.462  23.596  0.00  0.00    +0.000 A 
ENDBRANCH   8  20
BRANCH   5  27
ATOM     27  C   UNL     1       8.341   8.373  17.573  0.00  0.00    +0.000 C 
BRANCH  27  28
ATOM     28  C   UNL     1       7.348   7.209  17.534  0.00  0.00    +0.000 C 
ATOM     29  C   UNL     1       7.548   6.158  18.619  0.00  0.00    +0.000 C 
ATOM     30  C   UNL     1       7.028   4.912  17.946  0.00  0.00    +0.000 C 
ATOM     31  C   UNL     1       7.467   5.117  16.513  0.00  0.00    +0.000 C 
ATOM     32  O   UNL     1       7.432   6.527  16.265  0.00  0.00    +0.000 OA
ENDBRANCH  27  28
ENDBRANCH   5  27
TORSDOF 4
ENDMDL
MODEL 9
REMARK VINA RESULT:      -7.4      4.458      7.957
REMARK  Name = 
REMARK  4 active torsions:
REMARK  status: ('A' for Active; 'I' for Inactive)
REMARK    1  A    between atoms: C_5  and  N_6
REMARK    2  A    between atoms: N_10  and  C_11
REMARK    3  A    between atoms: C_11  and  C_12
REMARK    4  A    between atoms: N_19  and  C_20
REMARK                            x       y       z     vdW  Elec       q    Type
REMARK                         _______ _______ _______ _____ _____    ______ ____
ROOT
ATOM      1  N   UNL     1      -2.231  12.585  19.065  0.00  0.00    +0.000 N 
ATOM      2  C   UNL     1      -1.731  12.107  20.282  0.00  0.00    +0.000 A 
ATOM      3  N   UNL     1      -1.913  12.836  21.365  0.00  0.00    +0.000 NA
ATOM      4  C   UNL     1      -1.456  12.311  22.496  0.00  0.00    +0.000 A 
ATOM      5  N   UNL     1      -1.597  13.026  23.673  0.00  0.00    +0.000 N 
ATOM      6  N   UNL     1      -0.822  11.144  22.583  0.00  0.00    +0.000 NA
ATOM      7  C   UNL     1      -0.582  10.539  21.428  0.00  0.00    +0.000 A 
ATOM      8  N   UNL     1       0.240   9.407  21.421  0.00  0.00    +0.000 N 
ATOM      9  N   UNL     1      -1.072  10.966  20.281  0.00  0.00    +0.000 NA
ATOM     10  H   UNL     1      -2.833  13.377  19.247  0.00  0.00    +0.000 HD
ATOM     11  H   UNL     1      -1.865  12.394  24.423  0.00  0.00    +0.000 HD
ATOM     12  H   UNL     1       0.508   9.153  22.360  0.00  0.00    +0.000 HD
ENDROOT
BRANCH   1  17
ATOM     13  F   UNL     1      -3.957   9.425  14.853  0.00  0.00    +0.000 F 
ATOM     14  C   UNL     1      -3.534  10.180  15.874  0.00  0.00    +0.000 A 
ATOM     15  C   UNL     1      -2.208  10.105  16.274  0.00  0.00    +0.000 A 
ATOM     16  C   UNL     1      -1.768  10.900  17.334  0.00  0.00    +0.000 A 
ATOM     17  C   UNL     1      -2.646  11.779  17.988  0.00  0.00    +0.000 A 
ATOM     18  C   UNL     1      -3.987  11.816  17.585  0.00  0.00    +0.000 A 
ATOM     19  C   UNL     1      -4.427  11.027  16.518  0.00  0.00    +0.000 A 
ENDBRANCH   1  17
BRANCH   8  20
ATOM     20  C   UNL     1       1.052   8.906  20.381  0.00  0.00    +0.000 A 
ATOM     21  C   UNL     1       1.202   9.553  19.139  0.00  0.00    +0.000 A 
ATOM     22  C   UNL     1       1.956   8.998  18.102  0.00  0.00    +0.000 A 
ATOM     23  C   UNL     1       2.569   7.770  18.295  0.00  0.00    +0.000 A 
ATOM     24  F   UNL     1       3.290   7.231  17.308  0.00  0.00    +0.000 F 
ATOM     25  C   UNL     1       2.435   7.099  19.502  0.00  0.00    +0.000 A 
ATOM     26  C   UNL     1       1.673   7.659  20.537  0.00  0.00    +0.000 A 
ENDBRANCH   8  20
BRANCH   5  27
ATOM     27  C   UNL     1      -2.364  14.264  23.596  0.00  0.00    +0.000 C 
BRANCH  27  28
ATOM     28  C   UNL     1      -3.802  14.057  24.078  0.00  0.00    +0.000 C 
ATOM     29  C   UNL     1      -4.069  12.712  24.743  0.00  0.00    +0.000 C 
ATOM     30  C   UNL     1      -5.528  12.493  24.431  0.00  0.00    +0.000 C 
ATOM     31  C   UNL     1      -5.649  13.082  23.043  0.00  0.00    +0.000 C 
ATOM     32  O   UNL     1      -4.719  14.169  22.969  0.00  0.00    +0.000 OA
ENDBRANCH  27  28
ENDBRANCH   5  27
TORSDOF 4
ENDMDL
