MODEL 1
REMARK VINA RESULT:      -7.9      0.000      0.000
REMARK  Name = 
REMARK  9 active torsions:
REMARK  status: ('A' for Active; 'I' for Inactive)
REMARK    1  A    between atoms: C_1  and  C_2
REMARK    2  A    between atoms: C_2  and  C_3
REMARK    3  A    between atoms: C_3  and  N_4
REMARK    4  A    between atoms: N_4  and  C_5
REMARK    5  A    between atoms: C_5  and  C_6
REMARK    6  A    between atoms: C_6  and  O_7
REMARK    7  A    between atoms: C_6  and  C_8
REMARK    8  A    between atoms: C_8  and  O_9
REMARK    9  A    between atoms: O_9  and  N_10
REMARK                            x       y       z     vdW  Elec       q    Type
REMARK                         _______ _______ _______ _____ _____    ______ ____
ROOT
ATOM      1  N   UNL     1       5.446   4.460  17.644  0.00  0.00    +0.000 NA
ATOM      2  C   UNL     1       4.188   4.167  17.807  0.00  0.00    +0.000 C 
ATOM      3  C   UNL     1       3.413   3.187  16.934  0.00  0.00    +0.000 C 
ATOM      4  C   UNL     1       2.439   2.326  17.731  0.00  0.00    +0.000 C 
ATOM      5  C   UNL     1       3.109   1.785  18.994  0.00  0.00    +0.000 C 
ATOM      6  O   UNL     1       3.225   2.676  20.109  0.00  0.00    +0.000 OA
ATOM      7  C   UNL     1       2.935   3.998  19.934  0.00  0.00    +0.000 A 
ATOM      8  C   UNL     1       2.122   4.542  20.928  0.00  0.00    +0.000 A 
ATOM      9  C   UNL     1       1.710   5.867  20.852  0.00  0.00    +0.000 A 
ATOM     10  C   UNL     1       2.125   6.687  19.794  0.00  0.00    +0.000 A 
ATOM     11  C   UNL     1       1.667   8.010  19.721  0.00  0.00    +0.000 A 
ATOM     12  C   UNL     1       2.054   8.846  18.677  0.00  0.00    +0.000 A 
ATOM     13  C   UNL     1       2.914   8.367  17.696  0.00  0.00    +0.000 A 
ATOM     14  C   UNL     1       3.378   7.050  17.753  0.00  0.00    +0.000 A 
ATOM     15  C   UNL     1       2.995   6.173  18.793  0.00  0.00    +0.000 A 
ATOM     16  C   UNL     1       3.392   4.810  18.886  0.00  0.00    +0.000 A 
ENDROOT
BRANCH   1  17
ATOM     17  O   UNL     1       6.025   3.704  16.605  0.00  0.00    +0.000 OA
BRANCH  17  18
ATOM     18  C   UNL     1       7.001   4.496  15.916  0.00  0.00    +0.000 C 
BRANCH  18  19
ATOM     19  C   UNL     1       6.376   5.131  14.660  0.00  0.00    +0.000 C 
BRANCH  19  20
ATOM     20  O   UNL     1       5.544   6.245  15.029  0.00  0.00    +0.000 OA
ATOM     21  H   UNL     1       4.648   6.043  14.703  0.00  0.00    +0.000 HD
ENDBRANCH  19  20
BRANCH  19  22
ATOM     22  C   UNL     1       5.543   4.117  13.842  0.00  0.00    +0.000 C 
BRANCH  22  23
ATOM     23  N   UNL     1       6.359   3.504  12.779  0.00  0.00    +0.000 NA
ATOM     24  H   UNL     1       6.876   4.242  12.296  0.00  0.00    +0.000 HD
BRANCH  23  25
ATOM     25  C   UNL     1       5.544   2.734  11.839  0.00  0.00    +0.000 C 
BRANCH  25  27
ATOM     26  C   UNL     1       3.691   3.632  10.375  0.00  0.00    +0.000 C 
ATOM     27  C   UNL     1       4.115   3.285  11.796  0.00  0.00    +0.000 C 
ENDBRANCH  25  27
ENDBRANCH  23  25
ENDBRANCH  22  23
ENDBRANCH  19  22
ENDBRANCH  18  19
ENDBRANCH  17  18
ENDBRANCH   1  17
TORSDOF 8
ENDMDL
MODEL 2
REMARK VINA RESULT:      -7.6      1.008      1.327
REMARK  Name = 
REMARK  9 active torsions:
REMARK  status: ('A' for Active; 'I' for Inactive)
REMARK    1  A    between atoms: C_1  and  C_2
REMARK    2  A    between atoms: C_2  and  C_3
REMARK    3  A    between atoms: C_3  and  N_4
REMARK    4  A    between atoms: N_4  and  C_5
REMARK    5  A    between atoms: C_5  and  C_6
REMARK    6  A    between atoms: C_6  and  O_7
REMARK    7  A    between atoms: C_6  and  C_8
REMARK    8  A    between atoms: C_8  and  O_9
REMARK    9  A    between atoms: O_9  and  N_10
REMARK                            x       y       z     vdW  Elec       q    Type
REMARK                         _______ _______ _______ _____ _____    ______ ____
ROOT
ATOM      1  N   UNL     1       5.613   5.018  17.740  0.00  0.00    +0.000 NA
ATOM      2  C   UNL     1       4.393   4.582  17.872  0.00  0.00    +0.000 C 
ATOM      3  C   UNL     1       3.747   3.544  16.961  0.00  0.00    +0.000 C 
ATOM      4  C   UNL     1       2.863   2.559  17.718  0.00  0.00    +0.000 C 
ATOM      5  C   UNL     1       3.570   2.063  18.979  0.00  0.00    +0.000 C 
ATOM      6  O   UNL     1       3.568   2.931  20.118  0.00  0.00    +0.000 OA
ATOM      7  C   UNL     1       3.134   4.217  19.971  0.00  0.00    +0.000 A 
ATOM      8  C   UNL     1       2.250   4.639  20.964  0.00  0.00    +0.000 A 
ATOM      9  C   UNL     1       1.692   5.910  20.913  0.00  0.00    +0.000 A 
ATOM     10  C   UNL     1       2.029   6.800  19.884  0.00  0.00    +0.000 A 
ATOM     11  C   UNL     1       1.426   8.064  19.835  0.00  0.00    +0.000 A 
ATOM     12  C   UNL     1       1.732   8.966  18.819  0.00  0.00    +0.000 A 
ATOM     13  C   UNL     1       2.656   8.613  17.843  0.00  0.00    +0.000 A 
ATOM     14  C   UNL     1       3.265   7.356  17.875  0.00  0.00    +0.000 A 
ATOM     15  C   UNL     1       2.966   6.414  18.886  0.00  0.00    +0.000 A 
ATOM     16  C   UNL     1       3.513   5.102  18.952  0.00  0.00    +0.000 A 
ENDROOT
BRANCH   1  17
ATOM     17  O   UNL     1       6.288   4.361  16.693  0.00  0.00    +0.000 OA
BRANCH  17  18
ATOM     18  C   UNL     1       6.664   5.310  15.687  0.00  0.00    +0.000 C 
BRANCH  18  19
ATOM     19  C   UNL     1       7.179   4.578  14.435  0.00  0.00    +0.000 C 
BRANCH  19  20
ATOM     20  O   UNL     1       7.906   5.488  13.592  0.00  0.00    +0.000 OA
ATOM     21  H   UNL     1       8.728   5.710  14.066  0.00  0.00    +0.000 HD
ENDBRANCH  19  20
BRANCH  19  22
ATOM     22  C   UNL     1       6.034   3.928  13.623  0.00  0.00    +0.000 C 
BRANCH  22  23
ATOM     23  N   UNL     1       6.489   3.571  12.267  0.00  0.00    +0.000 NA
ATOM     24  H   UNL     1       6.405   4.394  11.666  0.00  0.00    +0.000 HD
BRANCH  23  25
ATOM     25  C   UNL     1       5.736   2.443  11.718  0.00  0.00    +0.000 C 
BRANCH  25  27
ATOM     26  C   UNL     1       6.109  -0.003  11.208  0.00  0.00    +0.000 C 
ATOM     27  C   UNL     1       6.690   1.402  11.124  0.00  0.00    +0.000 C 
ENDBRANCH  25  27
ENDBRANCH  23  25
ENDBRANCH  22  23
ENDBRANCH  19  22
ENDBRANCH  18  19
ENDBRANCH  17  18
ENDBRANCH   1  17
TORSDOF 8
ENDMDL
MODEL 3
REMARK VINA RESULT:      -7.5      1.811      3.647
REMARK  Name = 
REMARK  9 active torsions:
REMARK  status: ('A' for Active; 'I' for Inactive)
REMARK    1  A    between atoms: C_1  and  C_2
REMARK    2  A    between atoms: C_2  and  C_3
REMARK    3  A    between atoms: C_3  and  N_4
REMARK    4  A    between atoms: N_4  and  C_5
REMARK    5  A    between atoms: C_5  and  C_6
REMARK    6  A    between atoms: C_6  and  O_7
REMARK    7  A    between atoms: C_6  and  C_8
REMARK    8  A    between atoms: C_8  and  O_9
REMARK    9  A    between atoms: O_9  and  N_10
REMARK                            x       y       z     vdW  Elec       q    Type
REMARK                         _______ _______ _______ _____ _____    ______ ____
ROOT
ATOM      1  N   UNL     1       5.220   4.108  15.484  0.00  0.00    +0.000 NA
ATOM      2  C   UNL     1       5.382   4.563  16.693  0.00  0.00    +0.000 C 
ATOM      3  C   UNL     1       6.735   4.736  17.374  0.00  0.00    +0.000 C 
ATOM      4  C   UNL     1       6.817   6.005  18.215  0.00  0.00    +0.000 C 
ATOM      5  C   UNL     1       6.243   7.196  17.449  0.00  0.00    +0.000 C 
ATOM      6  O   UNL     1       4.818   7.324  17.404  0.00  0.00    +0.000 OA
ATOM      7  C   UNL     1       4.045   6.292  17.853  0.00  0.00    +0.000 A 
ATOM      8  C   UNL     1       3.003   6.681  18.694  0.00  0.00    +0.000 A 
ATOM      9  C   UNL     1       2.165   5.729  19.262  0.00  0.00    +0.000 A 
ATOM     10  C   UNL     1       2.332   4.367  18.978  0.00  0.00    +0.000 A 
ATOM     11  C   UNL     1       1.496   3.423  19.590  0.00  0.00    +0.000 A 
ATOM     12  C   UNL     1       1.645   2.062  19.336  0.00  0.00    +0.000 A 
ATOM     13  C   UNL     1       2.630   1.631  18.456  0.00  0.00    +0.000 A 
ATOM     14  C   UNL     1       3.473   2.559  17.838  0.00  0.00    +0.000 A 
ATOM     15  C   UNL     1       3.356   3.945  18.084  0.00  0.00    +0.000 A 
ATOM     16  C   UNL     1       4.209   4.938  17.527  0.00  0.00    +0.000 A 
ENDROOT
BRANCH   1  17
ATOM     17  O   UNL     1       6.455   3.863  14.852  0.00  0.00    +0.000 OA
BRANCH  17  18
ATOM     18  C   UNL     1       6.934   5.068  14.241  0.00  0.00    +0.000 C 
BRANCH  18  19
ATOM     19  C   UNL     1       7.806   4.730  13.017  0.00  0.00    +0.000 C 
BRANCH  19  20
ATOM     20  O   UNL     1       8.454   5.917  12.528  0.00  0.00    +0.000 OA
ATOM     21  H   UNL     1       7.749   6.564  12.345  0.00  0.00    +0.000 HD
ENDBRANCH  19  20
BRANCH  19  22
ATOM     22  C   UNL     1       6.988   4.084  11.876  0.00  0.00    +0.000 C 
BRANCH  22  23
ATOM     23  N   UNL     1       6.189   2.951  12.378  0.00  0.00    +0.000 NA
ATOM     24  H   UNL     1       6.823   2.191  12.634  0.00  0.00    +0.000 HD
BRANCH  23  25
ATOM     25  C   UNL     1       5.201   2.502  11.398  0.00  0.00    +0.000 C 
BRANCH  25  27
ATOM     26  C   UNL     1       3.327   3.602  10.108  0.00  0.00    +0.000 C 
ATOM     27  C   UNL     1       3.934   3.358  11.484  0.00  0.00    +0.000 C 
ENDBRANCH  25  27
ENDBRANCH  23  25
ENDBRANCH  22  23
ENDBRANCH  19  22
ENDBRANCH  18  19
ENDBRANCH  17  18
ENDBRANCH   1  17
TORSDOF 8
ENDMDL
MODEL 4
REMARK VINA RESULT:      -7.5      1.285      1.538
REMARK  Name = 
REMARK  9 active torsions:
REMARK  status: ('A' for Active; 'I' for Inactive)
REMARK    1  A    between atoms: C_1  and  C_2
REMARK    2  A    between atoms: C_2  and  C_3
REMARK    3  A    between atoms: C_3  and  N_4
REMARK    4  A    between atoms: N_4  and  C_5
REMARK    5  A    between atoms: C_5  and  C_6
REMARK    6  A    between atoms: C_6  and  O_7
REMARK    7  A    between atoms: C_6  and  C_8
REMARK    8  A    between atoms: C_8  and  O_9
REMARK    9  A    between atoms: O_9  and  N_10
REMARK                            x       y       z     vdW  Elec       q    Type
REMARK                         _______ _______ _______ _____ _____    ______ ____
ROOT
ATOM      1  N   UNL     1       4.538   5.403  17.293  0.00  0.00    +0.000 NA
ATOM      2  C   UNL     1       3.342   5.115  17.720  0.00  0.00    +0.000 C 
ATOM      3  C   UNL     1       2.425   4.081  17.078  0.00  0.00    +0.000 C 
ATOM      4  C   UNL     1       1.643   3.265  18.102  0.00  0.00    +0.000 C 
ATOM      5  C   UNL     1       2.560   2.804  19.235  0.00  0.00    +0.000 C 
ATOM      6  O   UNL     1       2.881   3.761  20.251  0.00  0.00    +0.000 OA
ATOM      7  C   UNL     1       2.540   5.069  20.061  0.00  0.00    +0.000 A 
ATOM      8  C   UNL     1       1.933   5.668  21.164  0.00  0.00    +0.000 A 
ATOM      9  C   UNL     1       1.492   6.983  21.096  0.00  0.00    +0.000 A 
ATOM     10  C   UNL     1       1.676   7.740  19.930  0.00  0.00    +0.000 A 
ATOM     11  C   UNL     1       1.190   9.054  19.874  0.00  0.00    +0.000 A 
ATOM     12  C   UNL     1       1.348   9.828  18.726  0.00  0.00    +0.000 A 
ATOM     13  C   UNL     1       2.003   9.295  17.623  0.00  0.00    +0.000 A 
ATOM     14  C   UNL     1       2.491   7.986  17.662  0.00  0.00    +0.000 A 
ATOM     15  C   UNL     1       2.337   7.172  18.807  0.00  0.00    +0.000 A 
ATOM     16  C   UNL     1       2.766   5.818  18.897  0.00  0.00    +0.000 A 
ENDROOT
BRANCH   1  17
ATOM     17  O   UNL     1       4.910   4.589  16.205  0.00  0.00    +0.000 OA
BRANCH  17  18
ATOM     18  C   UNL     1       6.225   4.061  16.422  0.00  0.00    +0.000 C 
BRANCH  18  19
ATOM     19  C   UNL     1       7.236   4.764  15.497  0.00  0.00    +0.000 C 
BRANCH  19  20
ATOM     20  O   UNL     1       7.423   6.128  15.912  0.00  0.00    +0.000 OA
ATOM     21  H   UNL     1       6.586   6.410  16.324  0.00  0.00    +0.000 HD
ENDBRANCH  19  20
BRANCH  19  22
ATOM     22  C   UNL     1       6.795   4.733  14.015  0.00  0.00    +0.000 C 
BRANCH  22  23
ATOM     23  N   UNL     1       6.211   3.425  13.669  0.00  0.00    +0.000 NA
ATOM     24  H   UNL     1       6.868   2.690  13.939  0.00  0.00    +0.000 HD
BRANCH  23  25
ATOM     25  C   UNL     1       5.880   3.334  12.246  0.00  0.00    +0.000 C 
BRANCH  25  27
ATOM     26  C   UNL     1       6.387   1.144  11.092  0.00  0.00    +0.000 C 
ATOM     27  C   UNL     1       6.933   2.505  11.505  0.00  0.00    +0.000 C 
ENDBRANCH  25  27
ENDBRANCH  23  25
ENDBRANCH  22  23
ENDBRANCH  19  22
ENDBRANCH  18  19
ENDBRANCH  17  18
ENDBRANCH   1  17
TORSDOF 8
ENDMDL
MODEL 5
REMARK VINA RESULT:      -7.1      2.015      4.023
REMARK  Name = 
REMARK  9 active torsions:
REMARK  status: ('A' for Active; 'I' for Inactive)
REMARK    1  A    between atoms: C_1  and  C_2
REMARK    2  A    between atoms: C_2  and  C_3
REMARK    3  A    between atoms: C_3  and  N_4
REMARK    4  A    between atoms: N_4  and  C_5
REMARK    5  A    between atoms: C_5  and  C_6
REMARK    6  A    between atoms: C_6  and  O_7
REMARK    7  A    between atoms: C_6  and  C_8
REMARK    8  A    between atoms: C_8  and  O_9
REMARK    9  A    between atoms: O_9  and  N_10
REMARK                            x       y       z     vdW  Elec       q    Type
REMARK                         _______ _______ _______ _____ _____    ______ ____
ROOT
ATOM      1  N   UNL     1       5.477   4.366  15.038  0.00  0.00    +0.000 NA
ATOM      2  C   UNL     1       5.627   4.720  16.282  0.00  0.00    +0.000 C 
ATOM      3  C   UNL     1       6.944   4.643  17.046  0.00  0.00    +0.000 C 
ATOM      4  C   UNL     1       7.162   5.834  17.973  0.00  0.00    +0.000 C 
ATOM      5  C   UNL     1       6.825   7.141  17.257  0.00  0.00    +0.000 C 
ATOM      6  O   UNL     1       5.441   7.490  17.142  0.00  0.00    +0.000 OA
ATOM      7  C   UNL     1       4.494   6.566  17.479  0.00  0.00    +0.000 A 
ATOM      8  C   UNL     1       3.471   7.063  18.284  0.00  0.00    +0.000 A 
ATOM      9  C   UNL     1       2.464   6.221  18.741  0.00  0.00    +0.000 A 
ATOM     10  C   UNL     1       2.442   4.868  18.377  0.00  0.00    +0.000 A 
ATOM     11  C   UNL     1       1.435   4.031  18.879  0.00  0.00    +0.000 A 
ATOM     12  C   UNL     1       1.393   2.680  18.543  0.00  0.00    +0.000 A 
ATOM     13  C   UNL     1       2.356   2.153  17.692  0.00  0.00    +0.000 A 
ATOM     14  C   UNL     1       3.368   2.973  17.184  0.00  0.00    +0.000 A 
ATOM     15  C   UNL     1       3.445   4.345  17.515  0.00  0.00    +0.000 A 
ATOM     16  C   UNL     1       4.473   5.224  17.073  0.00  0.00    +0.000 A 
ENDROOT
BRANCH   1  17
ATOM     17  O   UNL     1       6.699   3.969  14.460  0.00  0.00    +0.000 OA
BRANCH  17  18
ATOM     18  C   UNL     1       6.591   3.996  13.031  0.00  0.00    +0.000 C 
BRANCH  18  19
ATOM     19  C   UNL     1       5.741   2.808  12.543  0.00  0.00    +0.000 C 
BRANCH  19  20
ATOM     20  O   UNL     1       6.426   2.107  11.492  0.00  0.00    +0.000 OA
ATOM     21  H   UNL     1       5.750   1.861  10.835  0.00  0.00    +0.000 HD
ENDBRANCH  19  20
BRANCH  19  22
ATOM     22  C   UNL     1       4.347   3.253  12.041  0.00  0.00    +0.000 C 
BRANCH  22  23
ATOM     23  N   UNL     1       4.364   3.488  10.586  0.00  0.00    +0.000 NA
ATOM     24  H   UNL     1       4.859   4.363  10.401  0.00  0.00    +0.000 HD
BRANCH  23  25
ATOM     25  C   UNL     1       3.014   3.521  10.023  0.00  0.00    +0.000 C 
BRANCH  25  27
ATOM     26  C   UNL     1       1.836   5.364   8.759  0.00  0.00    +0.000 C 
ATOM     27  C   UNL     1       2.988   4.367   8.746  0.00  0.00    +0.000 C 
ENDBRANCH  25  27
ENDBRANCH  23  25
ENDBRANCH  22  23
ENDBRANCH  19  22
ENDBRANCH  18  19
ENDBRANCH  17  18
ENDBRANCH   1  17
TORSDOF 8
ENDMDL
MODEL 6
REMARK VINA RESULT:      -7.1      2.262      4.027
REMARK  Name = 
REMARK  9 active torsions:
REMARK  status: ('A' for Active; 'I' for Inactive)
REMARK    1  A    between atoms: C_1  and  C_2
REMARK    2  A    between atoms: C_2  and  C_3
REMARK    3  A    between atoms: C_3  and  N_4
REMARK    4  A    between atoms: N_4  and  C_5
REMARK    5  A    between atoms: C_5  and  C_6
REMARK    6  A    between atoms: C_6  and  O_7
REMARK    7  A    between atoms: C_6  and  C_8
REMARK    8  A    between atoms: C_8  and  O_9
REMARK    9  A    between atoms: O_9  and  N_10
REMARK                            x       y       z     vdW  Elec       q    Type
REMARK                         _______ _______ _______ _____ _____    ______ ____
ROOT
ATOM      1  N   UNL     1       4.971   4.551  17.570  0.00  0.00    +0.000 NA
ATOM      2  C   UNL     1       3.728   4.293  17.860  0.00  0.00    +0.000 C 
ATOM      3  C   UNL     1       2.854   3.305  17.096  0.00  0.00    +0.000 C 
ATOM      4  C   UNL     1       1.942   2.492  18.009  0.00  0.00    +0.000 C 
ATOM      5  C   UNL     1       2.718   1.975  19.220  0.00  0.00    +0.000 C 
ATOM      6  O   UNL     1       2.957   2.897  20.290  0.00  0.00    +0.000 OA
ATOM      7  C   UNL     1       2.679   4.220  20.100  0.00  0.00    +0.000 A 
ATOM      8  C   UNL     1       1.975   4.813  21.147  0.00  0.00    +0.000 A 
ATOM      9  C   UNL     1       1.584   6.144  21.067  0.00  0.00    +0.000 A 
ATOM     10  C   UNL     1       1.915   6.921  19.948  0.00  0.00    +0.000 A 
ATOM     11  C   UNL     1       1.479   8.251  19.875  0.00  0.00    +0.000 A 
ATOM     12  C   UNL     1       1.782   9.045  18.771  0.00  0.00    +0.000 A 
ATOM     13  C   UNL     1       2.535   8.516  17.731  0.00  0.00    +0.000 A 
ATOM     14  C   UNL     1       2.976   7.191  17.787  0.00  0.00    +0.000 A 
ATOM     15  C   UNL     1       2.675   6.356  18.886  0.00  0.00    +0.000 A 
ATOM     16  C   UNL     1       3.051   4.987  18.987  0.00  0.00    +0.000 A 
ENDROOT
BRANCH   1  17
ATOM     17  O   UNL     1       5.433   3.751  16.507  0.00  0.00    +0.000 OA
BRANCH  17  18
ATOM     18  C   UNL     1       6.171   4.557  15.579  0.00  0.00    +0.000 C 
BRANCH  18  19
ATOM     19  C   UNL     1       7.258   5.356  16.321  0.00  0.00    +0.000 C 
BRANCH  19  20
ATOM     20  O   UNL     1       7.853   4.547  17.350  0.00  0.00    +0.000 OA
ATOM     21  H   UNL     1       7.507   3.644  17.228  0.00  0.00    +0.000 HD
ENDBRANCH  19  20
BRANCH  19  22
ATOM     22  C   UNL     1       6.706   6.658  16.945  0.00  0.00    +0.000 C 
BRANCH  22  23
ATOM     23  N   UNL     1       7.671   7.234  17.898  0.00  0.00    +0.000 NA
ATOM     24  H   UNL     1       7.321   7.090  18.848  0.00  0.00    +0.000 HD
BRANCH  23  25
ATOM     25  C   UNL     1       7.913   8.654  17.639  0.00  0.00    +0.000 C 
BRANCH  25  27
ATOM     26  C   UNL     1       9.134  10.713  18.448  0.00  0.00    +0.000 C 
ATOM     27  C   UNL     1       8.823   9.247  18.720  0.00  0.00    +0.000 C 
ENDBRANCH  25  27
ENDBRANCH  23  25
ENDBRANCH  22  23
ENDBRANCH  19  22
ENDBRANCH  18  19
ENDBRANCH  17  18
ENDBRANCH   1  17
TORSDOF 8
ENDMDL
MODEL 7
REMARK VINA RESULT:      -7.0      3.698      6.792
REMARK  Name = 
REMARK  9 active torsions:
REMARK  status: ('A' for Active; 'I' for Inactive)
REMARK    1  A    between atoms: C_1  and  C_2
REMARK    2  A    between atoms: C_2  and  C_3
REMARK    3  A    between atoms: C_3  and  N_4
REMARK    4  A    between atoms: N_4  and  C_5
REMARK    5  A    between atoms: C_5  and  C_6
REMARK    6  A    between atoms: C_6  and  O_7
REMARK    7  A    between atoms: C_6  and  C_8
REMARK    8  A    between atoms: C_8  and  O_9
REMARK    9  A    between atoms: O_9  and  N_10
REMARK                            x       y       z     vdW  Elec       q    Type
REMARK                         _______ _______ _______ _____ _____    ______ ____
ROOT
ATOM      1  N   UNL     1       2.107   7.628  17.990  0.00  0.00    +0.000 NA
ATOM      2  C   UNL     1       2.539   6.616  18.686  0.00  0.00    +0.000 C 
ATOM      3  C   UNL     1       2.478   6.528  20.207  0.00  0.00    +0.000 C 
ATOM      4  C   UNL     1       2.122   5.131  20.705  0.00  0.00    +0.000 C 
ATOM      5  C   UNL     1       0.952   4.558  19.907  0.00  0.00    +0.000 C 
ATOM      6  O   UNL     1       1.241   4.016  18.614  0.00  0.00    +0.000 OA
ATOM      7  C   UNL     1       2.477   4.219  18.071  0.00  0.00    +0.000 A 
ATOM      8  C   UNL     1       3.056   3.076  17.521  0.00  0.00    +0.000 A 
ATOM      9  C   UNL     1       4.333   3.128  16.976  0.00  0.00    +0.000 A 
ATOM     10  C   UNL     1       5.049   4.333  16.941  0.00  0.00    +0.000 A 
ATOM     11  C   UNL     1       6.349   4.352  16.417  0.00  0.00    +0.000 A 
ATOM     12  C   UNL     1       7.089   5.532  16.379  0.00  0.00    +0.000 A 
ATOM     13  C   UNL     1       6.529   6.710  16.858  0.00  0.00    +0.000 A 
ATOM     14  C   UNL     1       5.235   6.707  17.385  0.00  0.00    +0.000 A 
ATOM     15  C   UNL     1       4.463   5.526  17.449  0.00  0.00    +0.000 A 
ATOM     16  C   UNL     1       3.160   5.443  18.015  0.00  0.00    +0.000 A 
ENDROOT
BRANCH   1  17
ATOM     17  O   UNL     1       1.510   8.605  18.811  0.00  0.00    +0.000 OA
BRANCH  17  18
ATOM     18  C   UNL     1       1.691   9.903  18.231  0.00  0.00    +0.000 C 
BRANCH  18  19
ATOM     19  C   UNL     1       0.992  10.970  19.094  0.00  0.00    +0.000 C 
BRANCH  19  20
ATOM     20  O   UNL     1       0.930  10.537  20.463  0.00  0.00    +0.000 OA
ATOM     21  H   UNL     1       1.644   9.884  20.581  0.00  0.00    +0.000 HD
ENDBRANCH  19  20
BRANCH  19  22
ATOM     22  C   UNL     1      -0.434  11.291  18.590  0.00  0.00    +0.000 C 
BRANCH  22  23
ATOM     23  N   UNL     1      -0.876  10.295  17.597  0.00  0.00    +0.000 NA
ATOM     24  H   UNL     1      -0.621  10.627  16.664  0.00  0.00    +0.000 HD
BRANCH  23  25
ATOM     25  C   UNL     1      -2.313  10.036  17.686  0.00  0.00    +0.000 C 
BRANCH  25  27
ATOM     26  C   UNL     1      -3.006  10.912  15.420  0.00  0.00    +0.000 C 
ATOM     27  C   UNL     1      -2.878   9.681  16.307  0.00  0.00    +0.000 C 
ENDBRANCH  25  27
ENDBRANCH  23  25
ENDBRANCH  22  23
ENDBRANCH  19  22
ENDBRANCH  18  19
ENDBRANCH  17  18
ENDBRANCH   1  17
TORSDOF 8
ENDMDL
MODEL 8
REMARK VINA RESULT:      -7.0      1.441      1.892
REMARK  Name = 
REMARK  9 active torsions:
REMARK  status: ('A' for Active; 'I' for Inactive)
REMARK    1  A    between atoms: C_1  and  C_2
REMARK    2  A    between atoms: C_2  and  C_3
REMARK    3  A    between atoms: C_3  and  N_4
REMARK    4  A    between atoms: N_4  and  C_5
REMARK    5  A    between atoms: C_5  and  C_6
REMARK    6  A    between atoms: C_6  and  O_7
REMARK    7  A    between atoms: C_6  and  C_8
REMARK    8  A    between atoms: C_8  and  O_9
REMARK    9  A    between atoms: O_9  and  N_10
REMARK                            x       y       z     vdW  Elec       q    Type
REMARK                         _______ _______ _______ _____ _____    ______ ____
ROOT
ATOM      1  N   UNL     1       4.324   6.113  17.659  0.00  0.00    +0.000 NA
ATOM      2  C   UNL     1       3.107   5.844  18.037  0.00  0.00    +0.000 C 
ATOM      3  C   UNL     1       2.222   4.782  17.396  0.00  0.00    +0.000 C 
ATOM      4  C   UNL     1       1.386   4.014  18.414  0.00  0.00    +0.000 C 
ATOM      5  C   UNL     1       2.242   3.605  19.612  0.00  0.00    +0.000 C 
ATOM      6  O   UNL     1       2.513   4.607  20.599  0.00  0.00    +0.000 OA
ATOM      7  C   UNL     1       2.186   5.905  20.333  0.00  0.00    +0.000 A 
ATOM      8  C   UNL     1       1.524   6.554  21.375  0.00  0.00    +0.000 A 
ATOM      9  C   UNL     1       1.090   7.865  21.224  0.00  0.00    +0.000 A 
ATOM     10  C   UNL     1       1.335   8.568  20.036  0.00  0.00    +0.000 A 
ATOM     11  C   UNL     1       0.857   9.878  19.895  0.00  0.00    +0.000 A 
ATOM     12  C   UNL     1       1.075  10.599  18.723  0.00  0.00    +0.000 A 
ATOM     13  C   UNL     1       1.785  10.016  17.681  0.00  0.00    +0.000 A 
ATOM     14  C   UNL     1       2.267   8.710  17.804  0.00  0.00    +0.000 A 
ATOM     15  C   UNL     1       2.052   7.949  18.975  0.00  0.00    +0.000 A 
ATOM     16  C   UNL     1       2.473   6.600  19.149  0.00  0.00    +0.000 A 
ENDROOT
BRANCH   1  17
ATOM     17  O   UNL     1       4.750   5.250  16.630  0.00  0.00    +0.000 OA
BRANCH  17  18
ATOM     18  C   UNL     1       5.700   5.925  15.795  0.00  0.00    +0.000 C 
BRANCH  18  19
ATOM     19  C   UNL     1       6.865   4.979  15.449  0.00  0.00    +0.000 C 
BRANCH  19  20
ATOM     20  O   UNL     1       7.788   5.632  14.560  0.00  0.00    +0.000 OA
ATOM     21  H   UNL     1       7.813   5.100  13.745  0.00  0.00    +0.000 HD
ENDBRANCH  19  20
BRANCH  19  22
ATOM     22  C   UNL     1       6.378   3.660  14.805  0.00  0.00    +0.000 C 
BRANCH  22  23
ATOM     23  N   UNL     1       5.635   3.926  13.561  0.00  0.00    +0.000 NA
ATOM     24  H   UNL     1       4.690   3.548  13.656  0.00  0.00    +0.000 HD
BRANCH  23  25
ATOM     25  C   UNL     1       6.309   3.364  12.391  0.00  0.00    +0.000 C 
BRANCH  25  27
ATOM     26  C   UNL     1       4.027   3.301  11.306  0.00  0.00    +0.000 C 
ATOM     27  C   UNL     1       5.325   2.542  11.551  0.00  0.00    +0.000 C 
ENDBRANCH  25  27
ENDBRANCH  23  25
ENDBRANCH  22  23
ENDBRANCH  19  22
ENDBRANCH  18  19
ENDBRANCH  17  18
ENDBRANCH   1  17
TORSDOF 8
ENDMDL
MODEL 9
REMARK VINA RESULT:      -7.0      3.564      7.616
REMARK  Name = 
REMARK  9 active torsions:
REMARK  status: ('A' for Active; 'I' for Inactive)
REMARK    1  A    between atoms: C_1  and  C_2
REMARK    2  A    between atoms: C_2  and  C_3
REMARK    3  A    between atoms: C_3  and  N_4
REMARK    4  A    between atoms: N_4  and  C_5
REMARK    5  A    between atoms: C_5  and  C_6
REMARK    6  A    between atoms: C_6  and  O_7
REMARK    7  A    between atoms: C_6  and  C_8
REMARK    8  A    between atoms: C_8  and  O_9
REMARK    9  A    between atoms: O_9  and  N_10
REMARK                            x       y       z     vdW  Elec       q    Type
REMARK                         _______ _______ _______ _____ _____    ______ ____
ROOT
ATOM      1  N   UNL     1       2.085   7.583  18.176  0.00  0.00    +0.000 NA
ATOM      2  C   UNL     1       2.526   6.531  18.802  0.00  0.00    +0.000 C 
ATOM      3  C   UNL     1       2.551   6.379  20.319  0.00  0.00    +0.000 C 
ATOM      4  C   UNL     1       2.185   4.972  20.780  0.00  0.00    +0.000 C 
ATOM      5  C   UNL     1       0.953   4.465  20.030  0.00  0.00    +0.000 C 
ATOM      6  O   UNL     1       1.150   3.972  18.700  0.00  0.00    +0.000 OA
ATOM      7  C   UNL     1       2.358   4.165  18.093  0.00  0.00    +0.000 A 
ATOM      8  C   UNL     1       2.869   3.032  17.463  0.00  0.00    +0.000 A 
ATOM      9  C   UNL     1       4.113   3.072  16.845  0.00  0.00    +0.000 A 
ATOM     10  C   UNL     1       4.861   4.258  16.817  0.00  0.00    +0.000 A 
ATOM     11  C   UNL     1       6.128   4.264  16.218  0.00  0.00    +0.000 A 
ATOM     12  C   UNL     1       6.899   5.424  16.184  0.00  0.00    +0.000 A 
ATOM     13  C   UNL     1       6.403   6.595  16.743  0.00  0.00    +0.000 A 
ATOM     14  C   UNL     1       5.142   6.605  17.347  0.00  0.00    +0.000 A 
ATOM     15  C   UNL     1       4.341   5.443  17.408  0.00  0.00    +0.000 A 
ATOM     16  C   UNL     1       3.072   5.371  18.047  0.00  0.00    +0.000 A 
ENDROOT
BRANCH   1  17
ATOM     17  O   UNL     1       1.565   8.540  19.071  0.00  0.00    +0.000 OA
BRANCH  17  18
ATOM     18  C   UNL     1       1.486   9.817  18.424  0.00  0.00    +0.000 C 
BRANCH  18  19
ATOM     19  C   UNL     1       0.397  10.679  19.087  0.00  0.00    +0.000 C 
BRANCH  19  20
ATOM     20  O   UNL     1      -0.161  11.595  18.130  0.00  0.00    +0.000 OA
ATOM     21  H   UNL     1       0.533  12.250  17.933  0.00  0.00    +0.000 HD
ENDBRANCH  19  20
BRANCH  19  22
ATOM     22  C   UNL     1       0.934  11.469  20.303  0.00  0.00    +0.000 C 
BRANCH  22  23
ATOM     23  N   UNL     1       1.027  10.604  21.492  0.00  0.00    +0.000 NA
ATOM     24  H   UNL     1       1.809   9.957  21.366  0.00  0.00    +0.000 HD
BRANCH  23  25
ATOM     25  C   UNL     1      -0.218   9.878  21.739  0.00  0.00    +0.000 C 
BRANCH  25  27
ATOM     26  C   UNL     1      -1.652  11.503  23.038  0.00  0.00    +0.000 C 
ATOM     27  C   UNL     1      -0.791  10.248  23.111  0.00  0.00    +0.000 C 
ENDBRANCH  25  27
ENDBRANCH  23  25
ENDBRANCH  22  23
ENDBRANCH  19  22
ENDBRANCH  18  19
ENDBRANCH  17  18
ENDBRANCH   1  17
TORSDOF 8
ENDMDL
