MODEL 1
REMARK VINA RESULT:      -8.3      0.000      0.000
REMARK  Name = 
REMARK  5 active torsions:
REMARK  status: ('A' for Active; 'I' for Inactive)
REMARK    1  A    between atoms: C_2  and  C_4
REMARK    2  A    between atoms: C_4  and  O_5
REMARK    3  A    between atoms: O_5  and  C_6
REMARK    4  A    between atoms: C_9  and  C_10
REMARK    5  A    between atoms: N_19  and  C_20
REMARK                            x       y       z     vdW  Elec       q    Type
REMARK                         _______ _______ _______ _____ _____    ______ ____
ROOT
ATOM      1  C   UNL     1       3.085   5.730  18.698  0.00  0.00    +0.000 C 
ATOM      2  C   UNL     1       2.035   4.714  18.238  0.00  0.00    +0.000 C 
ATOM      3  C   UNL     1       2.626   3.587  17.440  0.00  0.00    +0.000 C 
ATOM      4  O   UNL     1       2.208   2.443  17.425  0.00  0.00    +0.000 OA
ATOM      5  N   UNL     1       3.680   3.883  16.515  0.00  0.00    +0.000 N 
ATOM      6  C   UNL     1       4.380   5.064  16.642  0.00  0.00    +0.000 A 
ATOM      7  C   UNL     1       4.150   5.935  17.676  0.00  0.00    +0.000 A 
ATOM      8  N   UNL     1       5.175   6.839  17.764  0.00  0.00    +0.000 NA
ATOM      9  C   UNL     1       5.972   6.563  16.749  0.00  0.00    +0.000 A 
ATOM     10  N   UNL     1       5.493   5.528  15.974  0.00  0.00    +0.000 N 
ATOM     11  H   UNL     1       3.977   3.137  15.894  0.00  0.00    +0.000 HD
ENDROOT
BRANCH   1  15
ATOM     12  C   UNL     1       1.060   9.461  19.577  0.00  0.00    +0.000 A 
ATOM     13  C   UNL     1       1.298   8.523  20.580  0.00  0.00    +0.000 A 
ATOM     14  C   UNL     1       1.989   7.343  20.290  0.00  0.00    +0.000 A 
ATOM     15  C   UNL     1       2.437   7.070  18.989  0.00  0.00    +0.000 A 
ATOM     16  C   UNL     1       2.180   8.022  17.985  0.00  0.00    +0.000 A 
ATOM     17  C   UNL     1       1.487   9.199  18.277  0.00  0.00    +0.000 A 
BRANCH  12  18
ATOM     18  O   UNL     1       0.412  10.653  19.755  0.00  0.00    +0.000 OA
BRANCH  18  19
ATOM     19  C   UNL     1      -0.813  10.788  19.034  0.00  0.00    +0.000 C 
BRANCH  19  21
ATOM     20  N   UNL     1      -1.656  12.218  17.229  0.00  0.00    +0.000 N 
ATOM     21  C   UNL     1      -0.931  12.160  18.382  0.00  0.00    +0.000 C 
ATOM     22  O   UNL     1      -0.411  13.167  18.854  0.00  0.00    +0.000 OA
ATOM     23  H   UNL     1      -1.736  13.102  16.746  0.00  0.00    +0.000 HD
ATOM     24  H   UNL     1      -2.054  11.379  16.825  0.00  0.00    +0.000 HD
ENDBRANCH  19  21
ENDBRANCH  18  19
ENDBRANCH  12  18
ENDBRANCH   1  15
BRANCH  10  25
ATOM     25  C   UNL     1       6.041   5.019  14.781  0.00  0.00    +0.000 A 
ATOM     26  C   UNL     1       5.392   4.030  14.044  0.00  0.00    +0.000 A 
ATOM     27  C   UNL     1       5.973   3.590  12.855  0.00  0.00    +0.000 A 
ATOM     28  C   UNL     1       7.189   4.133  12.468  0.00  0.00    +0.000 A 
ATOM     29  N   UNL     1       7.845   5.077  13.179  0.00  0.00    +0.000 NA
ATOM     30  C   UNL     1       7.265   5.495  14.322  0.00  0.00    +0.000 A 
ENDBRANCH  10  25
TORSDOF 5
ENDMDL
MODEL 2
REMARK VINA RESULT:      -8.1      1.599      1.739
REMARK  Name = 
REMARK  5 active torsions:
REMARK  status: ('A' for Active; 'I' for Inactive)
REMARK    1  A    between atoms: C_2  and  C_4
REMARK    2  A    between atoms: C_4  and  O_5
REMARK    3  A    between atoms: O_5  and  C_6
REMARK    4  A    between atoms: C_9  and  C_10
REMARK    5  A    between atoms: N_19  and  C_20
REMARK                            x       y       z     vdW  Elec       q    Type
REMARK                         _______ _______ _______ _____ _____    ______ ____
ROOT
ATOM      1  C   UNL     1       3.182   5.450  18.761  0.00  0.00    +0.000 C 
ATOM      2  C   UNL     1       2.114   4.471  18.262  0.00  0.00    +0.000 C 
ATOM      3  C   UNL     1       2.682   3.386  17.392  0.00  0.00    +0.000 C 
ATOM      4  O   UNL     1       2.251   2.248  17.319  0.00  0.00    +0.000 OA
ATOM      5  N   UNL     1       3.724   3.723  16.468  0.00  0.00    +0.000 N 
ATOM      6  C   UNL     1       4.438   4.888  16.650  0.00  0.00    +0.000 A 
ATOM      7  C   UNL     1       4.233   5.702  17.735  0.00  0.00    +0.000 A 
ATOM      8  N   UNL     1       5.269   6.590  17.857  0.00  0.00    +0.000 NA
ATOM      9  C   UNL     1       6.046   6.364  16.815  0.00  0.00    +0.000 A 
ATOM     10  N   UNL     1       5.544   5.379  15.991  0.00  0.00    +0.000 N 
ATOM     11  H   UNL     1       4.003   3.011  15.801  0.00  0.00    +0.000 HD
ENDROOT
BRANCH   1  15
ATOM     12  C   UNL     1       1.207   9.146  19.872  0.00  0.00    +0.000 A 
ATOM     13  C   UNL     1       1.394   8.126  20.803  0.00  0.00    +0.000 A 
ATOM     14  C   UNL     1       2.069   6.957  20.442  0.00  0.00    +0.000 A 
ATOM     15  C   UNL     1       2.553   6.777  19.138  0.00  0.00    +0.000 A 
ATOM     16  C   UNL     1       2.348   7.810  18.205  0.00  0.00    +0.000 A 
ATOM     17  C   UNL     1       1.670   8.977  18.569  0.00  0.00    +0.000 A 
BRANCH  12  18
ATOM     18  O   UNL     1       0.578  10.334  20.124  0.00  0.00    +0.000 OA
BRANCH  18  19
ATOM     19  C   UNL     1      -0.642  10.228  20.857  0.00  0.00    +0.000 C 
BRANCH  19  21
ATOM     20  N   UNL     1      -0.822   9.834  23.272  0.00  0.00    +0.000 N 
ATOM     21  C   UNL     1      -0.478  10.717  22.291  0.00  0.00    +0.000 C 
ATOM     22  O   UNL     1      -0.059  11.838  22.568  0.00  0.00    +0.000 OA
ATOM     23  H   UNL     1      -0.757  10.125  24.237  0.00  0.00    +0.000 HD
ATOM     24  H   UNL     1      -1.199   8.924  23.039  0.00  0.00    +0.000 HD
ENDBRANCH  19  21
ENDBRANCH  18  19
ENDBRANCH  12  18
ENDBRANCH   1  15
BRANCH  10  25
ATOM     25  C   UNL     1       6.068   4.933  14.763  0.00  0.00    +0.000 A 
ATOM     26  C   UNL     1       5.427   3.952  14.009  0.00  0.00    +0.000 A 
ATOM     27  C   UNL     1       5.982   3.575  12.787  0.00  0.00    +0.000 A 
ATOM     28  C   UNL     1       7.166   4.173  12.382  0.00  0.00    +0.000 A 
ATOM     29  N   UNL     1       7.815   5.110  13.106  0.00  0.00    +0.000 NA
ATOM     30  C   UNL     1       7.261   5.466  14.282  0.00  0.00    +0.000 A 
ENDBRANCH  10  25
TORSDOF 5
ENDMDL
MODEL 3
REMARK VINA RESULT:      -8.0      0.466      1.036
REMARK  Name = 
REMARK  5 active torsions:
REMARK  status: ('A' for Active; 'I' for Inactive)
REMARK    1  A    between atoms: C_2  and  C_4
REMARK    2  A    between atoms: C_4  and  O_5
REMARK    3  A    between atoms: O_5  and  C_6
REMARK    4  A    between atoms: C_9  and  C_10
REMARK    5  A    between atoms: N_19  and  C_20
REMARK                            x       y       z     vdW  Elec       q    Type
REMARK                         _______ _______ _______ _____ _____    ______ ____
ROOT
ATOM      1  C   UNL     1       3.170   5.714  18.783  0.00  0.00    +0.000 C 
ATOM      2  C   UNL     1       2.218   4.561  18.446  0.00  0.00    +0.000 C 
ATOM      3  C   UNL     1       2.894   3.451  17.693  0.00  0.00    +0.000 C 
ATOM      4  O   UNL     1       2.603   2.271  17.774  0.00  0.00    +0.000 OA
ATOM      5  N   UNL     1       3.867   3.791  16.697  0.00  0.00    +0.000 N 
ATOM      6  C   UNL     1       4.438   5.046  16.711  0.00  0.00    +0.000 A 
ATOM      7  C   UNL     1       4.160   5.958  17.696  0.00  0.00    +0.000 A 
ATOM      8  N   UNL     1       5.083   6.970  17.671  0.00  0.00    +0.000 NA
ATOM      9  C   UNL     1       5.859   6.710  16.637  0.00  0.00    +0.000 A 
ATOM     10  N   UNL     1       5.462   5.578  15.957  0.00  0.00    +0.000 N 
ATOM     11  H   UNL     1       4.216   3.039  16.111  0.00  0.00    +0.000 HD
ENDROOT
BRANCH   1  15
ATOM     12  C   UNL     1       1.118   9.481  19.411  0.00  0.00    +0.000 A 
ATOM     13  C   UNL     1       1.572   9.115  18.145  0.00  0.00    +0.000 A 
ATOM     14  C   UNL     1       2.194   7.879  17.950  0.00  0.00    +0.000 A 
ATOM     15  C   UNL     1       2.393   6.995  19.020  0.00  0.00    +0.000 A 
ATOM     16  C   UNL     1       1.940   7.381  20.294  0.00  0.00    +0.000 A 
ATOM     17  C   UNL     1       1.320   8.618  20.487  0.00  0.00    +0.000 A 
BRANCH  12  18
ATOM     18  O   UNL     1       0.482  10.654  19.709  0.00  0.00    +0.000 OA
BRANCH  18  19
ATOM     19  C   UNL     1       0.717  11.720  18.788  0.00  0.00    +0.000 C 
BRANCH  19  21
ATOM     20  N   UNL     1      -1.186  12.585  17.504  0.00  0.00    +0.000 N 
ATOM     21  C   UNL     1      -0.493  12.640  18.677  0.00  0.00    +0.000 C 
ATOM     22  O   UNL     1      -0.840  13.395  19.581  0.00  0.00    +0.000 OA
ATOM     23  H   UNL     1      -1.977  13.199  17.374  0.00  0.00    +0.000 HD
ATOM     24  H   UNL     1      -0.875  11.987  16.748  0.00  0.00    +0.000 HD
ENDBRANCH  19  21
ENDBRANCH  18  19
ENDBRANCH  12  18
ENDBRANCH   1  15
BRANCH  10  25
ATOM     25  C   UNL     1       6.009   5.047  14.773  0.00  0.00    +0.000 A 
ATOM     26  C   UNL     1       5.349   4.062  14.041  0.00  0.00    +0.000 A 
ATOM     27  C   UNL     1       5.930   3.599  12.862  0.00  0.00    +0.000 A 
ATOM     28  C   UNL     1       7.157   4.119  12.477  0.00  0.00    +0.000 A 
ATOM     29  N   UNL     1       7.824   5.059  13.182  0.00  0.00    +0.000 NA
ATOM     30  C   UNL     1       7.244   5.498  14.317  0.00  0.00    +0.000 A 
ENDBRANCH  10  25
TORSDOF 5
ENDMDL
MODEL 4
REMARK VINA RESULT:      -8.0      1.404      1.892
REMARK  Name = 
REMARK  5 active torsions:
REMARK  status: ('A' for Active; 'I' for Inactive)
REMARK    1  A    between atoms: C_2  and  C_4
REMARK    2  A    between atoms: C_4  and  O_5
REMARK    3  A    between atoms: O_5  and  C_6
REMARK    4  A    between atoms: C_9  and  C_10
REMARK    5  A    between atoms: N_19  and  C_20
REMARK                            x       y       z     vdW  Elec       q    Type
REMARK                         _______ _______ _______ _____ _____    ______ ____
ROOT
ATOM      1  C   UNL     1       3.181   5.432  18.790  0.00  0.00    +0.000 C 
ATOM      2  C   UNL     1       2.186   4.351  18.356  0.00  0.00    +0.000 C 
ATOM      3  C   UNL     1       2.822   3.274  17.524  0.00  0.00    +0.000 C 
ATOM      4  O   UNL     1       2.480   2.105  17.511  0.00  0.00    +0.000 OA
ATOM      5  N   UNL     1       3.820   3.647  16.566  0.00  0.00    +0.000 N 
ATOM      6  C   UNL     1       4.444   4.872  16.682  0.00  0.00    +0.000 A 
ATOM      7  C   UNL     1       4.193   5.716  17.733  0.00  0.00    +0.000 A 
ATOM      8  N   UNL     1       5.159   6.686  17.795  0.00  0.00    +0.000 NA
ATOM      9  C   UNL     1       5.935   6.473  16.750  0.00  0.00    +0.000 A 
ATOM     10  N   UNL     1       5.499   5.415  15.981  0.00  0.00    +0.000 N 
ATOM     11  H   UNL     1       4.144   2.929  15.927  0.00  0.00    +0.000 HD
ENDROOT
BRANCH   1  15
ATOM     12  C   UNL     1       1.284   9.225  19.690  0.00  0.00    +0.000 A 
ATOM     13  C   UNL     1       1.730   8.935  18.402  0.00  0.00    +0.000 A 
ATOM     14  C   UNL     1       2.302   7.692  18.117  0.00  0.00    +0.000 A 
ATOM     15  C   UNL     1       2.457   6.723  19.118  0.00  0.00    +0.000 A 
ATOM     16  C   UNL     1       2.012   7.033  20.417  0.00  0.00    +0.000 A 
ATOM     17  C   UNL     1       1.444   8.277  20.699  0.00  0.00    +0.000 A 
BRANCH  12  18
ATOM     18  O   UNL     1       0.696  10.399  20.072  0.00  0.00    +0.000 OA
BRANCH  18  19
ATOM     19  C   UNL     1      -0.491  10.254  20.853  0.00  0.00    +0.000 C 
BRANCH  19  21
ATOM     20  N   UNL     1      -0.620  12.341  22.135  0.00  0.00    +0.000 N 
ATOM     21  C   UNL     1      -0.383  10.999  22.178  0.00  0.00    +0.000 C 
ATOM     22  O   UNL     1      -0.102  10.439  23.235  0.00  0.00    +0.000 OA
ATOM     23  H   UNL     1      -0.531  12.880  22.985  0.00  0.00    +0.000 HD
ATOM     24  H   UNL     1      -0.817  12.803  21.256  0.00  0.00    +0.000 HD
ENDBRANCH  19  21
ENDBRANCH  18  19
ENDBRANCH  12  18
ENDBRANCH   1  15
BRANCH  10  25
ATOM     25  C   UNL     1       6.036   4.954  14.764  0.00  0.00    +0.000 A 
ATOM     26  C   UNL     1       5.395   3.975  14.007  0.00  0.00    +0.000 A 
ATOM     27  C   UNL     1       5.965   3.584  12.796  0.00  0.00    +0.000 A 
ATOM     28  C   UNL     1       7.162   4.164  12.406  0.00  0.00    +0.000 A 
ATOM     29  N   UNL     1       7.811   5.099  13.134  0.00  0.00    +0.000 NA
ATOM     30  C   UNL     1       7.243   5.470  14.299  0.00  0.00    +0.000 A 
ENDBRANCH  10  25
TORSDOF 5
ENDMDL
MODEL 5
REMARK VINA RESULT:      -7.9      4.007      5.859
REMARK  Name = 
REMARK  5 active torsions:
REMARK  status: ('A' for Active; 'I' for Inactive)
REMARK    1  A    between atoms: C_2  and  C_4
REMARK    2  A    between atoms: C_4  and  O_5
REMARK    3  A    between atoms: O_5  and  C_6
REMARK    4  A    between atoms: C_9  and  C_10
REMARK    5  A    between atoms: N_19  and  C_20
REMARK                            x       y       z     vdW  Elec       q    Type
REMARK                         _______ _______ _______ _____ _____    ______ ____
ROOT
ATOM      1  C   UNL     1       0.654  10.314  19.844  0.00  0.00    +0.000 C 
ATOM      2  C   UNL     1       0.253  10.089  21.306  0.00  0.00    +0.000 C 
ATOM      3  C   UNL     1       1.219   9.207  22.044  0.00  0.00    +0.000 C 
ATOM      4  O   UNL     1       1.481   9.293  23.231  0.00  0.00    +0.000 OA
ATOM      5  N   UNL     1       1.788   8.086  21.356  0.00  0.00    +0.000 N 
ATOM      6  C   UNL     1       1.757   8.053  19.978  0.00  0.00    +0.000 A 
ATOM      7  C   UNL     1       1.265   9.098  19.238  0.00  0.00    +0.000 A 
ATOM      8  N   UNL     1       1.646   8.965  17.929  0.00  0.00    +0.000 NA
ATOM      9  C   UNL     1       2.293   7.817  17.869  0.00  0.00    +0.000 A 
ATOM     10  N   UNL     1       2.325   7.169  19.086  0.00  0.00    +0.000 N 
ATOM     11  H   UNL     1       2.334   7.430  21.905  0.00  0.00    +0.000 HD
ENDROOT
BRANCH   1  15
ATOM     12  C   UNL     1      -2.918  11.378  17.630  0.00  0.00    +0.000 A 
ATOM     13  C   UNL     1      -2.567  12.060  18.793  0.00  0.00    +0.000 A 
ATOM     14  C   UNL     1      -1.391  11.734  19.473  0.00  0.00    +0.000 A 
ATOM     15  C   UNL     1      -0.553  10.707  19.015  0.00  0.00    +0.000 A 
ATOM     16  C   UNL     1      -0.925  10.019  17.845  0.00  0.00    +0.000 A 
ATOM     17  C   UNL     1      -2.103  10.345  17.169  0.00  0.00    +0.000 A 
BRANCH  12  18
ATOM     18  O   UNL     1      -4.033  11.627  16.879  0.00  0.00    +0.000 OA
BRANCH  18  19
ATOM     19  C   UNL     1      -5.275  11.377  17.538  0.00  0.00    +0.000 C 
BRANCH  19  21
ATOM     20  N   UNL     1      -5.770  13.568  18.525  0.00  0.00    +0.000 N 
ATOM     21  C   UNL     1      -6.137  12.632  17.603  0.00  0.00    +0.000 C 
ATOM     22  O   UNL     1      -7.109  12.809  16.874  0.00  0.00    +0.000 OA
ATOM     23  H   UNL     1      -6.331  14.403  18.623  0.00  0.00    +0.000 HD
ATOM     24  H   UNL     1      -4.989  13.402  19.147  0.00  0.00    +0.000 HD
ENDBRANCH  19  21
ENDBRANCH  18  19
ENDBRANCH  12  18
ENDBRANCH   1  15
BRANCH  10  25
ATOM     25  C   UNL     1       2.862   5.900  19.372  0.00  0.00    +0.000 A 
ATOM     26  C   UNL     1       2.092   4.898  19.961  0.00  0.00    +0.000 A 
ATOM     27  C   UNL     1       2.674   3.653  20.192  0.00  0.00    +0.000 A 
ATOM     28  C   UNL     1       4.006   3.468  19.852  0.00  0.00    +0.000 A 
ATOM     29  N   UNL     1       4.776   4.431  19.301  0.00  0.00    +0.000 NA
ATOM     30  C   UNL     1       4.195   5.627  19.079  0.00  0.00    +0.000 A 
ENDBRANCH  10  25
TORSDOF 5
ENDMDL
MODEL 6
REMARK VINA RESULT:      -7.9      0.728      1.031
REMARK  Name = 
REMARK  5 active torsions:
REMARK  status: ('A' for Active; 'I' for Inactive)
REMARK    1  A    between atoms: C_2  and  C_4
REMARK    2  A    between atoms: C_4  and  O_5
REMARK    3  A    between atoms: O_5  and  C_6
REMARK    4  A    between atoms: C_9  and  C_10
REMARK    5  A    between atoms: N_19  and  C_20
REMARK                            x       y       z     vdW  Elec       q    Type
REMARK                         _______ _______ _______ _____ _____    ______ ____
ROOT
ATOM      1  C   UNL     1       3.333   5.666  18.691  0.00  0.00    +0.000 C 
ATOM      2  C   UNL     1       2.339   4.539  18.388  0.00  0.00    +0.000 C 
ATOM      3  C   UNL     1       2.959   3.409  17.616  0.00  0.00    +0.000 C 
ATOM      4  O   UNL     1       2.638   2.238  17.710  0.00  0.00    +0.000 OA
ATOM      5  N   UNL     1       3.907   3.721  16.588  0.00  0.00    +0.000 N 
ATOM      6  C   UNL     1       4.512   4.960  16.579  0.00  0.00    +0.000 A 
ATOM      7  C   UNL     1       4.292   5.881  17.571  0.00  0.00    +0.000 A 
ATOM      8  N   UNL     1       5.241   6.867  17.513  0.00  0.00    +0.000 NA
ATOM      9  C   UNL     1       5.975   6.583  16.454  0.00  0.00    +0.000 A 
ATOM     10  N   UNL     1       5.525   5.461  15.791  0.00  0.00    +0.000 N 
ATOM     11  H   UNL     1       4.216   2.958  15.993  0.00  0.00    +0.000 HD
ENDROOT
BRANCH   1  15
ATOM     12  C   UNL     1       1.068   9.278  19.474  0.00  0.00    +0.000 A 
ATOM     13  C   UNL     1       1.333   8.366  20.492  0.00  0.00    +0.000 A 
ATOM     14  C   UNL     1       2.100   7.226  20.234  0.00  0.00    +0.000 A 
ATOM     15  C   UNL     1       2.600   6.968  18.950  0.00  0.00    +0.000 A 
ATOM     16  C   UNL     1       2.315   7.893  17.928  0.00  0.00    +0.000 A 
ATOM     17  C   UNL     1       1.545   9.029  18.188  0.00  0.00    +0.000 A 
BRANCH  12  18
ATOM     18  O   UNL     1       0.346  10.431  19.620  0.00  0.00    +0.000 OA
BRANCH  18  19
ATOM     19  C   UNL     1      -0.650  10.651  18.621  0.00  0.00    +0.000 C 
BRANCH  19  21
ATOM     20  N   UNL     1      -1.078  12.783  17.486  0.00  0.00    +0.000 N 
ATOM     21  C   UNL     1      -1.168  12.084  18.654  0.00  0.00    +0.000 C 
ATOM     22  O   UNL     1      -1.644  12.597  19.663  0.00  0.00    +0.000 OA
ATOM     23  H   UNL     1      -1.382  13.747  17.469  0.00  0.00    +0.000 HD
ATOM     24  H   UNL     1      -0.653  12.369  16.667  0.00  0.00    +0.000 HD
ENDBRANCH  19  21
ENDBRANCH  18  19
ENDBRANCH  12  18
ENDBRANCH   1  15
BRANCH  10  25
ATOM     25  C   UNL     1       6.018   4.914  14.591  0.00  0.00    +0.000 A 
ATOM     26  C   UNL     1       7.267   5.269  14.086  0.00  0.00    +0.000 A 
ATOM     27  C   UNL     1       7.710   4.669  12.908  0.00  0.00    +0.000 A 
ATOM     28  C   UNL     1       6.877   3.762  12.270  0.00  0.00    +0.000 A 
ATOM     29  N   UNL     1       5.654   3.420  12.731  0.00  0.00    +0.000 NA
ATOM     30  C   UNL     1       5.245   4.006  13.873  0.00  0.00    +0.000 A 
ENDBRANCH  10  25
TORSDOF 5
ENDMDL
MODEL 7
REMARK VINA RESULT:      -7.9      4.144      5.849
REMARK  Name = 
REMARK  5 active torsions:
REMARK  status: ('A' for Active; 'I' for Inactive)
REMARK    1  A    between atoms: C_2  and  C_4
REMARK    2  A    between atoms: C_4  and  O_5
REMARK    3  A    between atoms: O_5  and  C_6
REMARK    4  A    between atoms: C_9  and  C_10
REMARK    5  A    between atoms: N_19  and  C_20
REMARK                            x       y       z     vdW  Elec       q    Type
REMARK                         _______ _______ _______ _____ _____    ______ ____
ROOT
ATOM      1  C   UNL     1       0.981  10.055  19.599  0.00  0.00    +0.000 C 
ATOM      2  C   UNL     1       0.417   9.968  21.021  0.00  0.00    +0.000 C 
ATOM      3  C   UNL     1       1.237   9.085  21.918  0.00  0.00    +0.000 C 
ATOM      4  O   UNL     1       1.382   9.245  23.117  0.00  0.00    +0.000 OA
ATOM      5  N   UNL     1       1.792   7.881  21.374  0.00  0.00    +0.000 N 
ATOM      6  C   UNL     1       1.900   7.745  20.006  0.00  0.00    +0.000 A 
ATOM      7  C   UNL     1       1.562   8.760  19.147  0.00  0.00    +0.000 A 
ATOM      8  N   UNL     1       2.065   8.504  17.899  0.00  0.00    +0.000 NA
ATOM      9  C   UNL     1       2.631   7.316  17.987  0.00  0.00    +0.000 A 
ATOM     10  N   UNL     1       2.492   6.762  19.242  0.00  0.00    +0.000 N 
ATOM     11  H   UNL     1       2.231   7.236  22.022  0.00  0.00    +0.000 HD
ENDROOT
BRANCH   1  15
ATOM     12  C   UNL     1      -2.239  11.266  16.960  0.00  0.00    +0.000 A 
ATOM     13  C   UNL     1      -1.570  12.200  17.748  0.00  0.00    +0.000 A 
ATOM     14  C   UNL     1      -0.507  11.802  18.563  0.00  0.00    +0.000 A 
ATOM     15  C   UNL     1      -0.105  10.460  18.620  0.00  0.00    +0.000 A 
ATOM     16  C   UNL     1      -0.796   9.525  17.826  0.00  0.00    +0.000 A 
ATOM     17  C   UNL     1      -1.860   9.926  17.015  0.00  0.00    +0.000 A 
BRANCH  12  18
ATOM     18  O   UNL     1      -3.278  11.550  16.116  0.00  0.00    +0.000 OA
BRANCH  18  19
ATOM     19  C   UNL     1      -4.030  10.417  15.681  0.00  0.00    +0.000 C 
BRANCH  19  21
ATOM     20  N   UNL     1      -4.812   9.874  13.421  0.00  0.00    +0.000 N 
ATOM     21  C   UNL     1      -3.731  10.071  14.227  0.00  0.00    +0.000 C 
ATOM     22  O   UNL     1      -2.588   9.973  13.788  0.00  0.00    +0.000 OA
ATOM     23  H   UNL     1      -4.662   9.613  12.456  0.00  0.00    +0.000 HD
ATOM     24  H   UNL     1      -5.752   9.921  13.795  0.00  0.00    +0.000 HD
ENDBRANCH  19  21
ENDBRANCH  18  19
ENDBRANCH  12  18
ENDBRANCH   1  15
BRANCH  10  25
ATOM     25  C   UNL     1       2.905   5.486  19.672  0.00  0.00    +0.000 A 
ATOM     26  C   UNL     1       2.100   4.696  20.491  0.00  0.00    +0.000 A 
ATOM     27  C   UNL     1       2.554   3.430  20.858  0.00  0.00    +0.000 A 
ATOM     28  C   UNL     1       3.801   3.017  20.415  0.00  0.00    +0.000 A 
ATOM     29  N   UNL     1       4.606   3.774  19.638  0.00  0.00    +0.000 NA
ATOM     30  C   UNL     1       4.149   4.993  19.289  0.00  0.00    +0.000 A 
ENDBRANCH  10  25
TORSDOF 5
ENDMDL
MODEL 8
REMARK VINA RESULT:      -7.8      3.529     10.341
REMARK  Name = 
REMARK  5 active torsions:
REMARK  status: ('A' for Active; 'I' for Inactive)
REMARK    1  A    between atoms: C_2  and  C_4
REMARK    2  A    between atoms: C_4  and  O_5
REMARK    3  A    between atoms: O_5  and  C_6
REMARK    4  A    between atoms: C_9  and  C_10
REMARK    5  A    between atoms: N_19  and  C_20
REMARK                            x       y       z     vdW  Elec       q    Type
REMARK                         _______ _______ _______ _____ _____    ______ ____
ROOT
ATOM      1  C   UNL     1       0.190  10.660  18.631  0.00  0.00    +0.000 C 
ATOM      2  C   UNL     1      -1.067  10.230  17.868  0.00  0.00    +0.000 C 
ATOM      3  C   UNL     1      -2.212  11.185  18.049  0.00  0.00    +0.000 C 
ATOM      4  O   UNL     1      -3.066  11.421  17.213  0.00  0.00    +0.000 OA
ATOM      5  N   UNL     1      -2.417  11.774  19.339  0.00  0.00    +0.000 N 
ATOM      6  C   UNL     1      -1.385  11.772  20.253  0.00  0.00    +0.000 A 
ATOM      7  C   UNL     1      -0.139  11.291  19.941  0.00  0.00    +0.000 A 
ATOM      8  N   UNL     1       0.770  11.700  20.880  0.00  0.00    +0.000 NA
ATOM      9  C   UNL     1       0.068  12.354  21.784  0.00  0.00    +0.000 A 
ATOM     10  N   UNL     1      -1.280  12.364  21.494  0.00  0.00    +0.000 N 
ATOM     11  H   UNL     1      -3.266  12.312  19.476  0.00  0.00    +0.000 HD
ENDROOT
BRANCH   1  15
ATOM     12  C   UNL     1       2.658   7.146  19.228  0.00  0.00    +0.000 A 
ATOM     13  C   UNL     1       2.636   7.805  18.000  0.00  0.00    +0.000 A 
ATOM     14  C   UNL     1       1.868   8.961  17.835  0.00  0.00    +0.000 A 
ATOM     15  C   UNL     1       1.092   9.468  18.887  0.00  0.00    +0.000 A 
ATOM     16  C   UNL     1       1.115   8.786  20.118  0.00  0.00    +0.000 A 
ATOM     17  C   UNL     1       1.882   7.630  20.279  0.00  0.00    +0.000 A 
BRANCH  12  18
ATOM     18  O   UNL     1       3.386   6.021  19.502  0.00  0.00    +0.000 OA
BRANCH  18  19
ATOM     19  C   UNL     1       4.420   5.726  18.563  0.00  0.00    +0.000 C 
BRANCH  19  21
ATOM     20  N   UNL     1       5.278   3.483  19.061  0.00  0.00    +0.000 N 
ATOM     21  C   UNL     1       5.489   4.826  19.172  0.00  0.00    +0.000 C 
ATOM     22  O   UNL     1       6.489   5.265  19.733  0.00  0.00    +0.000 OA
ATOM     23  H   UNL     1       5.946   2.848  19.476  0.00  0.00    +0.000 HD
ATOM     24  H   UNL     1       4.436   3.125  18.629  0.00  0.00    +0.000 HD
ENDBRANCH  19  21
ENDBRANCH  18  19
ENDBRANCH  12  18
ENDBRANCH   1  15
BRANCH  10  25
ATOM     25  C   UNL     1      -2.325  12.902  22.269  0.00  0.00    +0.000 A 
ATOM     26  C   UNL     1      -2.680  14.247  22.184  0.00  0.00    +0.000 A 
ATOM     27  C   UNL     1      -3.743  14.710  22.957  0.00  0.00    +0.000 A 
ATOM     28  C   UNL     1      -4.389  13.820  23.802  0.00  0.00    +0.000 A 
ATOM     29  N   UNL     1      -4.048  12.518  23.916  0.00  0.00    +0.000 NA
ATOM     30  C   UNL     1      -3.021  12.086  23.157  0.00  0.00    +0.000 A 
ENDBRANCH  10  25
TORSDOF 5
ENDMDL
MODEL 9
REMARK VINA RESULT:      -7.8      0.637      1.349
REMARK  Name = 
REMARK  5 active torsions:
REMARK  status: ('A' for Active; 'I' for Inactive)
REMARK    1  A    between atoms: C_2  and  C_4
REMARK    2  A    between atoms: C_4  and  O_5
REMARK    3  A    between atoms: O_5  and  C_6
REMARK    4  A    between atoms: C_9  and  C_10
REMARK    5  A    between atoms: N_19  and  C_20
REMARK                            x       y       z     vdW  Elec       q    Type
REMARK                         _______ _______ _______ _____ _____    ______ ____
ROOT
ATOM      1  C   UNL     1       3.194   5.550  18.753  0.00  0.00    +0.000 C 
ATOM      2  C   UNL     1       2.221   4.430  18.369  0.00  0.00    +0.000 C 
ATOM      3  C   UNL     1       2.878   3.336  17.576  0.00  0.00    +0.000 C 
ATOM      4  O   UNL     1       2.563   2.160  17.610  0.00  0.00    +0.000 OA
ATOM      5  N   UNL     1       3.860   3.695  16.596  0.00  0.00    +0.000 N 
ATOM      6  C   UNL     1       4.456   4.937  16.660  0.00  0.00    +0.000 A 
ATOM      7  C   UNL     1       4.193   5.816  17.679  0.00  0.00    +0.000 A 
ATOM      8  N   UNL     1       5.135   6.810  17.696  0.00  0.00    +0.000 NA
ATOM      9  C   UNL     1       5.909   6.574  16.654  0.00  0.00    +0.000 A 
ATOM     10  N   UNL     1       5.493   5.477  15.930  0.00  0.00    +0.000 N 
ATOM     11  H   UNL     1       4.197   2.959  15.983  0.00  0.00    +0.000 HD
ENDROOT
BRANCH   1  15
ATOM     12  C   UNL     1       1.214   9.330  19.517  0.00  0.00    +0.000 A 
ATOM     13  C   UNL     1       1.650   8.996  18.237  0.00  0.00    +0.000 A 
ATOM     14  C   UNL     1       2.249   7.756  17.997  0.00  0.00    +0.000 A 
ATOM     15  C   UNL     1       2.442   6.835  19.037  0.00  0.00    +0.000 A 
ATOM     16  C   UNL     1       2.007   7.190  20.327  0.00  0.00    +0.000 A 
ATOM     17  C   UNL     1       1.411   8.431  20.564  0.00  0.00    +0.000 A 
BRANCH  12  18
ATOM     18  O   UNL     1       0.601  10.504  19.858  0.00  0.00    +0.000 OA
BRANCH  18  19
ATOM     19  C   UNL     1      -0.529  10.850  19.058  0.00  0.00    +0.000 C 
BRANCH  19  21
ATOM     20  N   UNL     1      -1.292  12.577  17.492  0.00  0.00    +0.000 N 
ATOM     21  C   UNL     1      -0.379  12.238  18.445  0.00  0.00    +0.000 C 
ATOM     22  O   UNL     1       0.508  13.019  18.779  0.00  0.00    +0.000 OA
ATOM     23  H   UNL     1      -1.213  13.476  17.037  0.00  0.00    +0.000 HD
ATOM     24  H   UNL     1      -1.999  11.916  17.194  0.00  0.00    +0.000 HD
ENDBRANCH  19  21
ENDBRANCH  18  19
ENDBRANCH  12  18
ENDBRANCH   1  15
BRANCH  10  25
ATOM     25  C   UNL     1       6.034   4.981  14.728  0.00  0.00    +0.000 A 
ATOM     26  C   UNL     1       7.274   5.407  14.256  0.00  0.00    +0.000 A 
ATOM     27  C   UNL     1       7.766   4.856  13.074  0.00  0.00    +0.000 A 
ATOM     28  C   UNL     1       6.990   3.926  12.399  0.00  0.00    +0.000 A 
ATOM     29  N   UNL     1       5.777   3.515  12.828  0.00  0.00    +0.000 NA
ATOM     30  C   UNL     1       5.319   4.054  13.976  0.00  0.00    +0.000 A 
ENDBRANCH  10  25
TORSDOF 5
ENDMDL
