MODEL 1
REMARK VINA RESULT:      -7.7      0.000      0.000
REMARK  Name = 
REMARK  0 active torsions:
REMARK  status: ('A' for Active; 'I' for Inactive)
REMARK                            x       y       z     vdW  Elec       q    Type
REMARK                         _______ _______ _______ _____ _____    ______ ____
ROOT
ATOM      1  O   UNL     1      -2.746  10.890  17.958  0.00  0.00    +0.000 OA
ATOM      2  C   UNL     1      -2.602  11.844  18.712  0.00  0.00    +0.000 C 
ATOM      3  C   UNL     1      -1.319  12.626  18.731  0.00  0.00    +0.000 C 
ATOM      4  C   UNL     1      -0.088  11.707  18.877  0.00  0.00    +0.000 C 
ATOM      5  C   UNL     1       1.096  12.658  19.063  0.00  0.00    +0.000 A 
ATOM      6  C   UNL     1       2.222  12.705  18.253  0.00  0.00    +0.000 A 
ATOM      7  C   UNL     1       3.256  13.573  18.605  0.00  0.00    +0.000 A 
ATOM      8  C   UNL     1       3.160  14.377  19.751  0.00  0.00    +0.000 A 
ATOM      9  C   UNL     1       2.020  14.345  20.562  0.00  0.00    +0.000 A 
ATOM     10  C   UNL     1       0.983  13.492  20.211  0.00  0.00    +0.000 A 
ATOM     11  C   UNL     1      -0.325  13.280  20.989  0.00  0.00    +0.000 C 
ATOM     12  C   UNL     1      -0.379  11.791  21.331  0.00  0.00    +0.000 A 
ATOM     13  C   UNL     1      -0.504  11.247  22.601  0.00  0.00    +0.000 A 
ATOM     14  C   UNL     1      -0.537   9.856  22.730  0.00  0.00    +0.000 A 
ATOM     15  C   UNL     1      -0.444   9.026  21.602  0.00  0.00    +0.000 A 
ATOM     16  C   UNL     1      -0.297   9.569  20.326  0.00  0.00    +0.000 A 
ATOM     17  C   UNL     1      -0.255  10.948  20.196  0.00  0.00    +0.000 A 
ATOM     18  C   UNL     1      -1.447  13.565  19.948  0.00  0.00    +0.000 C 
ATOM     19  C   UNL     1      -2.851  13.326  20.442  0.00  0.00    +0.000 C 
ATOM     20  O   UNL     1      -3.321  13.984  21.363  0.00  0.00    +0.000 OA
ATOM     21  N   UNL     1      -3.457  12.369  19.659  0.00  0.00    +0.000 N 
ATOM     22  C   UNL     1      -4.810  11.944  19.767  0.00  0.00    +0.000 A 
ATOM     23  C   UNL     1      -5.614  12.278  20.858  0.00  0.00    +0.000 A 
ATOM     24  C   UNL     1      -6.950  11.862  20.897  0.00  0.00    +0.000 A 
ATOM     25  C   UNL     1      -7.467  11.125  19.844  0.00  0.00    +0.000 A 
ATOM     26  C   UNL     1      -6.623  10.826  18.798  0.00  0.00    +0.000 A 
ATOM     27  N   UNL     1      -5.331  11.221  18.748  0.00  0.00    +0.000 NA
ENDROOT
TORSDOF 0
ENDMDL
MODEL 2
REMARK VINA RESULT:      -7.7      2.652      6.408
REMARK  Name = 
REMARK  0 active torsions:
REMARK  status: ('A' for Active; 'I' for Inactive)
REMARK                            x       y       z     vdW  Elec       q    Type
REMARK                         _______ _______ _______ _____ _____    ______ ____
ROOT
ATOM      1  O   UNL     1      -0.520  14.584  21.448  0.00  0.00    +0.000 OA
ATOM      2  C   UNL     1       0.038  14.001  20.527  0.00  0.00    +0.000 C 
ATOM      3  C   UNL     1      -0.758  13.286  19.472  0.00  0.00    +0.000 C 
ATOM      4  C   UNL     1      -1.799  12.328  20.089  0.00  0.00    +0.000 C 
ATOM      5  C   UNL     1      -2.381  11.559  18.901  0.00  0.00    +0.000 A 
ATOM      6  C   UNL     1      -3.725  11.515  18.554  0.00  0.00    +0.000 A 
ATOM      7  C   UNL     1      -4.109  10.699  17.490  0.00  0.00    +0.000 A 
ATOM      8  C   UNL     1      -3.160   9.938  16.789  0.00  0.00    +0.000 A 
ATOM      9  C   UNL     1      -1.803   9.991  17.125  0.00  0.00    +0.000 A 
ATOM     10  C   UNL     1      -1.412  10.810  18.175  0.00  0.00    +0.000 A 
ATOM     11  C   UNL     1       0.015  10.972  18.722  0.00  0.00    +0.000 C 
ATOM     12  C   UNL     1      -0.050  10.582  20.199  0.00  0.00    +0.000 A 
ATOM     13  C   UNL     1       0.710   9.603  20.821  0.00  0.00    +0.000 A 
ATOM     14  C   UNL     1       0.519   9.378  22.186  0.00  0.00    +0.000 A 
ATOM     15  C   UNL     1      -0.422  10.123  22.914  0.00  0.00    +0.000 A 
ATOM     16  C   UNL     1      -1.203  11.094  22.288  0.00  0.00    +0.000 A 
ATOM     17  C   UNL     1      -1.022  11.313  20.931  0.00  0.00    +0.000 A 
ATOM     18  C   UNL     1       0.287  12.503  18.651  0.00  0.00    +0.000 C 
ATOM     19  C   UNL     1       1.606  12.944  19.231  0.00  0.00    +0.000 C 
ATOM     20  O   UNL     1       2.668  12.574  18.747  0.00  0.00    +0.000 OA
ATOM     21  N   UNL     1       1.381  13.831  20.262  0.00  0.00    +0.000 N 
ATOM     22  C   UNL     1       2.384  14.525  20.992  0.00  0.00    +0.000 A 
ATOM     23  C   UNL     1       3.737  14.190  20.909  0.00  0.00    +0.000 A 
ATOM     24  C   UNL     1       4.687  14.930  21.622  0.00  0.00    +0.000 A 
ATOM     25  C   UNL     1       4.275  15.996  22.404  0.00  0.00    +0.000 A 
ATOM     26  C   UNL     1       2.928  16.275  22.447  0.00  0.00    +0.000 A 
ATOM     27  N   UNL     1       1.999  15.569  21.762  0.00  0.00    +0.000 NA
ENDROOT
TORSDOF 0
ENDMDL
MODEL 3
REMARK VINA RESULT:      -7.3      2.431      6.647
REMARK  Name = 
REMARK  0 active torsions:
REMARK  status: ('A' for Active; 'I' for Inactive)
REMARK                            x       y       z     vdW  Elec       q    Type
REMARK                         _______ _______ _______ _____ _____    ______ ____
ROOT
ATOM      1  O   UNL     1      -0.083  14.543  23.091  0.00  0.00    +0.000 OA
ATOM      2  C   UNL     1      -0.044  14.294  21.893  0.00  0.00    +0.000 C 
ATOM      3  C   UNL     1      -1.303  14.023  21.120  0.00  0.00    +0.000 C 
ATOM      4  C   UNL     1      -2.180  12.953  21.806  0.00  0.00    +0.000 C 
ATOM      5  C   UNL     1      -3.307  12.669  20.813  0.00  0.00    +0.000 A 
ATOM      6  C   UNL     1      -4.663  12.804  21.077  0.00  0.00    +0.000 A 
ATOM      7  C   UNL     1      -5.573  12.424  20.090  0.00  0.00    +0.000 A 
ATOM      8  C   UNL     1      -5.128  11.915  18.861  0.00  0.00    +0.000 A 
ATOM      9  C   UNL     1      -3.762  11.791  18.583  0.00  0.00    +0.000 A 
ATOM     10  C   UNL     1      -2.851  12.179  19.555  0.00  0.00    +0.000 A 
ATOM     11  C   UNL     1      -1.320  12.082  19.462  0.00  0.00    +0.000 C 
ATOM     12  C   UNL     1      -0.878  11.207  20.635  0.00  0.00    +0.000 A 
ATOM     13  C   UNL     1      -0.129  10.042  20.550  0.00  0.00    +0.000 A 
ATOM     14  C   UNL     1       0.187   9.366  21.731  0.00  0.00    +0.000 A 
ATOM     15  C   UNL     1      -0.244   9.851  22.976  0.00  0.00    +0.000 A 
ATOM     16  C   UNL     1      -1.014  11.010  23.063  0.00  0.00    +0.000 A 
ATOM     17  C   UNL     1      -1.337  11.678  21.892  0.00  0.00    +0.000 A 
ATOM     18  C   UNL     1      -0.821  13.530  19.740  0.00  0.00    +0.000 C 
ATOM     19  C   UNL     1       0.676  13.687  19.803  0.00  0.00    +0.000 C 
ATOM     20  O   UNL     1       1.380  13.464  18.825  0.00  0.00    +0.000 OA
ATOM     21  N   UNL     1       1.036  14.170  21.042  0.00  0.00    +0.000 N 
ATOM     22  C   UNL     1       2.352  14.526  21.443  0.00  0.00    +0.000 A 
ATOM     23  C   UNL     1       3.481  14.185  20.695  0.00  0.00    +0.000 A 
ATOM     24  C   UNL     1       4.751  14.592  21.118  0.00  0.00    +0.000 A 
ATOM     25  C   UNL     1       4.878  15.337  22.279  0.00  0.00    +0.000 A 
ATOM     26  C   UNL     1       3.729  15.640  22.974  0.00  0.00    +0.000 A 
ATOM     27  N   UNL     1       2.495  15.254  22.576  0.00  0.00    +0.000 NA
ENDROOT
TORSDOF 0
ENDMDL
MODEL 4
REMARK VINA RESULT:      -7.2      3.265      5.466
REMARK  Name = 
REMARK  0 active torsions:
REMARK  status: ('A' for Active; 'I' for Inactive)
REMARK                            x       y       z     vdW  Elec       q    Type
REMARK                         _______ _______ _______ _____ _____    ______ ____
ROOT
ATOM      1  O   UNL     1       2.368  12.933  20.218  0.00  0.00    +0.000 OA
ATOM      2  C   UNL     1       1.206  13.277  20.041  0.00  0.00    +0.000 C 
ATOM      3  C   UNL     1       0.863  14.356  19.053  0.00  0.00    +0.000 C 
ATOM      4  C   UNL     1       1.714  15.625  19.270  0.00  0.00    +0.000 C 
ATOM      5  C   UNL     1       1.118  16.667  18.321  0.00  0.00    +0.000 A 
ATOM      6  C   UNL     1       1.815  17.336  17.324  0.00  0.00    +0.000 A 
ATOM      7  C   UNL     1       1.149  18.320  16.595  0.00  0.00    +0.000 A 
ATOM      8  C   UNL     1      -0.193  18.631  16.865  0.00  0.00    +0.000 A 
ATOM      9  C   UNL     1      -0.904  17.949  17.858  0.00  0.00    +0.000 A 
ATOM     10  C   UNL     1      -0.251  16.959  18.579  0.00  0.00    +0.000 A 
ATOM     11  C   UNL     1      -0.840  16.131  19.732  0.00  0.00    +0.000 C 
ATOM     12  C   UNL     1       0.058  16.388  20.942  0.00  0.00    +0.000 A 
ATOM     13  C   UNL     1      -0.350  16.869  22.177  0.00  0.00    +0.000 A 
ATOM     14  C   UNL     1       0.612  17.044  23.175  0.00  0.00    +0.000 A 
ATOM     15  C   UNL     1       1.962  16.742  22.935  0.00  0.00    +0.000 A 
ATOM     16  C   UNL     1       2.379  16.278  21.687  0.00  0.00    +0.000 A 
ATOM     17  C   UNL     1       1.428  16.112  20.693  0.00  0.00    +0.000 A 
ATOM     18  C   UNL     1      -0.632  14.652  19.295  0.00  0.00    +0.000 C 
ATOM     19  C   UNL     1      -1.043  13.622  20.315  0.00  0.00    +0.000 C 
ATOM     20  O   UNL     1      -2.209  13.515  20.676  0.00  0.00    +0.000 OA
ATOM     21  N   UNL     1       0.046  12.849  20.654  0.00  0.00    +0.000 N 
ATOM     22  C   UNL     1       0.026  11.723  21.520  0.00  0.00    +0.000 A 
ATOM     23  C   UNL     1      -1.069  11.422  22.332  0.00  0.00    +0.000 A 
ATOM     24  C   UNL     1      -1.049  10.280  23.141  0.00  0.00    +0.000 A 
ATOM     25  C   UNL     1       0.060   9.451  23.125  0.00  0.00    +0.000 A 
ATOM     26  C   UNL     1       1.110   9.802  22.305  0.00  0.00    +0.000 A 
ATOM     27  N   UNL     1       1.103  10.902  21.518  0.00  0.00    +0.000 NA
ENDROOT
TORSDOF 0
ENDMDL
MODEL 5
REMARK VINA RESULT:      -7.1      2.872      5.435
REMARK  Name = 
REMARK  0 active torsions:
REMARK  status: ('A' for Active; 'I' for Inactive)
REMARK                            x       y       z     vdW  Elec       q    Type
REMARK                         _______ _______ _______ _____ _____    ______ ____
ROOT
ATOM      1  O   UNL     1       1.486  13.991  18.392  0.00  0.00    +0.000 OA
ATOM      2  C   UNL     1       0.767  14.148  19.371  0.00  0.00    +0.000 C 
ATOM      3  C   UNL     1       0.757  13.145  20.490  0.00  0.00    +0.000 C 
ATOM      4  C   UNL     1       0.555  11.706  19.969  0.00  0.00    +0.000 C 
ATOM      5  C   UNL     1       0.386  10.851  21.226  0.00  0.00    +0.000 A 
ATOM      6  C   UNL     1       1.178   9.764  21.571  0.00  0.00    +0.000 A 
ATOM      7  C   UNL     1       0.843   9.034  22.711  0.00  0.00    +0.000 A 
ATOM      8  C   UNL     1      -0.270   9.387  23.489  0.00  0.00    +0.000 A 
ATOM      9  C   UNL     1      -1.062  10.491  23.156  0.00  0.00    +0.000 A 
ATOM     10  C   UNL     1      -0.727  11.230  22.030  0.00  0.00    +0.000 A 
ATOM     11  C   UNL     1      -1.491  12.442  21.474  0.00  0.00    +0.000 C 
ATOM     12  C   UNL     1      -1.889  12.075  20.045  0.00  0.00    +0.000 A 
ATOM     13  C   UNL     1      -3.177  12.073  19.529  0.00  0.00    +0.000 A 
ATOM     14  C   UNL     1      -3.358  11.708  18.193  0.00  0.00    +0.000 A 
ATOM     15  C   UNL     1      -2.265  11.349  17.389  0.00  0.00    +0.000 A 
ATOM     16  C   UNL     1      -0.971  11.331  17.910  0.00  0.00    +0.000 A 
ATOM     17  C   UNL     1      -0.789  11.684  19.238  0.00  0.00    +0.000 A 
ATOM     18  C   UNL     1      -0.422  13.570  21.390  0.00  0.00    +0.000 C 
ATOM     19  C   UNL     1      -0.901  14.859  20.773  0.00  0.00    +0.000 C 
ATOM     20  O   UNL     1      -1.787  15.523  21.297  0.00  0.00    +0.000 OA
ATOM     21  N   UNL     1      -0.145  15.143  19.657  0.00  0.00    +0.000 N 
ATOM     22  C   UNL     1      -0.247  16.319  18.864  0.00  0.00    +0.000 A 
ATOM     23  C   UNL     1      -1.311  17.214  18.986  0.00  0.00    +0.000 A 
ATOM     24  C   UNL     1      -1.343  18.375  18.205  0.00  0.00    +0.000 A 
ATOM     25  C   UNL     1      -0.311  18.629  17.317  0.00  0.00    +0.000 A 
ATOM     26  C   UNL     1       0.709  17.708  17.240  0.00  0.00    +0.000 A 
ATOM     27  N   UNL     1       0.753  16.582  17.990  0.00  0.00    +0.000 NA
ENDROOT
TORSDOF 0
ENDMDL
MODEL 6
REMARK VINA RESULT:      -7.0      2.940      6.653
REMARK  Name = 
REMARK  0 active torsions:
REMARK  status: ('A' for Active; 'I' for Inactive)
REMARK                            x       y       z     vdW  Elec       q    Type
REMARK                         _______ _______ _______ _____ _____    ______ ____
ROOT
ATOM      1  O   UNL     1       2.188  13.156  21.554  0.00  0.00    +0.000 OA
ATOM      2  C   UNL     1       1.280  13.829  21.083  0.00  0.00    +0.000 C 
ATOM      3  C   UNL     1      -0.075  13.858  21.731  0.00  0.00    +0.000 C 
ATOM      4  C   UNL     1      -0.616  12.437  21.993  0.00  0.00    +0.000 C 
ATOM      5  C   UNL     1      -2.054  12.644  22.474  0.00  0.00    +0.000 A 
ATOM      6  C   UNL     1      -2.566  12.201  23.686  0.00  0.00    +0.000 A 
ATOM      7  C   UNL     1      -3.923  12.396  23.943  0.00  0.00    +0.000 A 
ATOM      8  C   UNL     1      -4.751  13.021  22.998  0.00  0.00    +0.000 A 
ATOM      9  C   UNL     1      -4.236  13.484  21.782  0.00  0.00    +0.000 A 
ATOM     10  C   UNL     1      -2.884  13.305  21.525  0.00  0.00    +0.000 A 
ATOM     11  C   UNL     1      -2.140  13.699  20.240  0.00  0.00    +0.000 C 
ATOM     12  C   UNL     1      -1.524  12.412  19.693  0.00  0.00    +0.000 A 
ATOM     13  C   UNL     1      -1.726  11.881  18.427  0.00  0.00    +0.000 A 
ATOM     14  C   UNL     1      -1.079  10.689  18.094  0.00  0.00    +0.000 A 
ATOM     15  C   UNL     1      -0.244  10.039  19.018  0.00  0.00    +0.000 A 
ATOM     16  C   UNL     1      -0.056  10.559  20.298  0.00  0.00    +0.000 A 
ATOM     17  C   UNL     1      -0.704  11.738  20.634  0.00  0.00    +0.000 A 
ATOM     18  C   UNL     1      -0.976  14.609  20.728  0.00  0.00    +0.000 C 
ATOM     19  C   UNL     1      -0.022  15.058  19.651  0.00  0.00    +0.000 C 
ATOM     20  O   UNL     1      -0.397  15.768  18.726  0.00  0.00    +0.000 OA
ATOM     21  N   UNL     1       1.249  14.615  19.949  0.00  0.00    +0.000 N 
ATOM     22  C   UNL     1       2.425  14.916  19.211  0.00  0.00    +0.000 A 
ATOM     23  C   UNL     1       2.385  15.497  17.942  0.00  0.00    +0.000 A 
ATOM     24  C   UNL     1       3.576  15.805  17.274  0.00  0.00    +0.000 A 
ATOM     25  C   UNL     1       4.790  15.534  17.883  0.00  0.00    +0.000 A 
ATOM     26  C   UNL     1       4.764  14.958  19.133  0.00  0.00    +0.000 A 
ATOM     27  N   UNL     1       3.621  14.656  19.790  0.00  0.00    +0.000 NA
ENDROOT
TORSDOF 0
ENDMDL
MODEL 7
REMARK VINA RESULT:      -6.7      2.394      6.634
REMARK  Name = 
REMARK  0 active torsions:
REMARK  status: ('A' for Active; 'I' for Inactive)
REMARK                            x       y       z     vdW  Elec       q    Type
REMARK                         _______ _______ _______ _____ _____    ______ ____
ROOT
ATOM      1  O   UNL     1       1.235  14.185  22.328  0.00  0.00    +0.000 OA
ATOM      2  C   UNL     1       0.590  14.177  21.287  0.00  0.00    +0.000 C 
ATOM      3  C   UNL     1      -0.911  14.110  21.309  0.00  0.00    +0.000 C 
ATOM      4  C   UNL     1      -1.421  12.958  22.200  0.00  0.00    +0.000 C 
ATOM      5  C   UNL     1      -2.932  12.917  21.967  0.00  0.00    +0.000 A 
ATOM      6  C   UNL     1      -3.901  13.045  22.954  0.00  0.00    +0.000 A 
ATOM      7  C   UNL     1      -5.240  12.902  22.592  0.00  0.00    +0.000 A 
ATOM      8  C   UNL     1      -5.600  12.632  21.262  0.00  0.00    +0.000 A 
ATOM      9  C   UNL     1      -4.629  12.518  20.261  0.00  0.00    +0.000 A 
ATOM     10  C   UNL     1      -3.295  12.671  20.612  0.00  0.00    +0.000 A 
ATOM     11  C   UNL     1      -2.084  12.540  19.675  0.00  0.00    +0.000 C 
ATOM     12  C   UNL     1      -1.209  11.434  20.264  0.00  0.00    +0.000 A 
ATOM     13  C   UNL     1      -0.793  10.284  19.610  0.00  0.00    +0.000 A 
ATOM     14  C   UNL     1       0.009   9.375  20.305  0.00  0.00    +0.000 A 
ATOM     15  C   UNL     1       0.386   9.618  21.635  0.00  0.00    +0.000 A 
ATOM     16  C   UNL     1      -0.047  10.763  22.302  0.00  0.00    +0.000 A 
ATOM     17  C   UNL     1      -0.851  11.662  21.618  0.00  0.00    +0.000 A 
ATOM     18  C   UNL     1      -1.318  13.885  19.839  0.00  0.00    +0.000 C 
ATOM     19  C   UNL     1      -0.016  13.973  19.086  0.00  0.00    +0.000 C 
ATOM     20  O   UNL     1       0.015  13.924  17.862  0.00  0.00    +0.000 OA
ATOM     21  N   UNL     1       1.015  14.187  19.974  0.00  0.00    +0.000 N 
ATOM     22  C   UNL     1       2.376  14.409  19.627  0.00  0.00    +0.000 A 
ATOM     23  C   UNL     1       2.866  14.183  18.340  0.00  0.00    +0.000 A 
ATOM     24  C   UNL     1       4.207  14.452  18.044  0.00  0.00    +0.000 A 
ATOM     25  C   UNL     1       5.040  14.947  19.034  0.00  0.00    +0.000 A 
ATOM     26  C   UNL     1       4.498  15.145  20.285  0.00  0.00    +0.000 A 
ATOM     27  N   UNL     1       3.204  14.891  20.584  0.00  0.00    +0.000 NA
ENDROOT
TORSDOF 0
ENDMDL
MODEL 8
REMARK VINA RESULT:      -6.6      5.146      8.200
REMARK  Name = 
REMARK  0 active torsions:
REMARK  status: ('A' for Active; 'I' for Inactive)
REMARK                            x       y       z     vdW  Elec       q    Type
REMARK                         _______ _______ _______ _____ _____    ______ ____
ROOT
ATOM      1  O   UNL     1       2.544  15.212  22.707  0.00  0.00    +0.000 OA
ATOM      2  C   UNL     1       3.293  15.495  21.781  0.00  0.00    +0.000 C 
ATOM      3  C   UNL     1       2.848  16.417  20.682  0.00  0.00    +0.000 C 
ATOM      4  C   UNL     1       1.488  15.989  20.089  0.00  0.00    +0.000 C 
ATOM      5  C   UNL     1       1.277  16.906  18.883  0.00  0.00    +0.000 A 
ATOM      6  C   UNL     1       0.190  17.750  18.697  0.00  0.00    +0.000 A 
ATOM      7  C   UNL     1       0.101  18.463  17.502  0.00  0.00    +0.000 A 
ATOM      8  C   UNL     1       1.084  18.328  16.509  0.00  0.00    +0.000 A 
ATOM      9  C   UNL     1       2.189  17.491  16.698  0.00  0.00    +0.000 A 
ATOM     10  C   UNL     1       2.291  16.788  17.890  0.00  0.00    +0.000 A 
ATOM     11  C   UNL     1       3.398  15.791  18.270  0.00  0.00    +0.000 C 
ATOM     12  C   UNL     1       2.694  14.465  18.558  0.00  0.00    +0.000 A 
ATOM     13  C   UNL     1       2.955  13.250  17.943  0.00  0.00    +0.000 A 
ATOM     14  C   UNL     1       2.212  12.133  18.333  0.00  0.00    +0.000 A 
ATOM     15  C   UNL     1       1.222  12.236  19.323  0.00  0.00    +0.000 A 
ATOM     16  C   UNL     1       0.943  13.461  19.929  0.00  0.00    +0.000 A 
ATOM     17  C   UNL     1       1.672  14.573  19.537  0.00  0.00    +0.000 A 
ATOM     18  C   UNL     1       3.960  16.329  19.617  0.00  0.00    +0.000 C 
ATOM     19  C   UNL     1       5.010  15.461  20.262  0.00  0.00    +0.000 C 
ATOM     20  O   UNL     1       6.086  15.254  19.715  0.00  0.00    +0.000 OA
ATOM     21  N   UNL     1       4.576  15.065  21.508  0.00  0.00    +0.000 N 
ATOM     22  C   UNL     1       5.331  14.310  22.447  0.00  0.00    +0.000 A 
ATOM     23  C   UNL     1       6.520  13.665  22.106  0.00  0.00    +0.000 A 
ATOM     24  C   UNL     1       7.242  12.963  23.078  0.00  0.00    +0.000 A 
ATOM     25  C   UNL     1       6.770  12.920  24.380  0.00  0.00    +0.000 A 
ATOM     26  C   UNL     1       5.589  13.575  24.654  0.00  0.00    +0.000 A 
ATOM     27  N   UNL     1       4.883  14.256  23.724  0.00  0.00    +0.000 NA
ENDROOT
TORSDOF 0
ENDMDL
MODEL 9
REMARK VINA RESULT:      -6.6      3.803      6.746
REMARK  Name = 
REMARK  0 active torsions:
REMARK  status: ('A' for Active; 'I' for Inactive)
REMARK                            x       y       z     vdW  Elec       q    Type
REMARK                         _______ _______ _______ _____ _____    ______ ____
ROOT
ATOM      1  O   UNL     1      -1.081  14.135  20.870  0.00  0.00    +0.000 OA
ATOM      2  C   UNL     1      -2.003  13.715  21.557  0.00  0.00    +0.000 C 
ATOM      3  C   UNL     1      -3.281  14.494  21.692  0.00  0.00    +0.000 C 
ATOM      4  C   UNL     1      -3.020  15.964  22.083  0.00  0.00    +0.000 C 
ATOM      5  C   UNL     1      -4.405  16.552  22.355  0.00  0.00    +0.000 A 
ATOM      6  C   UNL     1      -4.950  17.655  21.711  0.00  0.00    +0.000 A 
ATOM      7  C   UNL     1      -6.195  18.121  22.132  0.00  0.00    +0.000 A 
ATOM      8  C   UNL     1      -6.879  17.494  23.184  0.00  0.00    +0.000 A 
ATOM      9  C   UNL     1      -6.342  16.373  23.827  0.00  0.00    +0.000 A 
ATOM     10  C   UNL     1      -5.109  15.896  23.405  0.00  0.00    +0.000 A 
ATOM     11  C   UNL     1      -4.335  14.712  24.006  0.00  0.00    +0.000 C 
ATOM     12  C   UNL     1      -2.986  15.273  24.458  0.00  0.00    +0.000 A 
ATOM     13  C   UNL     1      -2.456  15.199  25.737  0.00  0.00    +0.000 A 
ATOM     14  C   UNL     1      -1.203  15.769  25.973  0.00  0.00    +0.000 A 
ATOM     15  C   UNL     1      -0.494  16.403  24.941  0.00  0.00    +0.000 A 
ATOM     16  C   UNL     1      -1.032  16.497  23.658  0.00  0.00    +0.000 A 
ATOM     17  C   UNL     1      -2.280  15.941  23.423  0.00  0.00    +0.000 A 
ATOM     18  C   UNL     1      -4.072  13.766  22.799  0.00  0.00    +0.000 C 
ATOM     19  C   UNL     1      -3.229  12.556  23.109  0.00  0.00    +0.000 C 
ATOM     20  O   UNL     1      -3.611  11.700  23.897  0.00  0.00    +0.000 OA
ATOM     21  N   UNL     1      -2.093  12.575  22.329  0.00  0.00    +0.000 N 
ATOM     22  C   UNL     1      -1.103  11.556  22.280  0.00  0.00    +0.000 A 
ATOM     23  C   UNL     1      -1.047  10.522  23.217  0.00  0.00    +0.000 A 
ATOM     24  C   UNL     1      -0.072   9.524  23.102  0.00  0.00    +0.000 A 
ATOM     25  C   UNL     1       0.829   9.568  22.051  0.00  0.00    +0.000 A 
ATOM     26  C   UNL     1       0.723  10.613  21.161  0.00  0.00    +0.000 A 
ATOM     27  N   UNL     1      -0.214  11.583  21.260  0.00  0.00    +0.000 NA
ENDROOT
TORSDOF 0
ENDMDL
