MODEL 1
REMARK VINA RESULT:      -7.2      0.000      0.000
REMARK  Name = 
REMARK  3 active torsions:
REMARK  status: ('A' for Active; 'I' for Inactive)
REMARK    1  A    between atoms: C_1  and  C_2
REMARK    2  A    between atoms: C_13  and  C_14
REMARK    3  A    between atoms: C_14  and  N_15
REMARK                            x       y       z     vdW  Elec       q    Type
REMARK                         _______ _______ _______ _____ _____    ______ ____
ROOT
ATOM      1  C   UNL     1       2.196   5.696  20.066  0.00  0.00    +0.000 C 
ATOM      2  C   UNL     1       2.856   4.684  19.174  0.00  0.00    +0.000 A 
ATOM      3  C   UNL     1       2.671   3.371  19.366  0.00  0.00    +0.000 A 
ATOM      4  C   UNL     1       3.284   2.333  18.528  0.00  0.00    +0.000 A 
ATOM      5  O   UNL     1       3.080   1.144  18.752  0.00  0.00    +0.000 OA
ATOM      6  O   UNL     1       4.089   2.766  17.492  0.00  0.00    +0.000 OA
ATOM      7  C   UNL     1       4.315   4.140  17.253  0.00  0.00    +0.000 A 
ATOM      8  C   UNL     1       3.721   5.121  18.065  0.00  0.00    +0.000 A 
ATOM      9  C   UNL     1       3.980   6.474  17.786  0.00  0.00    +0.000 A 
ATOM     10  C   UNL     1       4.807   6.871  16.720  0.00  0.00    +0.000 A 
ATOM     11  C   UNL     1       5.369   5.856  15.951  0.00  0.00    +0.000 A 
ATOM     12  O   UNL     1       6.196   6.028  14.881  0.00  0.00    +0.000 OA
ATOM     13  C   UNL     1       6.519   4.781  14.419  0.00  0.00    +0.000 A 
ATOM     14  C   UNL     1       5.899   3.819  15.191  0.00  0.00    +0.000 A 
ATOM     15  C   UNL     1       5.152   4.505  16.182  0.00  0.00    +0.000 A 
ENDROOT
BRANCH  13  16
ATOM     16  C   UNL     1       7.406   4.703  13.230  0.00  0.00    +0.000 C 
BRANCH  16  17
ATOM     17  N   UNL     1       8.378   5.794  13.218  0.00  0.00    +0.000 NA
ATOM     18  H   UNL     1       7.991   6.580  13.740  0.00  0.00    +0.000 HD
ATOM     19  H   UNL     1       8.495   6.119  12.261  0.00  0.00    +0.000 HD
ENDBRANCH  16  17
ENDBRANCH  13  16
TORSDOF 2
ENDMDL
MODEL 2
REMARK VINA RESULT:      -7.2      2.111      3.332
REMARK  Name = 
REMARK  3 active torsions:
REMARK  status: ('A' for Active; 'I' for Inactive)
REMARK    1  A    between atoms: C_1  and  C_2
REMARK    2  A    between atoms: C_13  and  C_14
REMARK    3  A    between atoms: C_14  and  N_15
REMARK                            x       y       z     vdW  Elec       q    Type
REMARK                         _______ _______ _______ _____ _____    ______ ____
ROOT
ATOM      1  C   UNL     1       1.206   3.116  21.240  0.00  0.00    +0.000 C 
ATOM      2  C   UNL     1       1.821   4.228  20.441  0.00  0.00    +0.000 A 
ATOM      3  C   UNL     1       1.588   5.511  20.751  0.00  0.00    +0.000 A 
ATOM      4  C   UNL     1       2.162   6.643  20.012  0.00  0.00    +0.000 A 
ATOM      5  O   UNL     1       1.912   7.798  20.340  0.00  0.00    +0.000 OA
ATOM      6  O   UNL     1       2.984   6.335  18.945  0.00  0.00    +0.000 OA
ATOM      7  C   UNL     1       3.257   4.997  18.580  0.00  0.00    +0.000 A 
ATOM      8  C   UNL     1       2.698   3.926  19.298  0.00  0.00    +0.000 A 
ATOM      9  C   UNL     1       2.999   2.614  18.892  0.00  0.00    +0.000 A 
ATOM     10  C   UNL     1       3.842   2.346  17.799  0.00  0.00    +0.000 A 
ATOM     11  C   UNL     1       4.365   3.446  17.126  0.00  0.00    +0.000 A 
ATOM     12  O   UNL     1       5.195   3.403  16.045  0.00  0.00    +0.000 OA
ATOM     13  C   UNL     1       5.466   4.697  15.694  0.00  0.00    +0.000 A 
ATOM     14  C   UNL     1       4.812   5.562  16.549  0.00  0.00    +0.000 A 
ATOM     15  C   UNL     1       4.099   4.762  17.478  0.00  0.00    +0.000 A 
ENDROOT
BRANCH  13  16
ATOM     16  C   UNL     1       6.378   4.915  14.541  0.00  0.00    +0.000 C 
BRANCH  16  17
ATOM     17  N   UNL     1       7.671   5.436  14.978  0.00  0.00    +0.000 NA
ATOM     18  H   UNL     1       7.544   5.925  15.863  0.00  0.00    +0.000 HD
ATOM     19  H   UNL     1       7.986   6.136  14.309  0.00  0.00    +0.000 HD
ENDBRANCH  16  17
ENDBRANCH  13  16
TORSDOF 2
ENDMDL
MODEL 3
REMARK VINA RESULT:      -7.1      1.191      1.291
REMARK  Name = 
REMARK  3 active torsions:
REMARK  status: ('A' for Active; 'I' for Inactive)
REMARK    1  A    between atoms: C_1  and  C_2
REMARK    2  A    between atoms: C_13  and  C_14
REMARK    3  A    between atoms: C_14  and  N_15
REMARK                            x       y       z     vdW  Elec       q    Type
REMARK                         _______ _______ _______ _____ _____    ______ ____
ROOT
ATOM      1  C   UNL     1       1.586   6.395  20.580  0.00  0.00    +0.000 C 
ATOM      2  C   UNL     1       2.104   5.280  19.720  0.00  0.00    +0.000 A 
ATOM      3  C   UNL     1       1.714   4.014  19.923  0.00  0.00    +0.000 A 
ATOM      4  C   UNL     1       2.182   2.880  19.115  0.00  0.00    +0.000 A 
ATOM      5  O   UNL     1       1.791   1.740  19.348  0.00  0.00    +0.000 OA
ATOM      6  O   UNL     1       3.070   3.167  18.097  0.00  0.00    +0.000 OA
ATOM      7  C   UNL     1       3.511   4.486  17.847  0.00  0.00    +0.000 A 
ATOM      8  C   UNL     1       3.054   5.560  18.630  0.00  0.00    +0.000 A 
ATOM      9  C   UNL     1       3.525   6.852  18.342  0.00  0.00    +0.000 A 
ATOM     10  C   UNL     1       4.431   7.100  17.295  0.00  0.00    +0.000 A 
ATOM     11  C   UNL     1       4.849   5.998  16.554  0.00  0.00    +0.000 A 
ATOM     12  O   UNL     1       5.721   6.023  15.506  0.00  0.00    +0.000 OA
ATOM     13  C   UNL     1       5.860   4.734  15.068  0.00  0.00    +0.000 A 
ATOM     14  C   UNL     1       5.078   3.892  15.834  0.00  0.00    +0.000 A 
ATOM     15  C   UNL     1       4.421   4.700  16.795  0.00  0.00    +0.000 A 
ENDROOT
BRANCH  13  16
ATOM     16  C   UNL     1       6.754   4.500  13.905  0.00  0.00    +0.000 C 
BRANCH  16  17
ATOM     17  N   UNL     1       6.288   3.379  13.092  0.00  0.00    +0.000 NA
ATOM     18  H   UNL     1       6.341   3.645  12.109  0.00  0.00    +0.000 HD
ATOM     19  H   UNL     1       5.302   3.219  13.289  0.00  0.00    +0.000 HD
ENDBRANCH  16  17
ENDBRANCH  13  16
TORSDOF 2
ENDMDL
MODEL 4
REMARK VINA RESULT:      -7.1      1.285      1.650
REMARK  Name = 
REMARK  3 active torsions:
REMARK  status: ('A' for Active; 'I' for Inactive)
REMARK    1  A    between atoms: C_1  and  C_2
REMARK    2  A    between atoms: C_13  and  C_14
REMARK    3  A    between atoms: C_14  and  N_15
REMARK                            x       y       z     vdW  Elec       q    Type
REMARK                         _______ _______ _______ _____ _____    ______ ____
ROOT
ATOM      1  C   UNL     1       1.475   7.221  20.720  0.00  0.00    +0.000 C 
ATOM      2  C   UNL     1       2.190   6.021  20.173  0.00  0.00    +0.000 A 
ATOM      3  C   UNL     1       2.084   4.824  20.766  0.00  0.00    +0.000 A 
ATOM      4  C   UNL     1       2.755   3.612  20.278  0.00  0.00    +0.000 A 
ATOM      5  O   UNL     1       2.623   2.543  20.863  0.00  0.00    +0.000 OA
ATOM      6  O   UNL     1       3.530   3.746  19.141  0.00  0.00    +0.000 OA
ATOM      7  C   UNL     1       3.673   4.988  18.483  0.00  0.00    +0.000 A 
ATOM      8  C   UNL     1       3.024   6.138  18.964  0.00  0.00    +0.000 A 
ATOM      9  C   UNL     1       3.201   7.350  18.274  0.00  0.00    +0.000 A 
ATOM     10  C   UNL     1       3.999   7.442  17.120  0.00  0.00    +0.000 A 
ATOM     11  C   UNL     1       4.618   6.270  16.691  0.00  0.00    +0.000 A 
ATOM     12  O   UNL     1       5.430   6.147  15.603  0.00  0.00    +0.000 OA
ATOM     13  C   UNL     1       5.825   4.838  15.543  0.00  0.00    +0.000 A 
ATOM     14  C   UNL     1       5.265   4.131  16.588  0.00  0.00    +0.000 A 
ATOM     15  C   UNL     1       4.483   5.048  17.334  0.00  0.00    +0.000 A 
ENDROOT
BRANCH  13  16
ATOM     16  C   UNL     1       6.711   4.444  14.418  0.00  0.00    +0.000 C 
BRANCH  16  17
ATOM     17  N   UNL     1       7.702   5.479  14.133  0.00  0.00    +0.000 NA
ATOM     18  H   UNL     1       7.330   6.378  14.437  0.00  0.00    +0.000 HD
ATOM     19  H   UNL     1       7.823   5.548  13.124  0.00  0.00    +0.000 HD
ENDBRANCH  16  17
ENDBRANCH  13  16
TORSDOF 2
ENDMDL
MODEL 5
REMARK VINA RESULT:      -6.8      2.226      3.430
REMARK  Name = 
REMARK  3 active torsions:
REMARK  status: ('A' for Active; 'I' for Inactive)
REMARK    1  A    between atoms: C_1  and  C_2
REMARK    2  A    between atoms: C_13  and  C_14
REMARK    3  A    between atoms: C_14  and  N_15
REMARK                            x       y       z     vdW  Elec       q    Type
REMARK                         _______ _______ _______ _____ _____    ______ ____
ROOT
ATOM      1  C   UNL     1       1.808   5.420  20.839  0.00  0.00    +0.000 C 
ATOM      2  C   UNL     1       2.376   6.132  19.646  0.00  0.00    +0.000 A 
ATOM      3  C   UNL     1       2.105   7.424  19.419  0.00  0.00    +0.000 A 
ATOM      4  C   UNL     1       2.633   8.176  18.273  0.00  0.00    +0.000 A 
ATOM      5  O   UNL     1       2.349   9.359  18.115  0.00  0.00    +0.000 OA
ATOM      6  O   UNL     1       3.451   7.486  17.400  0.00  0.00    +0.000 OA
ATOM      7  C   UNL     1       3.763   6.122  17.598  0.00  0.00    +0.000 A 
ATOM      8  C   UNL     1       3.250   5.417  18.699  0.00  0.00    +0.000 A 
ATOM      9  C   UNL     1       3.589   4.061  18.849  0.00  0.00    +0.000 A 
ATOM     10  C   UNL     1       4.426   3.396  17.935  0.00  0.00    +0.000 A 
ATOM     11  C   UNL     1       4.904   4.145  16.863  0.00  0.00    +0.000 A 
ATOM     12  O   UNL     1       5.722   3.691  15.871  0.00  0.00    +0.000 OA
ATOM     13  C   UNL     1       5.946   4.741  15.023  0.00  0.00    +0.000 A 
ATOM     14  C   UNL     1       5.274   5.860  15.474  0.00  0.00    +0.000 A 
ATOM     15  C   UNL     1       4.600   5.484  16.663  0.00  0.00    +0.000 A 
ENDROOT
BRANCH  13  16
ATOM     16  C   UNL     1       6.836   4.499  13.858  0.00  0.00    +0.000 C 
BRANCH  16  17
ATOM     17  N   UNL     1       6.429   3.308  13.117  0.00  0.00    +0.000 NA
ATOM     18  H   UNL     1       5.725   2.811  13.660  0.00  0.00    +0.000 HD
ATOM     19  H   UNL     1       7.227   2.679  13.043  0.00  0.00    +0.000 HD
ENDBRANCH  16  17
ENDBRANCH  13  16
TORSDOF 2
ENDMDL
MODEL 6
REMARK VINA RESULT:      -6.7      4.640      6.517
REMARK  Name = 
REMARK  3 active torsions:
REMARK  status: ('A' for Active; 'I' for Inactive)
REMARK    1  A    between atoms: C_1  and  C_2
REMARK    2  A    between atoms: C_13  and  C_14
REMARK    3  A    between atoms: C_14  and  N_15
REMARK                            x       y       z     vdW  Elec       q    Type
REMARK                         _______ _______ _______ _____ _____    ______ ____
ROOT
ATOM      1  C   UNL     1       3.878   3.614  17.575  0.00  0.00    +0.000 C 
ATOM      2  C   UNL     1       3.178   4.046  18.831  0.00  0.00    +0.000 A 
ATOM      3  C   UNL     1       2.937   3.176  19.821  0.00  0.00    +0.000 A 
ATOM      4  C   UNL     1       2.262   3.538  21.074  0.00  0.00    +0.000 A 
ATOM      5  O   UNL     1       2.066   2.698  21.946  0.00  0.00    +0.000 OA
ATOM      6  O   UNL     1       1.867   4.855  21.210  0.00  0.00    +0.000 OA
ATOM      7  C   UNL     1       2.098   5.807  20.192  0.00  0.00    +0.000 A 
ATOM      8  C   UNL     1       2.745   5.444  18.998  0.00  0.00    +0.000 A 
ATOM      9  C   UNL     1       2.949   6.429  18.016  0.00  0.00    +0.000 A 
ATOM     10  C   UNL     1       2.530   7.759  18.196  0.00  0.00    +0.000 A 
ATOM     11  C   UNL     1       1.894   8.060  19.397  0.00  0.00    +0.000 A 
ATOM     12  O   UNL     1       1.412   9.282  19.763  0.00  0.00    +0.000 OA
ATOM     13  C   UNL     1       0.864   9.140  21.009  0.00  0.00    +0.000 A 
ATOM     14  C   UNL     1       0.997   7.833  21.434  0.00  0.00    +0.000 A 
ATOM     15  C   UNL     1       1.663   7.129  20.399  0.00  0.00    +0.000 A 
ENDROOT
BRANCH  13  16
ATOM     16  C   UNL     1       0.283  10.353  21.641  0.00  0.00    +0.000 C 
BRANCH  16  17
ATOM     17  N   UNL     1       0.131  10.179  23.084  0.00  0.00    +0.000 NA
ATOM     18  H   UNL     1       0.250  11.085  23.535  0.00  0.00    +0.000 HD
ATOM     19  H   UNL     1       0.889   9.590  23.424  0.00  0.00    +0.000 HD
ENDBRANCH  16  17
ENDBRANCH  13  16
TORSDOF 2
ENDMDL
MODEL 7
REMARK VINA RESULT:      -6.6      2.779      2.961
REMARK  Name = 
REMARK  3 active torsions:
REMARK  status: ('A' for Active; 'I' for Inactive)
REMARK    1  A    between atoms: C_1  and  C_2
REMARK    2  A    between atoms: C_13  and  C_14
REMARK    3  A    between atoms: C_14  and  N_15
REMARK                            x       y       z     vdW  Elec       q    Type
REMARK                         _______ _______ _______ _____ _____    ______ ____
ROOT
ATOM      1  C   UNL     1       0.860   3.212  19.723  0.00  0.00    +0.000 C 
ATOM      2  C   UNL     1       2.360   3.247  19.703  0.00  0.00    +0.000 A 
ATOM      3  C   UNL     1       3.081   2.269  20.269  0.00  0.00    +0.000 A 
ATOM      4  C   UNL     1       4.549   2.243  20.279  0.00  0.00    +0.000 A 
ATOM      5  O   UNL     1       5.157   1.322  20.814  0.00  0.00    +0.000 OA
ATOM      6  O   UNL     1       5.194   3.298  19.662  0.00  0.00    +0.000 OA
ATOM      7  C   UNL     1       4.476   4.353  19.054  0.00  0.00    +0.000 A 
ATOM      8  C   UNL     1       3.070   4.362  19.054  0.00  0.00    +0.000 A 
ATOM      9  C   UNL     1       2.404   5.435  18.437  0.00  0.00    +0.000 A 
ATOM     10  C   UNL     1       3.100   6.490  17.821  0.00  0.00    +0.000 A 
ATOM     11  C   UNL     1       4.490   6.428  17.853  0.00  0.00    +0.000 A 
ATOM     12  O   UNL     1       5.345   7.346  17.319  0.00  0.00    +0.000 OA
ATOM     13  C   UNL     1       6.616   6.907  17.573  0.00  0.00    +0.000 A 
ATOM     14  C   UNL     1       6.570   5.714  18.266  0.00  0.00    +0.000 A 
ATOM     15  C   UNL     1       5.201   5.396  18.450  0.00  0.00    +0.000 A 
ENDROOT
BRANCH  13  16
ATOM     16  C   UNL     1       7.739   7.737  17.066  0.00  0.00    +0.000 C 
BRANCH  16  17
ATOM     17  N   UNL     1       8.160   8.725  18.058  0.00  0.00    +0.000 NA
ATOM     18  H   UNL     1       8.264   8.259  18.958  0.00  0.00    +0.000 HD
ATOM     19  H   UNL     1       7.415   9.409  18.175  0.00  0.00    +0.000 HD
ENDBRANCH  16  17
ENDBRANCH  13  16
TORSDOF 2
ENDMDL
MODEL 8
REMARK VINA RESULT:      -6.6      3.643      6.038
REMARK  Name = 
REMARK  3 active torsions:
REMARK  status: ('A' for Active; 'I' for Inactive)
REMARK    1  A    between atoms: C_1  and  C_2
REMARK    2  A    between atoms: C_13  and  C_14
REMARK    3  A    between atoms: C_14  and  N_15
REMARK                            x       y       z     vdW  Elec       q    Type
REMARK                         _______ _______ _______ _____ _____    ______ ____
ROOT
ATOM      1  C   UNL     1       7.042   4.824  15.095  0.00  0.00    +0.000 C 
ATOM      2  C   UNL     1       6.730   4.853  16.563  0.00  0.00    +0.000 A 
ATOM      3  C   UNL     1       7.615   5.333  17.447  0.00  0.00    +0.000 A 
ATOM      4  C   UNL     1       7.368   5.391  18.894  0.00  0.00    +0.000 A 
ATOM      5  O   UNL     1       8.217   5.840  19.658  0.00  0.00    +0.000 OA
ATOM      6  O   UNL     1       6.147   4.920  19.336  0.00  0.00    +0.000 OA
ATOM      7  C   UNL     1       5.183   4.403  18.441  0.00  0.00    +0.000 A 
ATOM      8  C   UNL     1       5.436   4.354  17.059  0.00  0.00    +0.000 A 
ATOM      9  C   UNL     1       4.445   3.828  16.212  0.00  0.00    +0.000 A 
ATOM     10  C   UNL     1       3.214   3.359  16.705  0.00  0.00    +0.000 A 
ATOM     11  C   UNL     1       3.021   3.432  18.081  0.00  0.00    +0.000 A 
ATOM     12  O   UNL     1       1.906   3.029  18.755  0.00  0.00    +0.000 OA
ATOM     13  C   UNL     1       2.130   3.272  20.083  0.00  0.00    +0.000 A 
ATOM     14  C   UNL     1       3.382   3.828  20.254  0.00  0.00    +0.000 A 
ATOM     15  C   UNL     1       3.964   3.937  18.965  0.00  0.00    +0.000 A 
ENDROOT
BRANCH  13  16
ATOM     16  C   UNL     1       1.039   2.932  21.032  0.00  0.00    +0.000 C 
BRANCH  16  17
ATOM     17  N   UNL     1       1.572   2.485  22.317  0.00  0.00    +0.000 NA
ATOM     18  H   UNL     1       1.233   3.112  23.046  0.00  0.00    +0.000 HD
ATOM     19  H   UNL     1       2.585   2.586  22.304  0.00  0.00    +0.000 HD
ENDBRANCH  16  17
ENDBRANCH  13  16
TORSDOF 2
ENDMDL
MODEL 9
REMARK VINA RESULT:      -6.6      3.213      5.502
REMARK  Name = 
REMARK  3 active torsions:
REMARK  status: ('A' for Active; 'I' for Inactive)
REMARK    1  A    between atoms: C_1  and  C_2
REMARK    2  A    between atoms: C_13  and  C_14
REMARK    3  A    between atoms: C_14  and  N_15
REMARK                            x       y       z     vdW  Elec       q    Type
REMARK                         _______ _______ _______ _____ _____    ______ ____
ROOT
ATOM      1  C   UNL     1       7.662   7.114  17.328  0.00  0.00    +0.000 C 
ATOM      2  C   UNL     1       6.799   6.037  16.737  0.00  0.00    +0.000 A 
ATOM      3  C   UNL     1       7.066   5.523  15.529  0.00  0.00    +0.000 A 
ATOM      4  C   UNL     1       6.263   4.467  14.899  0.00  0.00    +0.000 A 
ATOM      5  O   UNL     1       6.555   4.035  13.789  0.00  0.00    +0.000 OA
ATOM      6  O   UNL     1       5.180   3.998  15.618  0.00  0.00    +0.000 OA
ATOM      7  C   UNL     1       4.858   4.511  16.894  0.00  0.00    +0.000 A 
ATOM      8  C   UNL     1       5.637   5.522  17.482  0.00  0.00    +0.000 A 
ATOM      9  C   UNL     1       5.273   6.000  18.753  0.00  0.00    +0.000 A 
ATOM     10  C   UNL     1       4.161   5.494  19.449  0.00  0.00    +0.000 A 
ATOM     11  C   UNL     1       3.426   4.495  18.817  0.00  0.00    +0.000 A 
ATOM     12  O   UNL     1       2.319   3.877  19.318  0.00  0.00    +0.000 OA
ATOM     13  C   UNL     1       1.908   2.967  18.382  0.00  0.00    +0.000 A 
ATOM     14  C   UNL     1       2.752   3.005  17.290  0.00  0.00    +0.000 A 
ATOM     15  C   UNL     1       3.737   3.988  17.563  0.00  0.00    +0.000 A 
ENDROOT
BRANCH  13  16
ATOM     16  C   UNL     1       0.716   2.143  18.708  0.00  0.00    +0.000 C 
BRANCH  16  17
ATOM     17  N   UNL     1       0.027   2.651  19.893  0.00  0.00    +0.000 NA
ATOM     18  H   UNL     1       0.703   3.140  20.478  0.00  0.00    +0.000 HD
ATOM     19  H   UNL     1      -0.305   1.861  20.442  0.00  0.00    +0.000 HD
ENDBRANCH  16  17
ENDBRANCH  13  16
TORSDOF 2
ENDMDL
