MODEL 1
REMARK VINA RESULT:      -8.9      0.000      0.000
REMARK  Name = 
REMARK  7 active torsions:
REMARK  status: ('A' for Active; 'I' for Inactive)
REMARK    1  A    between atoms: C_1  and  O_2
REMARK    2  A    between atoms: O_2  and  C_3
REMARK    3  A    between atoms: C_5  and  C_6
REMARK    4  A    between atoms: C_16  and  C_17
REMARK    5  A    between atoms: C_18  and  N_19
REMARK    6  A    between atoms: N_19  and  C_20
REMARK    7  A    between atoms: C_24  and  C_25
REMARK                            x       y       z     vdW  Elec       q    Type
REMARK                         _______ _______ _______ _____ _____    ______ ____
ROOT
ATOM      1  C   UNL     1       2.601   3.660  18.828  0.00  0.00    +0.000 C 
ATOM      2  C   UNL     1       3.797   3.040  18.762  0.00  0.00    +0.000 C 
ATOM      3  C   UNL     1       3.563   1.708  18.151  0.00  0.00    +0.000 C 
ATOM      4  O   UNL     1       4.445   0.961  17.762  0.00  0.00    +0.000 OA
ATOM      5  N   UNL     1       2.234   1.534  18.057  0.00  0.00    +0.000 N 
ATOM      6  C   UNL     1       1.599   2.704  18.292  0.00  0.00    +0.000 C 
ATOM      7  O   UNL     1       0.443   2.936  17.991  0.00  0.00    +0.000 OA
ATOM      8  H   UNL     1       1.804   0.763  17.574  0.00  0.00    +0.000 HD
ENDROOT
BRANCH   1  14
ATOM      9  C   UNL     1       1.691   5.482  20.357  0.00  0.00    +0.000 A 
ATOM     10  C   UNL     1       1.511   6.852  20.620  0.00  0.00    +0.000 A 
ATOM     11  C   UNL     1       1.838   7.842  19.685  0.00  0.00    +0.000 A 
ATOM     12  C   UNL     1       2.527   7.425  18.542  0.00  0.00    +0.000 A 
ATOM     13  C   UNL     1       2.782   6.073  18.306  0.00  0.00    +0.000 A 
ATOM     14  C   UNL     1       2.358   5.068  19.195  0.00  0.00    +0.000 A 
BRANCH  11  15
ATOM     15  C   UNL     1       1.429   9.255  19.852  0.00  0.00    +0.000 A 
ATOM     16  C   UNL     1       1.155  10.050  18.725  0.00  0.00    +0.000 A 
ATOM     17  C   UNL     1       0.669  11.349  18.869  0.00  0.00    +0.000 A 
ATOM     18  C   UNL     1       0.497  11.838  20.147  0.00  0.00    +0.000 A 
ATOM     19 CL   UNL     1      -0.109  13.417  20.416  0.00  0.00    +0.000 Cl
ATOM     20  N   UNL     1       0.755  11.143  21.264  0.00  0.00    +0.000 NA
ATOM     21  C   UNL     1       1.197   9.876  21.094  0.00  0.00    +0.000 A 
ATOM     22 CL   UNL     1       1.341   9.083  22.623  0.00  0.00    +0.000 Cl
ENDBRANCH  11  15
BRANCH   9  24
ATOM     23  C   UNL     1       2.319   3.781  21.839  0.00  0.00    +0.000 C 
ATOM     24  O   UNL     1       1.250   4.544  21.259  0.00  0.00    +0.000 OA
ENDBRANCH   9  24
ENDBRANCH   1  14
BRANCH   2  25
ATOM     25  N   UNL     1       5.091   3.440  19.029  0.00  0.00    +0.000 N 
ATOM     26  H   UNL     1       5.284   3.485  20.033  0.00  0.00    +0.000 HD
BRANCH  25  27
ATOM     27  C   UNL     1       5.828   4.404  18.310  0.00  0.00    +0.000 A 
ATOM     28  C   UNL     1       6.462   5.433  19.020  0.00  0.00    +0.000 A 
ATOM     29  C   UNL     1       7.262   6.379  18.373  0.00  0.00    +0.000 A 
ATOM     30  C   UNL     1       7.454   6.303  16.997  0.00  0.00    +0.000 A 
ATOM     31  C   UNL     1       6.848   5.277  16.268  0.00  0.00    +0.000 A 
ATOM     32  C   UNL     1       6.049   4.330  16.923  0.00  0.00    +0.000 A 
BRANCH  31  33
ATOM     33  C   UNL     1       7.054   5.187  14.854  0.00  0.00    +0.000 C 
ATOM     34  N   UNL     1       7.221   5.106  13.707  0.00  0.00    +0.000 NA
ENDBRANCH  31  33
ENDBRANCH  25  27
ENDBRANCH   2  25
TORSDOF 6
ENDMDL
MODEL 2
REMARK VINA RESULT:      -8.8      4.342      9.218
REMARK  Name = 
REMARK  7 active torsions:
REMARK  status: ('A' for Active; 'I' for Inactive)
REMARK    1  A    between atoms: C_1  and  O_2
REMARK    2  A    between atoms: O_2  and  C_3
REMARK    3  A    between atoms: C_5  and  C_6
REMARK    4  A    between atoms: C_16  and  C_17
REMARK    5  A    between atoms: C_18  and  N_19
REMARK    6  A    between atoms: N_19  and  C_20
REMARK    7  A    between atoms: C_24  and  C_25
REMARK                            x       y       z     vdW  Elec       q    Type
REMARK                         _______ _______ _______ _____ _____    ______ ____
ROOT
ATOM      1  C   UNL     1       1.106  11.766  19.018  0.00  0.00    +0.000 C 
ATOM      2  C   UNL     1      -0.083  12.386  19.167  0.00  0.00    +0.000 C 
ATOM      3  C   UNL     1       0.106  13.796  18.745  0.00  0.00    +0.000 C 
ATOM      4  O   UNL     1      -0.801  14.591  18.565  0.00  0.00    +0.000 OA
ATOM      5  N   UNL     1       1.421  13.986  18.548  0.00  0.00    +0.000 N 
ATOM      6  C   UNL     1       2.062  12.796  18.537  0.00  0.00    +0.000 C 
ATOM      7  O   UNL     1       3.180  12.616  18.092  0.00  0.00    +0.000 OA
ATOM      8  H   UNL     1       1.811  14.823  18.148  0.00  0.00    +0.000 HD
ENDROOT
BRANCH   1  14
ATOM      9  C   UNL     1       1.226   9.585  20.326  0.00  0.00    +0.000 A 
ATOM     10  C   UNL     1       1.496   8.205  20.340  0.00  0.00    +0.000 A 
ATOM     11  C   UNL     1       2.057   7.541  19.240  0.00  0.00    +0.000 A 
ATOM     12  C   UNL     1       2.169   8.273  18.054  0.00  0.00    +0.000 A 
ATOM     13  C   UNL     1       1.830   9.627  18.007  0.00  0.00    +0.000 A 
ATOM     14  C   UNL     1       1.367  10.320  19.140  0.00  0.00    +0.000 A 
BRANCH  11  15
ATOM     15  C   UNL     1       2.568   6.155  19.329  0.00  0.00    +0.000 A 
ATOM     16  C   UNL     1       1.881   5.195  20.094  0.00  0.00    +0.000 A 
ATOM     17  C   UNL     1       2.291   3.863  20.104  0.00  0.00    +0.000 A 
ATOM     18  C   UNL     1       3.407   3.524  19.367  0.00  0.00    +0.000 A 
ATOM     19 CL   UNL     1       3.972   1.908  19.311  0.00  0.00    +0.000 Cl
ATOM     20  N   UNL     1       4.119   4.388  18.632  0.00  0.00    +0.000 NA
ATOM     21  C   UNL     1       3.682   5.668  18.618  0.00  0.00    +0.000 A 
ATOM     22 CL   UNL     1       4.622   6.610  17.515  0.00  0.00    +0.000 Cl
ENDBRANCH  11  15
BRANCH   9  24
ATOM     23  C   UNL     1       0.660   9.316  22.582  0.00  0.00    +0.000 C 
ATOM     24  O   UNL     1       0.782  10.210  21.466  0.00  0.00    +0.000 OA
ENDBRANCH   9  24
ENDBRANCH   1  14
BRANCH   2  25
ATOM     25  N   UNL     1      -1.350  11.946  19.496  0.00  0.00    +0.000 N 
ATOM     26  H   UNL     1      -1.340  11.294  20.285  0.00  0.00    +0.000 HD
BRANCH  25  27
ATOM     27  C   UNL     1      -2.392  11.658  18.591  0.00  0.00    +0.000 A 
ATOM     28  C   UNL     1      -3.707  11.976  18.956  0.00  0.00    +0.000 A 
ATOM     29  C   UNL     1      -4.776  11.778  18.076  0.00  0.00    +0.000 A 
ATOM     30  C   UNL     1      -4.543  11.268  16.803  0.00  0.00    +0.000 A 
ATOM     31  C   UNL     1      -3.238  10.960  16.408  0.00  0.00    +0.000 A 
ATOM     32  C   UNL     1      -2.172  11.163  17.293  0.00  0.00    +0.000 A 
BRANCH  31  33
ATOM     33  C   UNL     1      -2.993  10.448  15.093  0.00  0.00    +0.000 C 
ATOM     34  N   UNL     1      -2.795  10.039  14.023  0.00  0.00    +0.000 NA
ENDBRANCH  31  33
ENDBRANCH  25  27
ENDBRANCH   2  25
TORSDOF 6
ENDMDL
MODEL 3
REMARK VINA RESULT:      -8.7      1.255      1.653
REMARK  Name = 
REMARK  7 active torsions:
REMARK  status: ('A' for Active; 'I' for Inactive)
REMARK    1  A    between atoms: C_1  and  O_2
REMARK    2  A    between atoms: O_2  and  C_3
REMARK    3  A    between atoms: C_5  and  C_6
REMARK    4  A    between atoms: C_16  and  C_17
REMARK    5  A    between atoms: C_18  and  N_19
REMARK    6  A    between atoms: N_19  and  C_20
REMARK    7  A    between atoms: C_24  and  C_25
REMARK                            x       y       z     vdW  Elec       q    Type
REMARK                         _______ _______ _______ _____ _____    ______ ____
ROOT
ATOM      1  C   UNL     1       2.647   3.697  18.763  0.00  0.00    +0.000 C 
ATOM      2  C   UNL     1       3.829   3.054  18.662  0.00  0.00    +0.000 C 
ATOM      3  C   UNL     1       3.532   1.665  18.233  0.00  0.00    +0.000 C 
ATOM      4  O   UNL     1       4.371   0.863  17.856  0.00  0.00    +0.000 OA
ATOM      5  N   UNL     1       2.199   1.502  18.282  0.00  0.00    +0.000 N 
ATOM      6  C   UNL     1       1.595   2.702  18.435  0.00  0.00    +0.000 C 
ATOM      7  O   UNL     1       0.417   2.916  18.216  0.00  0.00    +0.000 OA
ATOM      8  H   UNL     1       1.723   0.688  17.933  0.00  0.00    +0.000 HD
ENDROOT
BRANCH   1  14
ATOM      9  C   UNL     1       1.839   5.694  20.121  0.00  0.00    +0.000 A 
ATOM     10  C   UNL     1       1.697   7.088  20.240  0.00  0.00    +0.000 A 
ATOM     11  C   UNL     1       2.001   7.964  19.190  0.00  0.00    +0.000 A 
ATOM     12  C   UNL     1       2.631   7.410  18.071  0.00  0.00    +0.000 A 
ATOM     13  C   UNL     1       2.849   6.034  17.974  0.00  0.00    +0.000 A 
ATOM     14  C   UNL     1       2.447   5.142  18.984  0.00  0.00    +0.000 A 
BRANCH  11  15
ATOM     15  C   UNL     1       1.626   9.396  19.219  0.00  0.00    +0.000 A 
ATOM     16  C   UNL     1       2.123  10.277  18.243  0.00  0.00    +0.000 A 
ATOM     17  C   UNL     1       1.697  11.604  18.196  0.00  0.00    +0.000 A 
ATOM     18  C   UNL     1       0.800  12.031  19.154  0.00  0.00    +0.000 A 
ATOM     19 CL   UNL     1       0.214  13.639  19.162  0.00  0.00    +0.000 Cl
ATOM     20  N   UNL     1       0.301  11.251  20.122  0.00  0.00    +0.000 NA
ATOM     21  C   UNL     1       0.709   9.962  20.126  0.00  0.00    +0.000 A 
ATOM     22 CL   UNL     1      -0.136   9.070  21.342  0.00  0.00    +0.000 Cl
ENDBRANCH  11  15
BRANCH   9  24
ATOM     23  C   UNL     1       2.500   4.145  21.748  0.00  0.00    +0.000 C 
ATOM     24  O   UNL     1       1.421   4.870  21.137  0.00  0.00    +0.000 OA
ENDBRANCH   9  24
ENDBRANCH   1  14
BRANCH   2  25
ATOM     25  N   UNL     1       5.144   3.461  18.761  0.00  0.00    +0.000 N 
ATOM     26  H   UNL     1       5.424   3.636  19.730  0.00  0.00    +0.000 HD
BRANCH  25  27
ATOM     27  C   UNL     1       5.823   4.307  17.860  0.00  0.00    +0.000 A 
ATOM     28  C   UNL     1       5.786   4.003  16.493  0.00  0.00    +0.000 A 
ATOM     29  C   UNL     1       6.382   4.838  15.543  0.00  0.00    +0.000 A 
ATOM     30  C   UNL     1       7.019   6.007  15.948  0.00  0.00    +0.000 A 
ATOM     31  C   UNL     1       7.055   6.343  17.304  0.00  0.00    +0.000 A 
ATOM     32  C   UNL     1       6.454   5.503  18.249  0.00  0.00    +0.000 A 
BRANCH  31  33
ATOM     33  C   UNL     1       7.697   7.552  17.722  0.00  0.00    +0.000 C 
ATOM     34  N   UNL     1       8.212   8.536  18.066  0.00  0.00    +0.000 NA
ENDBRANCH  31  33
ENDBRANCH  25  27
ENDBRANCH   2  25
TORSDOF 6
ENDMDL
MODEL 4
REMARK VINA RESULT:      -8.7      1.007      1.275
REMARK  Name = 
REMARK  7 active torsions:
REMARK  status: ('A' for Active; 'I' for Inactive)
REMARK    1  A    between atoms: C_1  and  O_2
REMARK    2  A    between atoms: O_2  and  C_3
REMARK    3  A    between atoms: C_5  and  C_6
REMARK    4  A    between atoms: C_16  and  C_17
REMARK    5  A    between atoms: C_18  and  N_19
REMARK    6  A    between atoms: N_19  and  C_20
REMARK    7  A    between atoms: C_24  and  C_25
REMARK                            x       y       z     vdW  Elec       q    Type
REMARK                         _______ _______ _______ _____ _____    ______ ____
ROOT
ATOM      1  C   UNL     1       2.634   3.504  18.900  0.00  0.00    +0.000 C 
ATOM      2  C   UNL     1       3.861   2.957  18.775  0.00  0.00    +0.000 C 
ATOM      3  C   UNL     1       3.689   1.663  18.068  0.00  0.00    +0.000 C 
ATOM      4  O   UNL     1       4.605   0.996  17.615  0.00  0.00    +0.000 OA
ATOM      5  N   UNL     1       2.371   1.425  17.975  0.00  0.00    +0.000 N 
ATOM      6  C   UNL     1       1.678   2.538  18.303  0.00  0.00    +0.000 C 
ATOM      7  O   UNL     1       0.506   2.728  18.032  0.00  0.00    +0.000 OA
ATOM      8  H   UNL     1       1.976   0.670  17.440  0.00  0.00    +0.000 HD
ENDROOT
BRANCH   1  14
ATOM      9  C   UNL     1       1.601   5.153  20.542  0.00  0.00    +0.000 A 
ATOM     10  C   UNL     1       1.356   6.488  20.912  0.00  0.00    +0.000 A 
ATOM     11  C   UNL     1       1.672   7.566  20.075  0.00  0.00    +0.000 A 
ATOM     12  C   UNL     1       2.413   7.274  18.926  0.00  0.00    +0.000 A 
ATOM     13  C   UNL     1       2.731   5.957  18.587  0.00  0.00    +0.000 A 
ATOM     14  C   UNL     1       2.321   4.865  19.374  0.00  0.00    +0.000 A 
BRANCH  11  15
ATOM     15  C   UNL     1       1.199   8.942  20.345  0.00  0.00    +0.000 A 
ATOM     16  C   UNL     1       0.757   9.298  21.632  0.00  0.00    +0.000 A 
ATOM     17  C   UNL     1       0.408  10.615  21.928  0.00  0.00    +0.000 A 
ATOM     18  C   UNL     1       0.478  11.547  20.913  0.00  0.00    +0.000 A 
ATOM     19 CL   UNL     1       0.081  13.190  21.192  0.00  0.00    +0.000 Cl
ATOM     20  N   UNL     1       0.872  11.275  19.662  0.00  0.00    +0.000 NA
ATOM     21  C   UNL     1       1.233   9.996  19.411  0.00  0.00    +0.000 A 
ATOM     22 CL   UNL     1       1.846   9.851  17.801  0.00  0.00    +0.000 Cl
ENDBRANCH  11  15
BRANCH   9  24
ATOM     23  C   UNL     1       2.253   3.404  21.957  0.00  0.00    +0.000 C 
ATOM     24  O   UNL     1       1.172   4.126  21.347  0.00  0.00    +0.000 OA
ENDBRANCH   9  24
ENDBRANCH   1  14
BRANCH   2  25
ATOM     25  N   UNL     1       5.135   3.405  19.058  0.00  0.00    +0.000 N 
ATOM     26  H   UNL     1       5.308   3.473  20.065  0.00  0.00    +0.000 HD
BRANCH  25  27
ATOM     27  C   UNL     1       5.852   4.383  18.338  0.00  0.00    +0.000 A 
ATOM     28  C   UNL     1       6.468   5.423  19.045  0.00  0.00    +0.000 A 
ATOM     29  C   UNL     1       7.249   6.385  18.396  0.00  0.00    +0.000 A 
ATOM     30  C   UNL     1       7.438   6.312  17.019  0.00  0.00    +0.000 A 
ATOM     31  C   UNL     1       6.848   5.274  16.292  0.00  0.00    +0.000 A 
ATOM     32  C   UNL     1       6.070   4.313  16.950  0.00  0.00    +0.000 A 
BRANCH  31  33
ATOM     33  C   UNL     1       7.052   5.188  14.877  0.00  0.00    +0.000 C 
ATOM     34  N   UNL     1       7.218   5.126  13.729  0.00  0.00    +0.000 NA
ENDBRANCH  31  33
ENDBRANCH  25  27
ENDBRANCH   2  25
TORSDOF 6
ENDMDL
MODEL 5
REMARK VINA RESULT:      -8.6      2.453      3.106
REMARK  Name = 
REMARK  7 active torsions:
REMARK  status: ('A' for Active; 'I' for Inactive)
REMARK    1  A    between atoms: C_1  and  O_2
REMARK    2  A    between atoms: O_2  and  C_3
REMARK    3  A    between atoms: C_5  and  C_6
REMARK    4  A    between atoms: C_16  and  C_17
REMARK    5  A    between atoms: C_18  and  N_19
REMARK    6  A    between atoms: N_19  and  C_20
REMARK    7  A    between atoms: C_24  and  C_25
REMARK                            x       y       z     vdW  Elec       q    Type
REMARK                         _______ _______ _______ _____ _____    ______ ____
ROOT
ATOM      1  C   UNL     1       3.594   5.136  17.517  0.00  0.00    +0.000 C 
ATOM      2  C   UNL     1       4.666   5.354  16.726  0.00  0.00    +0.000 C 
ATOM      3  C   UNL     1       4.811   4.164  15.852  0.00  0.00    +0.000 C 
ATOM      4  O   UNL     1       5.552   4.102  14.886  0.00  0.00    +0.000 OA
ATOM      5  N   UNL     1       3.945   3.234  16.288  0.00  0.00    +0.000 N 
ATOM      6  C   UNL     1       3.081   3.787  17.169  0.00  0.00    +0.000 C 
ATOM      7  O   UNL     1       2.020   3.292  17.500  0.00  0.00    +0.000 OA
ATOM      8  H   UNL     1       3.758   2.373  15.802  0.00  0.00    +0.000 HD
ENDROOT
BRANCH   1  14
ATOM      9  C   UNL     1       2.649   5.861  19.767  0.00  0.00    +0.000 A 
ATOM     10  C   UNL     1       2.040   6.858  20.550  0.00  0.00    +0.000 A 
ATOM     11  C   UNL     1       1.573   8.060  20.001  0.00  0.00    +0.000 A 
ATOM     12  C   UNL     1       1.905   8.312  18.666  0.00  0.00    +0.000 A 
ATOM     13  C   UNL     1       2.580   7.361  17.898  0.00  0.00    +0.000 A 
ATOM     14  C   UNL     1       2.954   6.109  18.421  0.00  0.00    +0.000 A 
BRANCH  11  15
ATOM     15  C   UNL     1       0.719   8.999  20.762  0.00  0.00    +0.000 A 
ATOM     16  C   UNL     1       0.726   8.979  22.169  0.00  0.00    +0.000 A 
ATOM     17  C   UNL     1       0.007   9.925  22.899  0.00  0.00    +0.000 A 
ATOM     18  C   UNL     1      -0.733  10.856  22.201  0.00  0.00    +0.000 A 
ATOM     19 CL   UNL     1      -1.634  12.062  23.017  0.00  0.00    +0.000 Cl
ATOM     20  N   UNL     1      -0.799  10.922  20.864  0.00  0.00    +0.000 NA
ATOM     21  C   UNL     1      -0.069  10.011  20.182  0.00  0.00    +0.000 A 
ATOM     22 CL   UNL     1      -0.154  10.326  18.484  0.00  0.00    +0.000 Cl
ENDBRANCH  11  15
BRANCH   9  24
ATOM     23  C   UNL     1       1.884   4.022  20.998  0.00  0.00    +0.000 C 
ATOM     24  O   UNL     1       2.987   4.655  20.330  0.00  0.00    +0.000 OA
ENDBRANCH   9  24
ENDBRANCH   1  14
BRANCH   2  25
ATOM     25  N   UNL     1       5.496   6.439  16.529  0.00  0.00    +0.000 N 
ATOM     26  H   UNL     1       5.761   6.551  15.547  0.00  0.00    +0.000 HD
BRANCH  25  27
ATOM     27  C   UNL     1       6.516   6.876  17.399  0.00  0.00    +0.000 A 
ATOM     28  C   UNL     1       7.075   5.956  18.296  0.00  0.00    +0.000 A 
ATOM     29  C   UNL     1       8.135   6.308  19.137  0.00  0.00    +0.000 A 
ATOM     30  C   UNL     1       8.665   7.594  19.085  0.00  0.00    +0.000 A 
ATOM     31  C   UNL     1       8.137   8.526  18.187  0.00  0.00    +0.000 A 
ATOM     32  C   UNL     1       7.077   8.164  17.346  0.00  0.00    +0.000 A 
BRANCH  31  33
ATOM     33  C   UNL     1       8.689   9.845  18.121  0.00  0.00    +0.000 C 
ATOM     34  N   UNL     1       9.143  10.914  18.073  0.00  0.00    +0.000 NA
ENDBRANCH  31  33
ENDBRANCH  25  27
ENDBRANCH   2  25
TORSDOF 6
ENDMDL
MODEL 6
REMARK VINA RESULT:      -8.6      2.431      3.091
REMARK  Name = 
REMARK  7 active torsions:
REMARK  status: ('A' for Active; 'I' for Inactive)
REMARK    1  A    between atoms: C_1  and  O_2
REMARK    2  A    between atoms: O_2  and  C_3
REMARK    3  A    between atoms: C_5  and  C_6
REMARK    4  A    between atoms: C_16  and  C_17
REMARK    5  A    between atoms: C_18  and  N_19
REMARK    6  A    between atoms: N_19  and  C_20
REMARK    7  A    between atoms: C_24  and  C_25
REMARK                            x       y       z     vdW  Elec       q    Type
REMARK                         _______ _______ _______ _____ _____    ______ ____
ROOT
ATOM      1  C   UNL     1       3.443   5.458  17.532  0.00  0.00    +0.000 C 
ATOM      2  C   UNL     1       4.599   5.482  16.837  0.00  0.00    +0.000 C 
ATOM      3  C   UNL     1       4.742   4.157  16.184  0.00  0.00    +0.000 C 
ATOM      4  O   UNL     1       5.567   3.894  15.325  0.00  0.00    +0.000 OA
ATOM      5  N   UNL     1       3.772   3.362  16.667  0.00  0.00    +0.000 N 
ATOM      6  C   UNL     1       2.869   4.101  17.350  0.00  0.00    +0.000 C 
ATOM      7  O   UNL     1       1.748   3.727  17.640  0.00  0.00    +0.000 OA
ATOM      8  H   UNL     1       3.571   2.445  16.307  0.00  0.00    +0.000 HD
ENDROOT
BRANCH   1  14
ATOM      9  C   UNL     1       2.420   6.630  19.547  0.00  0.00    +0.000 A 
ATOM     10  C   UNL     1       1.803   7.773  20.089  0.00  0.00    +0.000 A 
ATOM     11  C   UNL     1       1.395   8.851  19.293  0.00  0.00    +0.000 A 
ATOM     12  C   UNL     1       1.792   8.829  17.952  0.00  0.00    +0.000 A 
ATOM     13  C   UNL     1       2.474   7.733  17.420  0.00  0.00    +0.000 A 
ATOM     14  C   UNL     1       2.790   6.602  18.195  0.00  0.00    +0.000 A 
BRANCH  11  15
ATOM     15  C   UNL     1       0.534   9.937  19.812  0.00  0.00    +0.000 A 
ATOM     16  C   UNL     1       0.877  10.603  21.003  0.00  0.00    +0.000 A 
ATOM     17  C   UNL     1       0.135  11.695  21.449  0.00  0.00    +0.000 A 
ATOM     18  C   UNL     1      -0.962  12.079  20.706  0.00  0.00    +0.000 A 
ATOM     19 CL   UNL     1      -1.922  13.418  21.173  0.00  0.00    +0.000 Cl
ATOM     20  N   UNL     1      -1.357  11.480  19.574  0.00  0.00    +0.000 NA
ATOM     21  C   UNL     1      -0.601  10.442  19.150  0.00  0.00    +0.000 A 
ATOM     22 CL   UNL     1      -1.162   9.882  17.614  0.00  0.00    +0.000 Cl
ENDBRANCH  11  15
BRANCH   9  24
ATOM     23  C   UNL     1       1.519   4.863  20.791  0.00  0.00    +0.000 C 
ATOM     24  O   UNL     1       2.699   5.552  20.352  0.00  0.00    +0.000 OA
ENDBRANCH   9  24
ENDBRANCH   1  14
BRANCH   2  25
ATOM     25  N   UNL     1       5.521   6.472  16.559  0.00  0.00    +0.000 N 
ATOM     26  H   UNL     1       5.829   6.452  15.584  0.00  0.00    +0.000 HD
BRANCH  25  27
ATOM     27  C   UNL     1       6.542   6.923  17.421  0.00  0.00    +0.000 A 
ATOM     28  C   UNL     1       7.116   6.013  18.319  0.00  0.00    +0.000 A 
ATOM     29  C   UNL     1       8.177   6.380  19.152  0.00  0.00    +0.000 A 
ATOM     30  C   UNL     1       8.694   7.671  19.090  0.00  0.00    +0.000 A 
ATOM     31  C   UNL     1       8.151   8.593  18.191  0.00  0.00    +0.000 A 
ATOM     32  C   UNL     1       7.090   8.216  17.358  0.00  0.00    +0.000 A 
BRANCH  31  33
ATOM     33  C   UNL     1       8.690   9.917  18.114  0.00  0.00    +0.000 C 
ATOM     34  N   UNL     1       9.125  10.993  18.045  0.00  0.00    +0.000 NA
ENDBRANCH  31  33
ENDBRANCH  25  27
ENDBRANCH   2  25
TORSDOF 6
ENDMDL
MODEL 7
REMARK VINA RESULT:      -8.5      2.275      2.826
REMARK  Name = 
REMARK  7 active torsions:
REMARK  status: ('A' for Active; 'I' for Inactive)
REMARK    1  A    between atoms: C_1  and  O_2
REMARK    2  A    between atoms: O_2  and  C_3
REMARK    3  A    between atoms: C_5  and  C_6
REMARK    4  A    between atoms: C_16  and  C_17
REMARK    5  A    between atoms: C_18  and  N_19
REMARK    6  A    between atoms: N_19  and  C_20
REMARK    7  A    between atoms: C_24  and  C_25
REMARK                            x       y       z     vdW  Elec       q    Type
REMARK                         _______ _______ _______ _____ _____    ______ ____
ROOT
ATOM      1  C   UNL     1       3.551   5.332  17.481  0.00  0.00    +0.000 C 
ATOM      2  C   UNL     1       4.694   5.390  16.767  0.00  0.00    +0.000 C 
ATOM      3  C   UNL     1       4.839   4.087  16.071  0.00  0.00    +0.000 C 
ATOM      4  O   UNL     1       5.651   3.860  15.190  0.00  0.00    +0.000 OA
ATOM      5  N   UNL     1       3.886   3.267  16.546  0.00  0.00    +0.000 N 
ATOM      6  C   UNL     1       2.988   3.975  17.267  0.00  0.00    +0.000 C 
ATOM      7  O   UNL     1       1.876   3.580  17.565  0.00  0.00    +0.000 OA
ATOM      8  H   UNL     1       3.689   2.359  16.162  0.00  0.00    +0.000 HD
ENDROOT
BRANCH   1  14
ATOM      9  C   UNL     1       2.530   6.422  19.543  0.00  0.00    +0.000 A 
ATOM     10  C   UNL     1       1.913   7.541  20.131  0.00  0.00    +0.000 A 
ATOM     11  C   UNL     1       1.502   8.649  19.380  0.00  0.00    +0.000 A 
ATOM     12  C   UNL     1       1.896   8.681  18.038  0.00  0.00    +0.000 A 
ATOM     13  C   UNL     1       2.579   7.608  17.461  0.00  0.00    +0.000 A 
ATOM     14  C   UNL     1       2.898   6.448  18.191  0.00  0.00    +0.000 A 
BRANCH  11  15
ATOM     15  C   UNL     1       0.641   9.713  19.944  0.00  0.00    +0.000 A 
ATOM     16  C   UNL     1      -0.274  10.393  19.121  0.00  0.00    +0.000 A 
ATOM     17  C   UNL     1      -1.163  11.323  19.658  0.00  0.00    +0.000 A 
ATOM     18  C   UNL     1      -1.095  11.577  21.012  0.00  0.00    +0.000 A 
ATOM     19 CL   UNL     1      -2.158  12.693  21.757  0.00  0.00    +0.000 Cl
ATOM     20  N   UNL     1      -0.237  10.980  21.851  0.00  0.00    +0.000 NA
ATOM     21  C   UNL     1       0.593  10.061  21.307  0.00  0.00    +0.000 A 
ATOM     22 CL   UNL     1       1.525   9.292  22.543  0.00  0.00    +0.000 Cl
ENDBRANCH  11  15
BRANCH   9  24
ATOM     23  C   UNL     1       1.635   4.693  20.846  0.00  0.00    +0.000 C 
ATOM     24  O   UNL     1       2.812   5.313  20.304  0.00  0.00    +0.000 OA
ENDBRANCH   9  24
ENDBRANCH   1  14
BRANCH   2  25
ATOM     25  N   UNL     1       5.600   6.398  16.504  0.00  0.00    +0.000 N 
ATOM     26  H   UNL     1       5.929   6.380  15.535  0.00  0.00    +0.000 HD
BRANCH  25  27
ATOM     27  C   UNL     1       6.593   6.874  17.385  0.00  0.00    +0.000 A 
ATOM     28  C   UNL     1       7.170   5.980  18.296  0.00  0.00    +0.000 A 
ATOM     29  C   UNL     1       8.206   6.374  19.149  0.00  0.00    +0.000 A 
ATOM     30  C   UNL     1       8.693   7.677  19.095  0.00  0.00    +0.000 A 
ATOM     31  C   UNL     1       8.146   8.584  18.183  0.00  0.00    +0.000 A 
ATOM     32  C   UNL     1       7.111   8.181  17.330  0.00  0.00    +0.000 A 
BRANCH  31  33
ATOM     33  C   UNL     1       8.654   9.921  18.115  0.00  0.00    +0.000 C 
ATOM     34  N   UNL     1       9.059  11.009  18.057  0.00  0.00    +0.000 NA
ENDBRANCH  31  33
ENDBRANCH  25  27
ENDBRANCH   2  25
TORSDOF 6
ENDMDL
MODEL 8
REMARK VINA RESULT:      -8.5      4.208      9.111
REMARK  Name = 
REMARK  7 active torsions:
REMARK  status: ('A' for Active; 'I' for Inactive)
REMARK    1  A    between atoms: C_1  and  O_2
REMARK    2  A    between atoms: O_2  and  C_3
REMARK    3  A    between atoms: C_5  and  C_6
REMARK    4  A    between atoms: C_16  and  C_17
REMARK    5  A    between atoms: C_18  and  N_19
REMARK    6  A    between atoms: N_19  and  C_20
REMARK    7  A    between atoms: C_24  and  C_25
REMARK                            x       y       z     vdW  Elec       q    Type
REMARK                         _______ _______ _______ _____ _____    ______ ____
ROOT
ATOM      1  C   UNL     1      -0.277  10.404  21.277  0.00  0.00    +0.000 C 
ATOM      2  C   UNL     1      -1.041  11.414  20.812  0.00  0.00    +0.000 C 
ATOM      3  C   UNL     1      -1.640  12.085  21.992  0.00  0.00    +0.000 C 
ATOM      4  O   UNL     1      -2.227  13.153  21.956  0.00  0.00    +0.000 OA
ATOM      5  N   UNL     1      -1.353  11.338  23.071  0.00  0.00    +0.000 N 
ATOM      6  C   UNL     1      -0.421  10.412  22.755  0.00  0.00    +0.000 C 
ATOM      7  O   UNL     1       0.249   9.800  23.566  0.00  0.00    +0.000 OA
ATOM      8  H   UNL     1      -1.544  11.625  24.016  0.00  0.00    +0.000 HD
ENDROOT
BRANCH   1  14
ATOM      9  C   UNL     1       1.284   9.981  19.310  0.00  0.00    +0.000 A 
ATOM     10  C   UNL     1       2.159   9.110  18.635  0.00  0.00    +0.000 A 
ATOM     11  C   UNL     1       2.319   7.771  19.012  0.00  0.00    +0.000 A 
ATOM     12  C   UNL     1       1.710   7.376  20.207  0.00  0.00    +0.000 A 
ATOM     13  C   UNL     1       0.900   8.255  20.929  0.00  0.00    +0.000 A 
ATOM     14  C   UNL     1       0.653   9.570  20.493  0.00  0.00    +0.000 A 
BRANCH  11  15
ATOM     15  C   UNL     1       3.042   6.793  18.168  0.00  0.00    +0.000 A 
ATOM     16  C   UNL     1       4.127   7.208  17.376  0.00  0.00    +0.000 A 
ATOM     17  C   UNL     1       4.882   6.282  16.657  0.00  0.00    +0.000 A 
ATOM     18  C   UNL     1       4.512   4.954  16.723  0.00  0.00    +0.000 A 
ATOM     19 CL   UNL     1       5.391   3.748  15.884  0.00  0.00    +0.000 Cl
ATOM     20  N   UNL     1       3.480   4.492  17.442  0.00  0.00    +0.000 NA
ATOM     21  C   UNL     1       2.784   5.409  18.152  0.00  0.00    +0.000 A 
ATOM     22 CL   UNL     1       1.588   4.628  19.126  0.00  0.00    +0.000 Cl
ENDBRANCH  11  15
BRANCH   9  24
ATOM     23  C   UNL     1       2.243  11.816  18.216  0.00  0.00    +0.000 C 
ATOM     24  O   UNL     1       1.075  11.252  18.834  0.00  0.00    +0.000 OA
ENDBRANCH   9  24
ENDBRANCH   1  14
BRANCH   2  25
ATOM     25  N   UNL     1      -1.246  11.951  19.557  0.00  0.00    +0.000 N 
ATOM     26  H   UNL     1      -1.001  12.943  19.515  0.00  0.00    +0.000 HD
BRANCH  25  27
ATOM     27  C   UNL     1      -2.304  11.635  18.680  0.00  0.00    +0.000 A 
ATOM     28  C   UNL     1      -3.618  11.903  19.086  0.00  0.00    +0.000 A 
ATOM     29  C   UNL     1      -4.705  11.675  18.236  0.00  0.00    +0.000 A 
ATOM     30  C   UNL     1      -4.492  11.185  16.951  0.00  0.00    +0.000 A 
ATOM     31  C   UNL     1      -3.190  10.926  16.515  0.00  0.00    +0.000 A 
ATOM     32  C   UNL     1      -2.106  11.159  17.371  0.00  0.00    +0.000 A 
BRANCH  31  33
ATOM     33  C   UNL     1      -2.966  10.435  15.189  0.00  0.00    +0.000 C 
ATOM     34  N   UNL     1      -2.782  10.030  14.115  0.00  0.00    +0.000 NA
ENDBRANCH  31  33
ENDBRANCH  25  27
ENDBRANCH   2  25
TORSDOF 6
ENDMDL
MODEL 9
REMARK VINA RESULT:      -8.5      4.312      9.362
REMARK  Name = 
REMARK  7 active torsions:
REMARK  status: ('A' for Active; 'I' for Inactive)
REMARK    1  A    between atoms: C_1  and  O_2
REMARK    2  A    between atoms: O_2  and  C_3
REMARK    3  A    between atoms: C_5  and  C_6
REMARK    4  A    between atoms: C_16  and  C_17
REMARK    5  A    between atoms: C_18  and  N_19
REMARK    6  A    between atoms: N_19  and  C_20
REMARK    7  A    between atoms: C_24  and  C_25
REMARK                            x       y       z     vdW  Elec       q    Type
REMARK                         _______ _______ _______ _____ _____    ______ ____
ROOT
ATOM      1  C   UNL     1       1.215  11.206  18.856  0.00  0.00    +0.000 C 
ATOM      2  C   UNL     1      -0.020  11.748  18.906  0.00  0.00    +0.000 C 
ATOM      3  C   UNL     1       0.112  13.169  18.499  0.00  0.00    +0.000 C 
ATOM      4  O   UNL     1      -0.826  13.905  18.244  0.00  0.00    +0.000 OA
ATOM      5  N   UNL     1       1.424  13.444  18.408  0.00  0.00    +0.000 N 
ATOM      6  C   UNL     1       2.138  12.297  18.452  0.00  0.00    +0.000 C 
ATOM      7  O   UNL     1       3.298  12.190  18.099  0.00  0.00    +0.000 OA
ATOM      8  H   UNL     1       1.791  14.305  18.040  0.00  0.00    +0.000 HD
ENDROOT
BRANCH   1  14
ATOM      9  C   UNL     1       1.426   9.048  20.191  0.00  0.00    +0.000 A 
ATOM     10  C   UNL     1       1.777   7.687  20.227  0.00  0.00    +0.000 A 
ATOM     11  C   UNL     1       2.408   7.047  19.152  0.00  0.00    +0.000 A 
ATOM     12  C   UNL     1       2.510   7.773  17.961  0.00  0.00    +0.000 A 
ATOM     13  C   UNL     1       2.093   9.104  17.889  0.00  0.00    +0.000 A 
ATOM     14  C   UNL     1       1.557   9.779  19.001  0.00  0.00    +0.000 A 
BRANCH  11  15
ATOM     15  C   UNL     1       2.997   5.695  19.271  0.00  0.00    +0.000 A 
ATOM     16  C   UNL     1       4.348   5.481  18.944  0.00  0.00    +0.000 A 
ATOM     17  C   UNL     1       4.944   4.238  19.149  0.00  0.00    +0.000 A 
ATOM     18  C   UNL     1       4.160   3.219  19.650  0.00  0.00    +0.000 A 
ATOM     19 CL   UNL     1       4.814   1.664  19.946  0.00  0.00    +0.000 Cl
ATOM     20  N   UNL     1       2.864   3.347  19.965  0.00  0.00    +0.000 NA
ATOM     21  C   UNL     1       2.320   4.572  19.784  0.00  0.00    +0.000 A 
ATOM     22 CL   UNL     1       0.694   4.597  20.370  0.00  0.00    +0.000 Cl
ENDBRANCH  11  15
BRANCH   9  24
ATOM     23  C   UNL     1      -0.221   8.964  21.853  0.00  0.00    +0.000 C 
ATOM     24  O   UNL     1       0.913   9.657  21.310  0.00  0.00    +0.000 OA
ENDBRANCH   9  24
ENDBRANCH   1  14
BRANCH   2  25
ATOM     25  N   UNL     1      -1.278  11.227  19.133  0.00  0.00    +0.000 N 
ATOM     26  H   UNL     1      -1.265  10.469  19.820  0.00  0.00    +0.000 HD
BRANCH  25  27
ATOM     27  C   UNL     1      -2.287  11.041  18.166  0.00  0.00    +0.000 A 
ATOM     28  C   UNL     1      -2.033  10.190  17.083  0.00  0.00    +0.000 A 
ATOM     29  C   UNL     1      -3.016   9.911  16.128  0.00  0.00    +0.000 A 
ATOM     30  C   UNL     1      -4.283  10.474  16.250  0.00  0.00    +0.000 A 
ATOM     31  C   UNL     1      -4.568  11.313  17.331  0.00  0.00    +0.000 A 
ATOM     32  C   UNL     1      -3.579  11.585  18.285  0.00  0.00    +0.000 A 
BRANCH  31  33
ATOM     33  C   UNL     1      -5.874  11.882  17.468  0.00  0.00    +0.000 C 
ATOM     34  N   UNL     1      -6.938  12.337  17.578  0.00  0.00    +0.000 NA
ENDBRANCH  31  33
ENDBRANCH  25  27
ENDBRANCH   2  25
TORSDOF 6
ENDMDL
