MODEL 1
REMARK VINA RESULT:      -6.7      0.000      0.000
REMARK  Name = 
REMARK  8 active torsions:
REMARK  status: ('A' for Active; 'I' for Inactive)
REMARK    1  A    between atoms: C_1  and  O_2
REMARK    2  A    between atoms: O_2  and  C_3
REMARK    3  A    between atoms: C_6  and  C_7
REMARK    4  A    between atoms: C_7  and  N_8
REMARK    5  A    between atoms: N_8  and  C_9
REMARK    6  A    between atoms: C_9  and  C_10
REMARK    7  A    between atoms: C_10  and  C_11
REMARK    8  A    between atoms: C_19  and  C_20
REMARK                            x       y       z     vdW  Elec       q    Type
REMARK                         _______ _______ _______ _____ _____    ______ ____
ROOT
ATOM      1  N   UNL     1       3.416   1.860  18.309  0.00  0.00    +0.000 NA
ATOM      2  H   UNL     1       3.831   0.970  18.031  0.00  0.00    +0.000 HD
ENDROOT
BRANCH   1   3
ATOM      3  C   UNL     1       4.348   2.538  19.213  0.00  0.00    +0.000 C 
BRANCH   3   7
ATOM      4  C   UNL     1       6.269   5.941  17.361  0.00  0.00    +0.000 A 
ATOM      5  C   UNL     1       6.261   5.801  18.751  0.00  0.00    +0.000 A 
ATOM      6  C   UNL     1       5.624   4.713  19.350  0.00  0.00    +0.000 A 
ATOM      7  C   UNL     1       4.978   3.747  18.569  0.00  0.00    +0.000 A 
ATOM      8  C   UNL     1       4.995   3.882  17.177  0.00  0.00    +0.000 A 
ATOM      9  C   UNL     1       5.639   4.969  16.565  0.00  0.00    +0.000 A 
ATOM     10  C   UNL     1       5.652   5.072  15.064  0.00  0.00    +0.000 C 
BRANCH   4  12
ATOM     11  C   UNL     1       7.592   7.919  17.459  0.00  0.00    +0.000 C 
ATOM     12  O   UNL     1       6.865   6.974  16.684  0.00  0.00    +0.000 OA
ENDBRANCH   4  12
ENDBRANCH   3   7
ENDBRANCH   1   3
BRANCH   1  13
ATOM     13  C   UNL     1       2.112   1.608  18.942  0.00  0.00    +0.000 C 
BRANCH  13  14
ATOM     14  C   UNL     1       1.051   2.637  18.528  0.00  0.00    +0.000 C 
BRANCH  14  15
ATOM     15  C   UNL     1       1.387   4.056  18.911  0.00  0.00    +0.000 A 
ATOM     16  C   UNL     1       1.384   4.437  20.263  0.00  0.00    +0.000 A 
ATOM     17  C   UNL     1       1.792   5.717  20.632  0.00  0.00    +0.000 A 
ATOM     18  C   UNL     1       2.192   6.618  19.653  0.00  0.00    +0.000 A 
ATOM     19  F   UNL     1       2.611   7.838  20.011  0.00  0.00    +0.000 F 
ATOM     20  C   UNL     1       2.174   6.267  18.308  0.00  0.00    +0.000 A 
ATOM     21  C   UNL     1       1.767   4.986  17.934  0.00  0.00    +0.000 A 
ENDBRANCH  14  15
ENDBRANCH  13  14
ENDBRANCH   1  13
TORSDOF 6
ENDMDL
MODEL 2
REMARK VINA RESULT:      -6.5      0.832      1.398
REMARK  Name = 
REMARK  8 active torsions:
REMARK  status: ('A' for Active; 'I' for Inactive)
REMARK    1  A    between atoms: C_1  and  O_2
REMARK    2  A    between atoms: O_2  and  C_3
REMARK    3  A    between atoms: C_6  and  C_7
REMARK    4  A    between atoms: C_7  and  N_8
REMARK    5  A    between atoms: N_8  and  C_9
REMARK    6  A    between atoms: C_9  and  C_10
REMARK    7  A    between atoms: C_10  and  C_11
REMARK    8  A    between atoms: C_19  and  C_20
REMARK                            x       y       z     vdW  Elec       q    Type
REMARK                         _______ _______ _______ _____ _____    ______ ____
ROOT
ATOM      1  N   UNL     1       3.345   2.518  19.700  0.00  0.00    +0.000 NA
ATOM      2  H   UNL     1       3.478   3.490  19.981  0.00  0.00    +0.000 HD
ENDROOT
BRANCH   1   3
ATOM      3  C   UNL     1       4.046   2.309  18.430  0.00  0.00    +0.000 C 
BRANCH   3   7
ATOM      4  C   UNL     1       6.262   5.793  17.147  0.00  0.00    +0.000 A 
ATOM      5  C   UNL     1       6.054   5.547  18.507  0.00  0.00    +0.000 A 
ATOM      6  C   UNL     1       5.322   4.433  18.920  0.00  0.00    +0.000 A 
ATOM      7  C   UNL     1       4.779   3.547  17.981  0.00  0.00    +0.000 A 
ATOM      8  C   UNL     1       4.997   3.789  16.621  0.00  0.00    +0.000 A 
ATOM      9  C   UNL     1       5.738   4.903  16.195  0.00  0.00    +0.000 A 
ATOM     10  C   UNL     1       5.966   5.122  14.724  0.00  0.00    +0.000 C 
BRANCH   4  12
ATOM     11  C   UNL     1       7.577   7.730  17.590  0.00  0.00    +0.000 C 
ATOM     12  O   UNL     1       6.964   6.860  16.647  0.00  0.00    +0.000 OA
ENDBRANCH   4  12
ENDBRANCH   3   7
ENDBRANCH   1   3
BRANCH   1  13
ATOM     13  C   UNL     1       1.905   2.236  19.593  0.00  0.00    +0.000 C 
BRANCH  13  14
ATOM     14  C   UNL     1       1.041   3.453  19.952  0.00  0.00    +0.000 C 
BRANCH  14  15
ATOM     15  C   UNL     1       1.621   4.772  19.506  0.00  0.00    +0.000 A 
ATOM     16  C   UNL     1       1.810   5.029  18.138  0.00  0.00    +0.000 A 
ATOM     17  C   UNL     1       2.249   6.281  17.714  0.00  0.00    +0.000 A 
ATOM     18  C   UNL     1       2.508   7.271  18.653  0.00  0.00    +0.000 A 
ATOM     19  F   UNL     1       2.903   8.483  18.243  0.00  0.00    +0.000 F 
ATOM     20  C   UNL     1       2.355   7.025  20.013  0.00  0.00    +0.000 A 
ATOM     21  C   UNL     1       1.914   5.773  20.443  0.00  0.00    +0.000 A 
ENDBRANCH  14  15
ENDBRANCH  13  14
ENDBRANCH   1  13
TORSDOF 6
ENDMDL
MODEL 3
REMARK VINA RESULT:      -6.5      1.531      2.854
REMARK  Name = 
REMARK  8 active torsions:
REMARK  status: ('A' for Active; 'I' for Inactive)
REMARK    1  A    between atoms: C_1  and  O_2
REMARK    2  A    between atoms: O_2  and  C_3
REMARK    3  A    between atoms: C_6  and  C_7
REMARK    4  A    between atoms: C_7  and  N_8
REMARK    5  A    between atoms: N_8  and  C_9
REMARK    6  A    between atoms: C_9  and  C_10
REMARK    7  A    between atoms: C_10  and  C_11
REMARK    8  A    between atoms: C_19  and  C_20
REMARK                            x       y       z     vdW  Elec       q    Type
REMARK                         _______ _______ _______ _____ _____    ______ ____
ROOT
ATOM      1  N   UNL     1       2.100   3.174  19.282  0.00  0.00    +0.000 NA
ATOM      2  H   UNL     1       1.699   2.250  19.441  0.00  0.00    +0.000 HD
ENDROOT
BRANCH   1   3
ATOM      3  C   UNL     1       3.516   3.128  19.658  0.00  0.00    +0.000 C 
BRANCH   3   7
ATOM      4  C   UNL     1       5.983   4.944  16.606  0.00  0.00    +0.000 A 
ATOM      5  C   UNL     1       4.851   4.204  16.254  0.00  0.00    +0.000 A 
ATOM      6  C   UNL     1       4.066   3.601  17.239  0.00  0.00    +0.000 A 
ATOM      7  C   UNL     1       4.401   3.723  18.592  0.00  0.00    +0.000 A 
ATOM      8  C   UNL     1       5.529   4.473  18.944  0.00  0.00    +0.000 A 
ATOM      9  C   UNL     1       6.320   5.089  17.961  0.00  0.00    +0.000 A 
ATOM     10  C   UNL     1       7.516   5.902  18.378  0.00  0.00    +0.000 C 
BRANCH   4  12
ATOM     11  C   UNL     1       7.069   4.894  14.486  0.00  0.00    +0.000 C 
ATOM     12  O   UNL     1       6.814   5.569  15.711  0.00  0.00    +0.000 OA
ENDBRANCH   4  12
ENDBRANCH   3   7
ENDBRANCH   1   3
BRANCH   1  13
ATOM     13  C   UNL     1       1.350   4.170  20.063  0.00  0.00    +0.000 C 
BRANCH  13  14
ATOM     14  C   UNL     1       2.255   5.263  20.644  0.00  0.00    +0.000 C 
BRANCH  14  15
ATOM     15  C   UNL     1       2.121   6.601  19.962  0.00  0.00    +0.000 A 
ATOM     16  C   UNL     1       2.550   6.757  18.634  0.00  0.00    +0.000 A 
ATOM     17  C   UNL     1       2.337   7.960  17.964  0.00  0.00    +0.000 A 
ATOM     18  C   UNL     1       1.706   9.008  18.622  0.00  0.00    +0.000 A 
ATOM     19  F   UNL     1       1.476  10.154  17.969  0.00  0.00    +0.000 F 
ATOM     20  C   UNL     1       1.301   8.881  19.946  0.00  0.00    +0.000 A 
ATOM     21  C   UNL     1       1.511   7.678  20.620  0.00  0.00    +0.000 A 
ENDBRANCH  14  15
ENDBRANCH  13  14
ENDBRANCH   1  13
TORSDOF 6
ENDMDL
MODEL 4
REMARK VINA RESULT:      -6.4      3.305      5.392
REMARK  Name = 
REMARK  8 active torsions:
REMARK  status: ('A' for Active; 'I' for Inactive)
REMARK    1  A    between atoms: C_1  and  O_2
REMARK    2  A    between atoms: O_2  and  C_3
REMARK    3  A    between atoms: C_6  and  C_7
REMARK    4  A    between atoms: C_7  and  N_8
REMARK    5  A    between atoms: N_8  and  C_9
REMARK    6  A    between atoms: C_9  and  C_10
REMARK    7  A    between atoms: C_10  and  C_11
REMARK    8  A    between atoms: C_19  and  C_20
REMARK                            x       y       z     vdW  Elec       q    Type
REMARK                         _______ _______ _______ _____ _____    ______ ____
ROOT
ATOM      1  N   UNL     1       4.575   6.131  18.147  0.00  0.00    +0.000 NA
ATOM      2  H   UNL     1       4.213   5.955  19.085  0.00  0.00    +0.000 HD
ENDROOT
BRANCH   1   3
ATOM      3  C   UNL     1       3.659   7.051  17.469  0.00  0.00    +0.000 C 
BRANCH   3   7
ATOM      4  C   UNL     1       0.914   8.882  20.265  0.00  0.00    +0.000 A 
ATOM      5  C   UNL     1       1.554   7.680  20.583  0.00  0.00    +0.000 A 
ATOM      6  C   UNL     1       2.424   7.079  19.672  0.00  0.00    +0.000 A 
ATOM      7  C   UNL     1       2.668   7.666  18.424  0.00  0.00    +0.000 A 
ATOM      8  C   UNL     1       2.035   8.874  18.111  0.00  0.00    +0.000 A 
ATOM      9  C   UNL     1       1.163   9.489  19.023  0.00  0.00    +0.000 A 
ATOM     10  C   UNL     1       0.514  10.797  18.658  0.00  0.00    +0.000 C 
BRANCH   4  12
ATOM     11  C   UNL     1       0.401   9.638  22.464  0.00  0.00    +0.000 C 
ATOM     12  O   UNL     1       0.043   9.543  21.092  0.00  0.00    +0.000 OA
ENDBRANCH   4  12
ENDBRANCH   3   7
ENDBRANCH   1   3
BRANCH   1  13
ATOM     13  C   UNL     1       4.710   4.853  17.432  0.00  0.00    +0.000 C 
BRANCH  13  14
ATOM     14  C   UNL     1       3.381   4.093  17.333  0.00  0.00    +0.000 C 
BRANCH  14  15
ATOM     15  C   UNL     1       2.779   3.728  18.666  0.00  0.00    +0.000 A 
ATOM     16  C   UNL     1       1.393   3.844  18.865  0.00  0.00    +0.000 A 
ATOM     17  C   UNL     1       0.817   3.414  20.059  0.00  0.00    +0.000 A 
ATOM     18  C   UNL     1       1.624   2.879  21.055  0.00  0.00    +0.000 A 
ATOM     19  F   UNL     1       1.067   2.440  22.190  0.00  0.00    +0.000 F 
ATOM     20  C   UNL     1       3.001   2.783  20.887  0.00  0.00    +0.000 A 
ATOM     21  C   UNL     1       3.582   3.212  19.693  0.00  0.00    +0.000 A 
ENDBRANCH  14  15
ENDBRANCH  13  14
ENDBRANCH   1  13
TORSDOF 6
ENDMDL
MODEL 5
REMARK VINA RESULT:      -6.4      2.365      3.740
REMARK  Name = 
REMARK  8 active torsions:
REMARK  status: ('A' for Active; 'I' for Inactive)
REMARK    1  A    between atoms: C_1  and  O_2
REMARK    2  A    between atoms: O_2  and  C_3
REMARK    3  A    between atoms: C_6  and  C_7
REMARK    4  A    between atoms: C_7  and  N_8
REMARK    5  A    between atoms: N_8  and  C_9
REMARK    6  A    between atoms: C_9  and  C_10
REMARK    7  A    between atoms: C_10  and  C_11
REMARK    8  A    between atoms: C_19  and  C_20
REMARK                            x       y       z     vdW  Elec       q    Type
REMARK                         _______ _______ _______ _____ _____    ______ ____
ROOT
ATOM      1  N   UNL     1       3.006   6.072  20.059  0.00  0.00    +0.000 NA
ATOM      2  H   UNL     1       3.579   6.718  20.602  0.00  0.00    +0.000 HD
ENDROOT
BRANCH   1   3
ATOM      3  C   UNL     1       2.912   6.584  18.689  0.00  0.00    +0.000 C 
BRANCH   3   7
ATOM      4  C   UNL     1       6.339   5.617  16.236  0.00  0.00    +0.000 A 
ATOM      5  C   UNL     1       5.166   4.863  16.144  0.00  0.00    +0.000 A 
ATOM      6  C   UNL     1       4.067   5.163  16.950  0.00  0.00    +0.000 A 
ATOM      7  C   UNL     1       4.122   6.219  17.867  0.00  0.00    +0.000 A 
ATOM      8  C   UNL     1       5.293   6.980  17.951  0.00  0.00    +0.000 A 
ATOM      9  C   UNL     1       6.401   6.690  17.140  0.00  0.00    +0.000 A 
ATOM     10  C   UNL     1       7.638   7.541  17.246  0.00  0.00    +0.000 C 
BRANCH   4  12
ATOM     11  C   UNL     1       7.284   4.877  14.178  0.00  0.00    +0.000 C 
ATOM     12  O   UNL     1       7.468   5.396  15.489  0.00  0.00    +0.000 OA
ENDBRANCH   4  12
ENDBRANCH   3   7
ENDBRANCH   1   3
BRANCH   1  13
ATOM     13  C   UNL     1       1.686   5.941  20.695  0.00  0.00    +0.000 C 
BRANCH  13  14
ATOM     14  C   UNL     1       1.124   4.517  20.593  0.00  0.00    +0.000 C 
BRANCH  14  15
ATOM     15  C   UNL     1       1.968   3.580  19.767  0.00  0.00    +0.000 A 
ATOM     16  C   UNL     1       3.203   3.129  20.261  0.00  0.00    +0.000 A 
ATOM     17  C   UNL     1       3.942   2.185  19.550  0.00  0.00    +0.000 A 
ATOM     18  C   UNL     1       3.452   1.700  18.344  0.00  0.00    +0.000 A 
ATOM     19  F   UNL     1       4.148   0.772  17.675  0.00  0.00    +0.000 F 
ATOM     20  C   UNL     1       2.246   2.157  17.825  0.00  0.00    +0.000 A 
ATOM     21  C   UNL     1       1.503   3.101  18.535  0.00  0.00    +0.000 A 
ENDBRANCH  14  15
ENDBRANCH  13  14
ENDBRANCH   1  13
TORSDOF 6
ENDMDL
MODEL 6
REMARK VINA RESULT:      -6.3      2.368      3.778
REMARK  Name = 
REMARK  8 active torsions:
REMARK  status: ('A' for Active; 'I' for Inactive)
REMARK    1  A    between atoms: C_1  and  O_2
REMARK    2  A    between atoms: O_2  and  C_3
REMARK    3  A    between atoms: C_6  and  C_7
REMARK    4  A    between atoms: C_7  and  N_8
REMARK    5  A    between atoms: N_8  and  C_9
REMARK    6  A    between atoms: C_9  and  C_10
REMARK    7  A    between atoms: C_10  and  C_11
REMARK    8  A    between atoms: C_19  and  C_20
REMARK                            x       y       z     vdW  Elec       q    Type
REMARK                         _______ _______ _______ _____ _____    ______ ____
ROOT
ATOM      1  N   UNL     1       3.082   5.970  20.121  0.00  0.00    +0.000 NA
ATOM      2  H   UNL     1       3.734   6.426  20.760  0.00  0.00    +0.000 HD
ENDROOT
BRANCH   1   3
ATOM      3  C   UNL     1       3.031   6.754  18.884  0.00  0.00    +0.000 C 
BRANCH   3   7
ATOM      4  C   UNL     1       6.287   5.809  16.199  0.00  0.00    +0.000 A 
ATOM      5  C   UNL     1       5.183   6.538  15.747  0.00  0.00    +0.000 A 
ATOM      6  C   UNL     1       4.123   6.825  16.608  0.00  0.00    +0.000 A 
ATOM      7  C   UNL     1       4.145   6.385  17.937  0.00  0.00    +0.000 A 
ATOM      8  C   UNL     1       5.255   5.665  18.392  0.00  0.00    +0.000 A 
ATOM      9  C   UNL     1       6.328   5.377  17.535  0.00  0.00    +0.000 A 
ATOM     10  C   UNL     1       7.513   4.615  18.064  0.00  0.00    +0.000 C 
BRANCH   4  12
ATOM     11  C   UNL     1       7.108   4.845  14.182  0.00  0.00    +0.000 C 
ATOM     12  O   UNL     1       7.371   5.477  15.428  0.00  0.00    +0.000 OA
ENDBRANCH   4  12
ENDBRANCH   3   7
ENDBRANCH   1   3
BRANCH   1  13
ATOM     13  C   UNL     1       1.765   5.861  20.766  0.00  0.00    +0.000 C 
BRANCH  13  14
ATOM     14  C   UNL     1       1.128   4.479  20.572  0.00  0.00    +0.000 C 
BRANCH  14  15
ATOM     15  C   UNL     1       1.940   3.543  19.713  0.00  0.00    +0.000 A 
ATOM     16  C   UNL     1       1.604   3.362  18.361  0.00  0.00    +0.000 A 
ATOM     17  C   UNL     1       2.408   2.579  17.536  0.00  0.00    +0.000 A 
ATOM     18  C   UNL     1       3.539   1.969  18.062  0.00  0.00    +0.000 A 
ATOM     19  F   UNL     1       4.328   1.239  17.262  0.00  0.00    +0.000 F 
ATOM     20  C   UNL     1       3.872   2.112  19.405  0.00  0.00    +0.000 A 
ATOM     21  C   UNL     1       3.070   2.897  20.234  0.00  0.00    +0.000 A 
ENDBRANCH  14  15
ENDBRANCH  13  14
ENDBRANCH   1  13
TORSDOF 6
ENDMDL
MODEL 7
REMARK VINA RESULT:      -6.3      2.662      4.252
REMARK  Name = 
REMARK  8 active torsions:
REMARK  status: ('A' for Active; 'I' for Inactive)
REMARK    1  A    between atoms: C_1  and  O_2
REMARK    2  A    between atoms: O_2  and  C_3
REMARK    3  A    between atoms: C_6  and  C_7
REMARK    4  A    between atoms: C_7  and  N_8
REMARK    5  A    between atoms: N_8  and  C_9
REMARK    6  A    between atoms: C_9  and  C_10
REMARK    7  A    between atoms: C_10  and  C_11
REMARK    8  A    between atoms: C_19  and  C_20
REMARK                            x       y       z     vdW  Elec       q    Type
REMARK                         _______ _______ _______ _____ _____    ______ ____
ROOT
ATOM      1  N   UNL     1       6.286   4.321  18.593  0.00  0.00    +0.000 NA
ATOM      2  H   UNL     1       6.733   3.701  19.269  0.00  0.00    +0.000 HD
ENDROOT
BRANCH   1   3
ATOM      3  C   UNL     1       7.295   4.735  17.616  0.00  0.00    +0.000 C 
BRANCH   3   7
ATOM      4  C   UNL     1       5.987   3.991  13.562  0.00  0.00    +0.000 A 
ATOM      5  C   UNL     1       5.273   3.470  14.644  0.00  0.00    +0.000 A 
ATOM      6  C   UNL     1       5.706   3.693  15.952  0.00  0.00    +0.000 A 
ATOM      7  C   UNL     1       6.865   4.438  16.201  0.00  0.00    +0.000 A 
ATOM      8  C   UNL     1       7.574   4.968  15.118  0.00  0.00    +0.000 A 
ATOM      9  C   UNL     1       7.142   4.754  13.799  0.00  0.00    +0.000 A 
ATOM     10  C   UNL     1       7.920   5.354  12.660  0.00  0.00    +0.000 C 
BRANCH   4  12
ATOM     11  C   UNL     1       5.607   2.489  11.752  0.00  0.00    +0.000 C 
ATOM     12  O   UNL     1       5.641   3.822  12.245  0.00  0.00    +0.000 OA
ENDBRANCH   4  12
ENDBRANCH   3   7
ENDBRANCH   1   3
BRANCH   1  13
ATOM     13  C   UNL     1       5.695   5.466  19.302  0.00  0.00    +0.000 C 
BRANCH  13  14
ATOM     14  C   UNL     1       4.420   5.983  18.622  0.00  0.00    +0.000 C 
BRANCH  14  15
ATOM     15  C   UNL     1       3.208   5.114  18.846  0.00  0.00    +0.000 A 
ATOM     16  C   UNL     1       2.572   4.503  17.753  0.00  0.00    +0.000 A 
ATOM     17  C   UNL     1       1.515   3.619  17.960  0.00  0.00    +0.000 A 
ATOM     18  C   UNL     1       1.089   3.353  19.255  0.00  0.00    +0.000 A 
ATOM     19  F   UNL     1       0.092   2.481  19.455  0.00  0.00    +0.000 F 
ATOM     20  C   UNL     1       1.688   3.970  20.347  0.00  0.00    +0.000 A 
ATOM     21  C   UNL     1       2.747   4.856  20.144  0.00  0.00    +0.000 A 
ENDBRANCH  14  15
ENDBRANCH  13  14
ENDBRANCH   1  13
TORSDOF 6
ENDMDL
MODEL 8
REMARK VINA RESULT:      -6.2      2.604      5.278
REMARK  Name = 
REMARK  8 active torsions:
REMARK  status: ('A' for Active; 'I' for Inactive)
REMARK    1  A    between atoms: C_1  and  O_2
REMARK    2  A    between atoms: O_2  and  C_3
REMARK    3  A    between atoms: C_6  and  C_7
REMARK    4  A    between atoms: C_7  and  N_8
REMARK    5  A    between atoms: N_8  and  C_9
REMARK    6  A    between atoms: C_9  and  C_10
REMARK    7  A    between atoms: C_10  and  C_11
REMARK    8  A    between atoms: C_19  and  C_20
REMARK                            x       y       z     vdW  Elec       q    Type
REMARK                         _______ _______ _______ _____ _____    ______ ____
ROOT
ATOM      1  N   UNL     1       3.049   3.792  17.536  0.00  0.00    +0.000 NA
ATOM      2  H   UNL     1       2.693   4.622  17.062  0.00  0.00    +0.000 HD
ENDROOT
BRANCH   1   3
ATOM      3  C   UNL     1       3.147   4.090  18.967  0.00  0.00    +0.000 C 
BRANCH   3   7
ATOM      4  C   UNL     1       1.584   7.992  19.984  0.00  0.00    +0.000 A 
ATOM      5  C   UNL     1       1.480   6.929  20.886  0.00  0.00    +0.000 A 
ATOM      6  C   UNL     1       1.966   5.665  20.550  0.00  0.00    +0.000 A 
ATOM      7  C   UNL     1       2.562   5.438  19.303  0.00  0.00    +0.000 A 
ATOM      8  C   UNL     1       2.675   6.505  18.405  0.00  0.00    +0.000 A 
ATOM      9  C   UNL     1       2.195   7.782  18.737  0.00  0.00    +0.000 A 
ATOM     10  C   UNL     1       2.350   8.909  17.752  0.00  0.00    +0.000 C 
BRANCH   4  12
ATOM     11  C   UNL     1       1.041   9.672  21.583  0.00  0.00    +0.000 C 
ATOM     12  O   UNL     1       1.134   9.265  20.224  0.00  0.00    +0.000 OA
ENDBRANCH   4  12
ENDBRANCH   3   7
ENDBRANCH   1   3
BRANCH   1  13
ATOM     13  C   UNL     1       4.348   3.420  16.955  0.00  0.00    +0.000 C 
BRANCH  13  14
ATOM     14  C   UNL     1       4.960   4.550  16.117  0.00  0.00    +0.000 C 
BRANCH  14  15
ATOM     15  C   UNL     1       6.020   5.345  16.836  0.00  0.00    +0.000 A 
ATOM     16  C   UNL     1       6.195   6.707  16.541  0.00  0.00    +0.000 A 
ATOM     17  C   UNL     1       7.102   7.472  17.272  0.00  0.00    +0.000 A 
ATOM     18  C   UNL     1       7.839   6.876  18.287  0.00  0.00    +0.000 A 
ATOM     19  F   UNL     1       8.689   7.618  19.008  0.00  0.00    +0.000 F 
ATOM     20  C   UNL     1       7.700   5.523  18.573  0.00  0.00    +0.000 A 
ATOM     21  C   UNL     1       6.792   4.753  17.845  0.00  0.00    +0.000 A 
ENDBRANCH  14  15
ENDBRANCH  13  14
ENDBRANCH   1  13
TORSDOF 6
ENDMDL
MODEL 9
REMARK VINA RESULT:      -6.2      1.681      2.887
REMARK  Name = 
REMARK  8 active torsions:
REMARK  status: ('A' for Active; 'I' for Inactive)
REMARK    1  A    between atoms: C_1  and  O_2
REMARK    2  A    between atoms: O_2  and  C_3
REMARK    3  A    between atoms: C_6  and  C_7
REMARK    4  A    between atoms: C_7  and  N_8
REMARK    5  A    between atoms: N_8  and  C_9
REMARK    6  A    between atoms: C_9  and  C_10
REMARK    7  A    between atoms: C_10  and  C_11
REMARK    8  A    between atoms: C_19  and  C_20
REMARK                            x       y       z     vdW  Elec       q    Type
REMARK                         _______ _______ _______ _____ _____    ______ ____
ROOT
ATOM      1  N   UNL     1       1.880   3.730  19.182  0.00  0.00    +0.000 NA
ATOM      2  H   UNL     1       1.220   2.982  18.967  0.00  0.00    +0.000 HD
ENDROOT
BRANCH   1   3
ATOM      3  C   UNL     1       3.186   3.125  19.453  0.00  0.00    +0.000 C 
BRANCH   3   7
ATOM      4  C   UNL     1       6.178   4.732  16.775  0.00  0.00    +0.000 A 
ATOM      5  C   UNL     1       5.075   4.036  16.270  0.00  0.00    +0.000 A 
ATOM      6  C   UNL     1       4.120   3.500  17.136  0.00  0.00    +0.000 A 
ATOM      7  C   UNL     1       4.252   3.646  18.522  0.00  0.00    +0.000 A 
ATOM      8  C   UNL     1       5.351   4.351  19.025  0.00  0.00    +0.000 A 
ATOM      9  C   UNL     1       6.313   4.899  18.162  0.00  0.00    +0.000 A 
ATOM     10  C   UNL     1       7.472   5.667  18.739  0.00  0.00    +0.000 C 
BRANCH   4  12
ATOM     11  C   UNL     1       7.226   4.889  14.642  0.00  0.00    +0.000 C 
ATOM     12  O   UNL     1       7.166   5.289  16.004  0.00  0.00    +0.000 OA
ENDBRANCH   4  12
ENDBRANCH   3   7
ENDBRANCH   1   3
BRANCH   1  13
ATOM     13  C   UNL     1       1.378   4.506  20.327  0.00  0.00    +0.000 C 
BRANCH  13  14
ATOM     14  C   UNL     1       2.299   5.678  20.690  0.00  0.00    +0.000 C 
BRANCH  14  15
ATOM     15  C   UNL     1       2.136   6.887  19.804  0.00  0.00    +0.000 A 
ATOM     16  C   UNL     1       1.468   8.024  20.286  0.00  0.00    +0.000 A 
ATOM     17  C   UNL     1       1.401   9.180  19.510  0.00  0.00    +0.000 A 
ATOM     18  C   UNL     1       1.993   9.196  18.254  0.00  0.00    +0.000 A 
ATOM     19  F   UNL     1       1.954  10.317  17.521  0.00  0.00    +0.000 F 
ATOM     20  C   UNL     1       2.634   8.071  17.749  0.00  0.00    +0.000 A 
ATOM     21  C   UNL     1       2.703   6.911  18.522  0.00  0.00    +0.000 A 
ENDBRANCH  14  15
ENDBRANCH  13  14
ENDBRANCH   1  13
TORSDOF 6
ENDMDL
