MODEL 1
REMARK VINA RESULT:      -8.0      0.000      0.000
REMARK  Name = 
REMARK  5 active torsions:
REMARK  status: ('A' for Active; 'I' for Inactive)
REMARK    1  A    between atoms: C_1  and  C_2
REMARK    2  A    between atoms: C_3  and  C_4
REMARK    3  A    between atoms: C_10  and  C_11
REMARK    4  A    between atoms: C_11  and  C_12
REMARK    5  A    between atoms: N_21  and  C_22
REMARK                            x       y       z     vdW  Elec       q    Type
REMARK                         _______ _______ _______ _____ _____    ______ ____
ROOT
ATOM      1  C   UNL     1       0.729   9.886  19.971  0.00  0.00    +0.000 C 
ATOM      2  O   UNL     1       0.585  10.351  18.839  0.00  0.00    +0.000 OA
ATOM      3  N   UNL     1       1.427   8.740  20.297  0.00  0.00    +0.000 N 
ATOM      4  C   UNL     1       2.075   7.974  19.366  0.00  0.00    +0.000 A 
ATOM      5  N   UNL     1       2.407   8.251  18.130  0.00  0.00    +0.000 NA
ATOM      6  C   UNL     1       2.963   7.129  17.538  0.00  0.00    +0.000 A 
ATOM      7  C   UNL     1       3.019   5.997  18.333  0.00  0.00    +0.000 A 
ATOM      8  S   UNL     1       2.458   6.399  19.910  0.00  0.00    +0.000 S 
ATOM      9  H   UNL     1       1.348   8.362  21.231  0.00  0.00    +0.000 HD
ENDROOT
BRANCH   1  12
ATOM     10  C   UNL     1      -0.990  12.780  20.280  0.00  0.00    +0.000 C 
ATOM     11  C   UNL     1      -0.668  11.686  21.234  0.00  0.00    +0.000 A 
ATOM     12  C   UNL     1       0.085  10.516  21.132  0.00  0.00    +0.000 A 
ATOM     13  N   UNL     1       0.224   9.971  22.390  0.00  0.00    +0.000 NA
ATOM     14  N   UNL     1      -0.366  10.772  23.256  0.00  0.00    +0.000 NA
ATOM     15  N   UNL     1      -1.019  11.742  22.580  0.00  0.00    +0.000 N 
BRANCH  15  16
ATOM     16  C   UNL     1      -1.896  12.621  23.262  0.00  0.00    +0.000 A 
ATOM     17  C   UNL     1      -3.218  12.219  23.492  0.00  0.00    +0.000 A 
ATOM     18  C   UNL     1      -4.095  13.062  24.177  0.00  0.00    +0.000 A 
ATOM     19  C   UNL     1      -3.668  14.322  24.598  0.00  0.00    +0.000 A 
ATOM     20  C   UNL     1      -2.367  14.741  24.337  0.00  0.00    +0.000 A 
ATOM     21  C   UNL     1      -1.479  13.894  23.673  0.00  0.00    +0.000 A 
ENDBRANCH  15  16
ENDBRANCH   1  12
BRANCH   7  22
ATOM     22  C   UNL     1       3.426   4.599  17.990  0.00  0.00    +0.000 C 
BRANCH  22  23
ATOM     23  C   UNL     1       4.789   4.493  17.346  0.00  0.00    +0.000 A 
ATOM     24  C   UNL     1       4.916   4.188  15.983  0.00  0.00    +0.000 A 
ATOM     25  C   UNL     1       6.176   4.127  15.385  0.00  0.00    +0.000 A 
ATOM     26  C   UNL     1       7.320   4.374  16.141  0.00  0.00    +0.000 A 
ATOM     27  C   UNL     1       7.206   4.666  17.498  0.00  0.00    +0.000 A 
ATOM     28  C   UNL     1       5.949   4.717  18.102  0.00  0.00    +0.000 A 
ENDBRANCH  22  23
ENDBRANCH   7  22
TORSDOF 4
ENDMDL
MODEL 2
REMARK VINA RESULT:      -7.9      3.472     10.436
REMARK  Name = 
REMARK  5 active torsions:
REMARK  status: ('A' for Active; 'I' for Inactive)
REMARK    1  A    between atoms: C_1  and  C_2
REMARK    2  A    between atoms: C_3  and  C_4
REMARK    3  A    between atoms: C_10  and  C_11
REMARK    4  A    between atoms: C_11  and  C_12
REMARK    5  A    between atoms: N_21  and  C_22
REMARK                            x       y       z     vdW  Elec       q    Type
REMARK                         _______ _______ _______ _____ _____    ______ ____
ROOT
ATOM      1  C   UNL     1       0.359  10.025  19.303  0.00  0.00    +0.000 C 
ATOM      2  O   UNL     1       0.505  10.524  20.420  0.00  0.00    +0.000 OA
ATOM      3  N   UNL     1      -0.704  10.241  18.448  0.00  0.00    +0.000 N 
ATOM      4  C   UNL     1      -1.745  11.077  18.750  0.00  0.00    +0.000 A 
ATOM      5  N   UNL     1      -1.844  11.996  19.678  0.00  0.00    +0.000 NA
ATOM      6  C   UNL     1      -3.126  12.522  19.670  0.00  0.00    +0.000 A 
ATOM      7  C   UNL     1      -3.996  11.969  18.747  0.00  0.00    +0.000 A 
ATOM      8  S   UNL     1      -3.134  10.832  17.785  0.00  0.00    +0.000 S 
ATOM      9  H   UNL     1      -0.804   9.659  17.626  0.00  0.00    +0.000 HD
ENDROOT
BRANCH   1  12
ATOM     10  C   UNL     1       1.703   7.240  20.666  0.00  0.00    +0.000 C 
ATOM     11  C   UNL     1       1.838   7.881  19.330  0.00  0.00    +0.000 A 
ATOM     12  C   UNL     1       1.332   9.057  18.777  0.00  0.00    +0.000 A 
ATOM     13  N   UNL     1       1.947   9.273  17.563  0.00  0.00    +0.000 NA
ATOM     14  N   UNL     1       2.833   8.314  17.372  0.00  0.00    +0.000 NA
ATOM     15  N   UNL     1       2.701   7.395  18.353  0.00  0.00    +0.000 N 
BRANCH  15  16
ATOM     16  C   UNL     1       3.400   6.165  18.277  0.00  0.00    +0.000 A 
ATOM     17  C   UNL     1       4.737   6.114  18.693  0.00  0.00    +0.000 A 
ATOM     18  C   UNL     1       5.438   4.909  18.640  0.00  0.00    +0.000 A 
ATOM     19  C   UNL     1       4.823   3.762  18.137  0.00  0.00    +0.000 A 
ATOM     20  C   UNL     1       3.508   3.816  17.687  0.00  0.00    +0.000 A 
ATOM     21  C   UNL     1       2.793   5.013  17.758  0.00  0.00    +0.000 A 
ENDBRANCH  15  16
ENDBRANCH   1  12
BRANCH   7  22
ATOM     22  C   UNL     1      -5.462  12.195  18.551  0.00  0.00    +0.000 C 
BRANCH  22  23
ATOM     23  C   UNL     1      -6.342  11.294  19.386  0.00  0.00    +0.000 A 
ATOM     24  C   UNL     1      -6.510   9.943  19.049  0.00  0.00    +0.000 A 
ATOM     25  C   UNL     1      -7.294   9.106  19.845  0.00  0.00    +0.000 A 
ATOM     26  C   UNL     1      -7.917   9.610  20.985  0.00  0.00    +0.000 A 
ATOM     27  C   UNL     1      -7.767  10.953  21.323  0.00  0.00    +0.000 A 
ATOM     28  C   UNL     1      -6.992  11.795  20.524  0.00  0.00    +0.000 A 
ENDBRANCH  22  23
ENDBRANCH   7  22
TORSDOF 4
ENDMDL
MODEL 3
REMARK VINA RESULT:      -7.8      3.529     10.450
REMARK  Name = 
REMARK  5 active torsions:
REMARK  status: ('A' for Active; 'I' for Inactive)
REMARK    1  A    between atoms: C_1  and  C_2
REMARK    2  A    between atoms: C_3  and  C_4
REMARK    3  A    between atoms: C_10  and  C_11
REMARK    4  A    between atoms: C_11  and  C_12
REMARK    5  A    between atoms: N_21  and  C_22
REMARK                            x       y       z     vdW  Elec       q    Type
REMARK                         _______ _______ _______ _____ _____    ______ ____
ROOT
ATOM      1  C   UNL     1       0.606   9.879  18.919  0.00  0.00    +0.000 C 
ATOM      2  O   UNL     1       0.716  10.523  19.963  0.00  0.00    +0.000 OA
ATOM      3  N   UNL     1      -0.447   9.946  18.028  0.00  0.00    +0.000 N 
ATOM      4  C   UNL     1      -1.518  10.779  18.204  0.00  0.00    +0.000 A 
ATOM      5  N   UNL     1      -1.664  11.807  19.002  0.00  0.00    +0.000 NA
ATOM      6  C   UNL     1      -2.960  12.285  18.908  0.00  0.00    +0.000 A 
ATOM      7  C   UNL     1      -3.795  11.588  18.053  0.00  0.00    +0.000 A 
ATOM      8  S   UNL     1      -2.881  10.365  17.259  0.00  0.00    +0.000 S 
ATOM      9  H   UNL     1      -0.513   9.260  17.288  0.00  0.00    +0.000 HD
ENDROOT
BRANCH   1  12
ATOM     10  C   UNL     1       1.697   7.086  20.480  0.00  0.00    +0.000 C 
ATOM     11  C   UNL     1       2.021   7.705  19.167  0.00  0.00    +0.000 A 
ATOM     12  C   UNL     1       1.619   8.884  18.538  0.00  0.00    +0.000 A 
ATOM     13  N   UNL     1       2.394   9.069  17.414  0.00  0.00    +0.000 NA
ATOM     14  N   UNL     1       3.275   8.091  17.353  0.00  0.00    +0.000 NA
ATOM     15  N   UNL     1       2.995   7.188  18.318  0.00  0.00    +0.000 N 
BRANCH  15  16
ATOM     16  C   UNL     1       3.670   5.943  18.349  0.00  0.00    +0.000 A 
ATOM     17  C   UNL     1       3.098   4.843  17.694  0.00  0.00    +0.000 A 
ATOM     18  C   UNL     1       3.754   3.612  17.698  0.00  0.00    +0.000 A 
ATOM     19  C   UNL     1       4.958   3.461  18.386  0.00  0.00    +0.000 A 
ATOM     20  C   UNL     1       5.510   4.540  19.070  0.00  0.00    +0.000 A 
ATOM     21  C   UNL     1       4.871   5.781  19.051  0.00  0.00    +0.000 A 
ENDBRANCH  15  16
ENDBRANCH   1  12
BRANCH   7  22
ATOM     22  C   UNL     1      -5.264  11.738  17.808  0.00  0.00    +0.000 C 
BRANCH  22  23
ATOM     23  C   UNL     1      -6.131  11.293  18.963  0.00  0.00    +0.000 A 
ATOM     24  C   UNL     1      -6.501  12.197  19.970  0.00  0.00    +0.000 A 
ATOM     25  C   UNL     1      -7.332  11.791  21.016  0.00  0.00    +0.000 A 
ATOM     26  C   UNL     1      -7.804  10.481  21.065  0.00  0.00    +0.000 A 
ATOM     27  C   UNL     1      -7.432   9.571  20.076  0.00  0.00    +0.000 A 
ATOM     28  C   UNL     1      -6.593   9.971  19.035  0.00  0.00    +0.000 A 
ENDBRANCH  22  23
ENDBRANCH   7  22
TORSDOF 4
ENDMDL
MODEL 4
REMARK VINA RESULT:      -7.7      2.693      4.044
REMARK  Name = 
REMARK  5 active torsions:
REMARK  status: ('A' for Active; 'I' for Inactive)
REMARK    1  A    between atoms: C_1  and  C_2
REMARK    2  A    between atoms: C_3  and  C_4
REMARK    3  A    between atoms: C_10  and  C_11
REMARK    4  A    between atoms: C_11  and  C_12
REMARK    5  A    between atoms: N_21  and  C_22
REMARK                            x       y       z     vdW  Elec       q    Type
REMARK                         _______ _______ _______ _____ _____    ______ ____
ROOT
ATOM      1  C   UNL     1       2.289   6.789  19.570  0.00  0.00    +0.000 C 
ATOM      2  O   UNL     1       2.064   5.712  20.124  0.00  0.00    +0.000 OA
ATOM      3  N   UNL     1       3.166   6.998  18.523  0.00  0.00    +0.000 N 
ATOM      4  C   UNL     1       3.896   5.991  17.952  0.00  0.00    +0.000 A 
ATOM      5  N   UNL     1       3.753   4.692  18.040  0.00  0.00    +0.000 NA
ATOM      6  C   UNL     1       4.791   4.067  17.368  0.00  0.00    +0.000 A 
ATOM      7  C   UNL     1       5.730   4.909  16.799  0.00  0.00    +0.000 A 
ATOM      8  S   UNL     1       5.222   6.538  17.022  0.00  0.00    +0.000 S 
ATOM      9  H   UNL     1       3.394   7.945  18.250  0.00  0.00    +0.000 HD
ENDROOT
BRANCH   1  12
ATOM     10  C   UNL     1       1.493   9.649  17.955  0.00  0.00    +0.000 C 
ATOM     11  C   UNL     1       1.279   9.180  19.350  0.00  0.00    +0.000 A 
ATOM     12  C   UNL     1       1.651   8.026  20.040  0.00  0.00    +0.000 A 
ATOM     13  N   UNL     1       1.371   8.204  21.378  0.00  0.00    +0.000 NA
ATOM     14  N   UNL     1       0.892   9.422  21.542  0.00  0.00    +0.000 NA
ATOM     15  N   UNL     1       0.706   9.986  20.328  0.00  0.00    +0.000 N 
BRANCH  15  16
ATOM     16  C   UNL     1       0.018  11.219  20.212  0.00  0.00    +0.000 A 
ATOM     17  C   UNL     1       0.661  12.397  20.615  0.00  0.00    +0.000 A 
ATOM     18  C   UNL     1       0.007  13.624  20.494  0.00  0.00    +0.000 A 
ATOM     19  C   UNL     1      -1.301  13.677  20.012  0.00  0.00    +0.000 A 
ATOM     20  C   UNL     1      -1.957  12.505  19.647  0.00  0.00    +0.000 A 
ATOM     21  C   UNL     1      -1.301  11.277  19.744  0.00  0.00    +0.000 A 
ENDBRANCH  15  16
ENDBRANCH   1  12
BRANCH   7  22
ATOM     22  C   UNL     1       7.027   4.588  16.124  0.00  0.00    +0.000 C 
BRANCH  22  23
ATOM     23  C   UNL     1       6.932   4.486  14.620  0.00  0.00    +0.000 A 
ATOM     24  C   UNL     1       7.750   5.273  13.795  0.00  0.00    +0.000 A 
ATOM     25  C   UNL     1       7.684   5.149  12.406  0.00  0.00    +0.000 A 
ATOM     26  C   UNL     1       6.804   4.237  11.828  0.00  0.00    +0.000 A 
ATOM     27  C   UNL     1       5.978   3.459  12.637  0.00  0.00    +0.000 A 
ATOM     28  C   UNL     1       6.034   3.588  14.026  0.00  0.00    +0.000 A 
ENDBRANCH  22  23
ENDBRANCH   7  22
TORSDOF 4
ENDMDL
MODEL 5
REMARK VINA RESULT:      -7.7      3.334      4.252
REMARK  Name = 
REMARK  5 active torsions:
REMARK  status: ('A' for Active; 'I' for Inactive)
REMARK    1  A    between atoms: C_1  and  C_2
REMARK    2  A    between atoms: C_3  and  C_4
REMARK    3  A    between atoms: C_10  and  C_11
REMARK    4  A    between atoms: C_11  and  C_12
REMARK    5  A    between atoms: N_21  and  C_22
REMARK                            x       y       z     vdW  Elec       q    Type
REMARK                         _______ _______ _______ _____ _____    ______ ____
ROOT
ATOM      1  C   UNL     1      -1.278  11.072  18.674  0.00  0.00    +0.000 C 
ATOM      2  O   UNL     1      -1.307  10.986  17.446  0.00  0.00    +0.000 OA
ATOM      3  N   UNL     1      -0.386  10.434  19.514  0.00  0.00    +0.000 N 
ATOM      4  C   UNL     1       0.613   9.618  19.057  0.00  0.00    +0.000 A 
ATOM      5  N   UNL     1       1.104   9.482  17.850  0.00  0.00    +0.000 NA
ATOM      6  C   UNL     1       2.040   8.461  17.846  0.00  0.00    +0.000 A 
ATOM      7  C   UNL     1       2.227   7.813  19.053  0.00  0.00    +0.000 A 
ATOM      8  S   UNL     1       1.275   8.595  20.255  0.00  0.00    +0.000 S 
ATOM      9  H   UNL     1      -0.550  10.447  20.512  0.00  0.00    +0.000 HD
ENDROOT
BRANCH   1  12
ATOM     10  C   UNL     1      -4.566  11.585  18.086  0.00  0.00    +0.000 C 
ATOM     11  C   UNL     1      -3.651  12.022  19.175  0.00  0.00    +0.000 A 
ATOM     12  C   UNL     1      -2.284  11.862  19.398  0.00  0.00    +0.000 A 
ATOM     13  N   UNL     1      -1.917  12.653  20.465  0.00  0.00    +0.000 NA
ATOM     14  N   UNL     1      -2.980  13.320  20.871  0.00  0.00    +0.000 NA
ATOM     15  N   UNL     1      -4.062  12.868  20.200  0.00  0.00    +0.000 N 
BRANCH  15  16
ATOM     16  C   UNL     1      -5.362  13.279  20.584  0.00  0.00    +0.000 A 
ATOM     17  C   UNL     1      -5.783  14.580  20.276  0.00  0.00    +0.000 A 
ATOM     18  C   UNL     1      -7.066  15.000  20.631  0.00  0.00    +0.000 A 
ATOM     19  C   UNL     1      -7.917  14.141  21.327  0.00  0.00    +0.000 A 
ATOM     20  C   UNL     1      -7.489  12.861  21.668  0.00  0.00    +0.000 A 
ATOM     21  C   UNL     1      -6.216  12.427  21.296  0.00  0.00    +0.000 A 
ENDBRANCH  15  16
ENDBRANCH   1  12
BRANCH   7  22
ATOM     22  C   UNL     1       3.045   6.603  19.380  0.00  0.00    +0.000 C 
BRANCH  22  23
ATOM     23  C   UNL     1       2.259   5.312  19.390  0.00  0.00    +0.000 A 
ATOM     24  C   UNL     1       2.075   4.576  18.211  0.00  0.00    +0.000 A 
ATOM     25  C   UNL     1       1.380   3.365  18.232  0.00  0.00    +0.000 A 
ATOM     26  C   UNL     1       0.865   2.877  19.431  0.00  0.00    +0.000 A 
ATOM     27  C   UNL     1       1.032   3.606  20.607  0.00  0.00    +0.000 A 
ATOM     28  C   UNL     1       1.717   4.822  20.587  0.00  0.00    +0.000 A 
ENDBRANCH  22  23
ENDBRANCH   7  22
TORSDOF 4
ENDMDL
MODEL 6
REMARK VINA RESULT:      -7.7      2.202      3.656
REMARK  Name = 
REMARK  5 active torsions:
REMARK  status: ('A' for Active; 'I' for Inactive)
REMARK    1  A    between atoms: C_1  and  C_2
REMARK    2  A    between atoms: C_3  and  C_4
REMARK    3  A    between atoms: C_10  and  C_11
REMARK    4  A    between atoms: C_11  and  C_12
REMARK    5  A    between atoms: N_21  and  C_22
REMARK                            x       y       z     vdW  Elec       q    Type
REMARK                         _______ _______ _______ _____ _____    ______ ____
ROOT
ATOM      1  C   UNL     1       2.275   7.520  19.195  0.00  0.00    +0.000 C 
ATOM      2  O   UNL     1       2.195   6.664  20.077  0.00  0.00    +0.000 OA
ATOM      3  N   UNL     1       3.070   7.456  18.067  0.00  0.00    +0.000 N 
ATOM      4  C   UNL     1       3.876   6.387  17.786  0.00  0.00    +0.000 A 
ATOM      5  N   UNL     1       3.880   5.178  18.290  0.00  0.00    +0.000 NA
ATOM      6  C   UNL     1       4.944   4.463  17.768  0.00  0.00    +0.000 A 
ATOM      7  C   UNL     1       5.757   5.154  16.888  0.00  0.00    +0.000 A 
ATOM      8  S   UNL     1       5.087   6.718  16.626  0.00  0.00    +0.000 S 
ATOM      9  H   UNL     1       3.181   8.281  17.492  0.00  0.00    +0.000 HD
ENDROOT
BRANCH   1  12
ATOM     10  C   UNL     1       0.050   8.619  21.490  0.00  0.00    +0.000 C 
ATOM     11  C   UNL     1       0.655   9.246  20.283  0.00  0.00    +0.000 A 
ATOM     12  C   UNL     1       1.530   8.783  19.301  0.00  0.00    +0.000 A 
ATOM     13  N   UNL     1       1.596   9.721  18.294  0.00  0.00    +0.000 NA
ATOM     14  N   UNL     1       0.772  10.706  18.591  0.00  0.00    +0.000 NA
ATOM     15  N   UNL     1       0.289  10.512  19.837  0.00  0.00    +0.000 N 
BRANCH  15  16
ATOM     16  C   UNL     1      -0.467  11.526  20.476  0.00  0.00    +0.000 A 
ATOM     17  C   UNL     1      -1.694  11.913  19.920  0.00  0.00    +0.000 A 
ATOM     18  C   UNL     1      -2.461  12.899  20.542  0.00  0.00    +0.000 A 
ATOM     19  C   UNL     1      -1.991  13.528  21.695  0.00  0.00    +0.000 A 
ATOM     20  C   UNL     1      -0.756  13.174  22.229  0.00  0.00    +0.000 A 
ATOM     21  C   UNL     1       0.006  12.173  21.625  0.00  0.00    +0.000 A 
ENDBRANCH  15  16
ENDBRANCH   1  12
BRANCH   7  22
ATOM     22  C   UNL     1       7.047   4.748  16.245  0.00  0.00    +0.000 C 
BRANCH  22  23
ATOM     23  C   UNL     1       6.955   4.548  14.750  0.00  0.00    +0.000 A 
ATOM     24  C   UNL     1       6.019   3.659  14.202  0.00  0.00    +0.000 A 
ATOM     25  C   UNL     1       5.913   3.506  12.818  0.00  0.00    +0.000 A 
ATOM     26  C   UNL     1       6.739   4.240  11.970  0.00  0.00    +0.000 A 
ATOM     27  C   UNL     1       7.681   5.117  12.504  0.00  0.00    +0.000 A 
ATOM     28  C   UNL     1       7.796   5.265  13.887  0.00  0.00    +0.000 A 
ENDBRANCH  22  23
ENDBRANCH   7  22
TORSDOF 4
ENDMDL
MODEL 7
REMARK VINA RESULT:      -7.7      2.120      3.718
REMARK  Name = 
REMARK  5 active torsions:
REMARK  status: ('A' for Active; 'I' for Inactive)
REMARK    1  A    between atoms: C_1  and  C_2
REMARK    2  A    between atoms: C_3  and  C_4
REMARK    3  A    between atoms: C_10  and  C_11
REMARK    4  A    between atoms: C_11  and  C_12
REMARK    5  A    between atoms: N_21  and  C_22
REMARK                            x       y       z     vdW  Elec       q    Type
REMARK                         _______ _______ _______ _____ _____    ______ ____
ROOT
ATOM      1  C   UNL     1       2.260   7.438  19.293  0.00  0.00    +0.000 C 
ATOM      2  O   UNL     1       2.230   6.586  20.183  0.00  0.00    +0.000 OA
ATOM      3  N   UNL     1       3.026   7.390  18.145  0.00  0.00    +0.000 N 
ATOM      4  C   UNL     1       3.857   6.343  17.849  0.00  0.00    +0.000 A 
ATOM      5  N   UNL     1       3.912   5.139  18.362  0.00  0.00    +0.000 NA
ATOM      6  C   UNL     1       4.984   4.454  17.816  0.00  0.00    +0.000 A 
ATOM      7  C   UNL     1       5.751   5.163  16.909  0.00  0.00    +0.000 A 
ATOM      8  S   UNL     1       5.026   6.703  16.655  0.00  0.00    +0.000 S 
ATOM      9  H   UNL     1       3.096   8.213  17.562  0.00  0.00    +0.000 HD
ENDROOT
BRANCH   1  12
ATOM     10  C   UNL     1       0.048   8.476  21.628  0.00  0.00    +0.000 C 
ATOM     11  C   UNL     1       0.610   9.117  20.409  0.00  0.00    +0.000 A 
ATOM     12  C   UNL     1       1.479   8.677  19.411  0.00  0.00    +0.000 A 
ATOM     13  N   UNL     1       1.497   9.614  18.400  0.00  0.00    +0.000 NA
ATOM     14  N   UNL     1       0.649  10.575  18.711  0.00  0.00    +0.000 NA
ATOM     15  N   UNL     1       0.196  10.369  19.967  0.00  0.00    +0.000 N 
BRANCH  15  16
ATOM     16  C   UNL     1      -0.577  11.362  20.618  0.00  0.00    +0.000 A 
ATOM     17  C   UNL     1      -0.306  11.663  21.960  0.00  0.00    +0.000 A 
ATOM     18  C   UNL     1      -1.045  12.649  22.616  0.00  0.00    +0.000 A 
ATOM     19  C   UNL     1      -2.080  13.308  21.950  0.00  0.00    +0.000 A 
ATOM     20  C   UNL     1      -2.377  12.985  20.630  0.00  0.00    +0.000 A 
ATOM     21  C   UNL     1      -1.627  12.016  19.961  0.00  0.00    +0.000 A 
ENDBRANCH  15  16
ENDBRANCH   1  12
BRANCH   7  22
ATOM     22  C   UNL     1       7.035   4.792  16.235  0.00  0.00    +0.000 C 
BRANCH  22  23
ATOM     23  C   UNL     1       6.915   4.599  14.741  0.00  0.00    +0.000 A 
ATOM     24  C   UNL     1       7.743   5.308  13.858  0.00  0.00    +0.000 A 
ATOM     25  C   UNL     1       7.653   5.100  12.481  0.00  0.00    +0.000 A 
ATOM     26  C   UNL     1       6.738   4.181  11.972  0.00  0.00    +0.000 A 
ATOM     27  C   UNL     1       5.902   3.480  12.839  0.00  0.00    +0.000 A 
ATOM     28  C   UNL     1       5.982   3.693  14.216  0.00  0.00    +0.000 A 
ENDBRANCH  22  23
ENDBRANCH   7  22
TORSDOF 4
ENDMDL
MODEL 8
REMARK VINA RESULT:      -7.7      0.914      1.541
REMARK  Name = 
REMARK  5 active torsions:
REMARK  status: ('A' for Active; 'I' for Inactive)
REMARK    1  A    between atoms: C_1  and  C_2
REMARK    2  A    between atoms: C_3  and  C_4
REMARK    3  A    between atoms: C_10  and  C_11
REMARK    4  A    between atoms: C_11  and  C_12
REMARK    5  A    between atoms: N_21  and  C_22
REMARK                            x       y       z     vdW  Elec       q    Type
REMARK                         _______ _______ _______ _____ _____    ______ ____
ROOT
ATOM      1  C   UNL     1       0.538  10.481  19.688  0.00  0.00    +0.000 C 
ATOM      2  O   UNL     1       0.510  10.912  18.535  0.00  0.00    +0.000 OA
ATOM      3  N   UNL     1       1.168   9.327  20.111  0.00  0.00    +0.000 N 
ATOM      4  C   UNL     1       1.872   8.512  19.266  0.00  0.00    +0.000 A 
ATOM      5  N   UNL     1       2.321   8.738  18.057  0.00  0.00    +0.000 NA
ATOM      6  C   UNL     1       2.892   7.581  17.553  0.00  0.00    +0.000 A 
ATOM      7  C   UNL     1       2.842   6.476  18.384  0.00  0.00    +0.000 A 
ATOM      8  S   UNL     1       2.156   6.946  19.891  0.00  0.00    +0.000 S 
ATOM      9  H   UNL     1       0.995   8.982  21.046  0.00  0.00    +0.000 HD
ENDROOT
BRANCH   1  12
ATOM     10  C   UNL     1      -2.356  12.227  19.681  0.00  0.00    +0.000 C 
ATOM     11  C   UNL     1      -1.409  11.839  20.761  0.00  0.00    +0.000 A 
ATOM     12  C   UNL     1      -0.186  11.168  20.767  0.00  0.00    +0.000 A 
ATOM     13  N   UNL     1       0.364  11.267  22.026  0.00  0.00    +0.000 NA
ATOM     14  N   UNL     1      -0.438  12.003  22.772  0.00  0.00    +0.000 NA
ATOM     15  N   UNL     1      -1.570  12.254  22.079  0.00  0.00    +0.000 N 
BRANCH  15  16
ATOM     16  C   UNL     1      -2.679  12.859  22.721  0.00  0.00    +0.000 A 
ATOM     17  C   UNL     1      -2.986  14.196  22.431  0.00  0.00    +0.000 A 
ATOM     18  C   UNL     1      -4.084  14.806  23.040  0.00  0.00    +0.000 A 
ATOM     19  C   UNL     1      -4.853  14.101  23.966  0.00  0.00    +0.000 A 
ATOM     20  C   UNL     1      -4.528  12.786  24.286  0.00  0.00    +0.000 A 
ATOM     21  C   UNL     1      -3.446  12.163  23.664  0.00  0.00    +0.000 A 
ENDBRANCH  15  16
ENDBRANCH   1  12
BRANCH   7  22
ATOM     22  C   UNL     1       3.233   5.055  18.122  0.00  0.00    +0.000 C 
BRANCH  22  23
ATOM     23  C   UNL     1       4.656   4.887  17.639  0.00  0.00    +0.000 A 
ATOM     24  C   UNL     1       5.738   5.163  18.489  0.00  0.00    +0.000 A 
ATOM     25  C   UNL     1       7.049   4.970  18.051  0.00  0.00    +0.000 A 
ATOM     26  C   UNL     1       7.293   4.497  16.763  0.00  0.00    +0.000 A 
ATOM     27  C   UNL     1       6.226   4.231  15.907  0.00  0.00    +0.000 A 
ATOM     28  C   UNL     1       4.914   4.433  16.338  0.00  0.00    +0.000 A 
ENDBRANCH  22  23
ENDBRANCH   7  22
TORSDOF 4
ENDMDL
MODEL 9
REMARK VINA RESULT:      -7.6      2.808      4.170
REMARK  Name = 
REMARK  5 active torsions:
REMARK  status: ('A' for Active; 'I' for Inactive)
REMARK    1  A    between atoms: C_1  and  C_2
REMARK    2  A    between atoms: C_3  and  C_4
REMARK    3  A    between atoms: C_10  and  C_11
REMARK    4  A    between atoms: C_11  and  C_12
REMARK    5  A    between atoms: N_21  and  C_22
REMARK                            x       y       z     vdW  Elec       q    Type
REMARK                         _______ _______ _______ _____ _____    ______ ____
ROOT
ATOM      1  C   UNL     1       2.536   6.671  19.550  0.00  0.00    +0.000 C 
ATOM      2  O   UNL     1       2.582   5.655  20.245  0.00  0.00    +0.000 OA
ATOM      3  N   UNL     1       3.220   6.881  18.368  0.00  0.00    +0.000 N 
ATOM      4  C   UNL     1       4.043   5.941  17.808  0.00  0.00    +0.000 A 
ATOM      5  N   UNL     1       4.152   4.660  18.058  0.00  0.00    +0.000 NA
ATOM      6  C   UNL     1       5.192   4.132  17.312  0.00  0.00    +0.000 A 
ATOM      7  C   UNL     1       5.883   5.033  16.522  0.00  0.00    +0.000 A 
ATOM      8  S   UNL     1       5.119   6.571  16.639  0.00  0.00    +0.000 S 
ATOM      9  H   UNL     1       3.236   7.807  17.963  0.00  0.00    +0.000 HD
ENDROOT
BRANCH   1  12
ATOM     10  C   UNL     1       1.955   9.641  18.045  0.00  0.00    +0.000 C 
ATOM     11  C   UNL     1       1.471   9.037  19.316  0.00  0.00    +0.000 A 
ATOM     12  C   UNL     1       1.747   7.837  19.971  0.00  0.00    +0.000 A 
ATOM     13  N   UNL     1       1.179   7.881  21.226  0.00  0.00    +0.000 NA
ATOM     14  N   UNL     1       0.613   9.061  21.383  0.00  0.00    +0.000 NA
ATOM     15  N   UNL     1       0.661   9.729  20.210  0.00  0.00    +0.000 N 
BRANCH  15  16
ATOM     16  C   UNL     1      -0.051  10.944  20.051  0.00  0.00    +0.000 A 
ATOM     17  C   UNL     1      -1.255  10.938  19.334  0.00  0.00    +0.000 A 
ATOM     18  C   UNL     1      -1.980  12.120  19.179  0.00  0.00    +0.000 A 
ATOM     19  C   UNL     1      -1.488  13.317  19.702  0.00  0.00    +0.000 A 
ATOM     20  C   UNL     1      -0.274  13.335  20.381  0.00  0.00    +0.000 A 
ATOM     21  C   UNL     1       0.445  12.152  20.559  0.00  0.00    +0.000 A 
ENDBRANCH  15  16
ENDBRANCH   1  12
BRANCH   7  22
ATOM     22  C   UNL     1       7.121   4.845  15.703  0.00  0.00    +0.000 C 
BRANCH  22  23
ATOM     23  C   UNL     1       6.856   4.507  14.253  0.00  0.00    +0.000 A 
ATOM     24  C   UNL     1       7.682   5.012  13.238  0.00  0.00    +0.000 A 
ATOM     25  C   UNL     1       7.456   4.668  11.904  0.00  0.00    +0.000 A 
ATOM     26  C   UNL     1       6.405   3.814  11.572  0.00  0.00    +0.000 A 
ATOM     27  C   UNL     1       5.571   3.317  12.571  0.00  0.00    +0.000 A 
ATOM     28  C   UNL     1       5.789   3.668  13.905  0.00  0.00    +0.000 A 
ENDBRANCH  22  23
ENDBRANCH   7  22
TORSDOF 4
ENDMDL
