MODEL 1
REMARK VINA RESULT:      -9.0      0.000      0.000
REMARK  Name = 
REMARK  5 active torsions:
REMARK  status: ('A' for Active; 'I' for Inactive)
REMARK    1  A    between atoms: C_2  and  C_3
REMARK    2  A    between atoms: C_8  and  N_9
REMARK    3  A    between atoms: C_11  and  C_12
REMARK    4  A    between atoms: N_16  and  C_17
REMARK    5  A    between atoms: C_23  and  O_24
REMARK                            x       y       z     vdW  Elec       q    Type
REMARK                         _______ _______ _______ _____ _____    ______ ____
ROOT
ATOM      1  N   UNL     1       4.306   5.365  19.189  0.00  0.00    +0.000 N 
ATOM      2  C   UNL     1       3.893   4.203  19.763  0.00  0.00    +0.000 A 
ATOM      3  C   UNL     1       2.664   4.475  20.345  0.00  0.00    +0.000 A 
ATOM      4  C   UNL     1       2.440   5.861  20.076  0.00  0.00    +0.000 A 
ATOM      5  N   UNL     1       1.386   6.571  20.561  0.00  0.00    +0.000 N 
ATOM      6  N   UNL     1       3.444   6.362  19.356  0.00  0.00    +0.000 NA
ATOM      7  H   UNL     1       0.685   6.046  21.081  0.00  0.00    +0.000 HD
ENDROOT
BRANCH   5   8
ATOM      8  C   UNL     1       1.275   7.975  20.740  0.00  0.00    +0.000 A 
ATOM      9  C   UNL     1       1.107   8.579  22.006  0.00  0.00    +0.000 A 
ATOM     10  C   UNL     1       0.840   9.944  22.149  0.00  0.00    +0.000 A 
ATOM     11  C   UNL     1       0.757  10.693  20.996  0.00  0.00    +0.000 A 
ATOM     12  C   UNL     1       0.934  10.159  19.728  0.00  0.00    +0.000 A 
ATOM     13  C   UNL     1       1.208   8.796  19.599  0.00  0.00    +0.000 A 
ATOM     14  C   UNL     1       0.762  11.128  18.597  0.00  0.00    +0.000 C 
ATOM     15  C   UNL     1       0.461  12.527  19.146  0.00  0.00    +0.000 C 
ATOM     16  S   UNL     1       0.386  12.396  20.927  0.00  0.00    +0.000 S 
ATOM     17  O   UNL     1       1.498  13.115  21.510  0.00  0.00    +0.000 OA
ATOM     18  O   UNL     1      -0.983  12.563  21.366  0.00  0.00    +0.000 OA
BRANCH  14  19
ATOM     19  O   UNL     1      -0.309  10.708  17.756  0.00  0.00    +0.000 OA
ATOM     20  H   UNL     1      -0.414  11.356  17.035  0.00  0.00    +0.000 HD
ENDBRANCH  14  19
ENDBRANCH   5   8
BRANCH   1  26
ATOM     21  C   UNL     1       5.490   6.840  17.578  0.00  0.00    +0.000 C 
ATOM     22  C   UNL     1       4.779   6.539  16.250  0.00  0.00    +0.000 C 
ATOM     23  C   UNL     1       5.301   5.285  15.551  0.00  0.00    +0.000 C 
ATOM     24  C   UNL     1       5.405   4.066  16.462  0.00  0.00    +0.000 C 
ATOM     25  C   UNL     1       6.104   4.361  17.788  0.00  0.00    +0.000 C 
ATOM     26  C   UNL     1       5.578   5.614  18.509  0.00  0.00    +0.000 C 
BRANCH  21  28
ATOM     27  N   UNL     1       7.908   7.780  17.118  0.00  0.00    +0.000 NA
ATOM     28  C   UNL     1       6.854   7.351  17.319  0.00  0.00    +0.000 C 
ENDBRANCH  21  28
ENDBRANCH   1  26
BRANCH   3  29
ATOM     29  C   UNL     1       1.828   3.564  21.100  0.00  0.00    +0.000 C 
ATOM     30  N   UNL     1       0.671   3.165  20.486  0.00  0.00    +0.000 N 
ATOM     31  O   UNL     1       2.126   3.144  22.214  0.00  0.00    +0.000 OA
ATOM     32  H   UNL     1       0.469   3.366  19.519  0.00  0.00    +0.000 HD
ATOM     33  H   UNL     1       0.094   2.489  20.964  0.00  0.00    +0.000 HD
ENDBRANCH   3  29
TORSDOF 5
ENDMDL
MODEL 2
REMARK VINA RESULT:      -8.4      0.991      1.926
REMARK  Name = 
REMARK  5 active torsions:
REMARK  status: ('A' for Active; 'I' for Inactive)
REMARK    1  A    between atoms: C_2  and  C_3
REMARK    2  A    between atoms: C_8  and  N_9
REMARK    3  A    between atoms: C_11  and  C_12
REMARK    4  A    between atoms: N_16  and  C_17
REMARK    5  A    between atoms: C_23  and  O_24
REMARK                            x       y       z     vdW  Elec       q    Type
REMARK                         _______ _______ _______ _____ _____    ______ ____
ROOT
ATOM      1  N   UNL     1       4.410   5.281  19.136  0.00  0.00    +0.000 N 
ATOM      2  C   UNL     1       4.107   4.150  19.829  0.00  0.00    +0.000 A 
ATOM      3  C   UNL     1       2.830   4.337  20.337  0.00  0.00    +0.000 A 
ATOM      4  C   UNL     1       2.461   5.648  19.900  0.00  0.00    +0.000 A 
ATOM      5  N   UNL     1       1.311   6.277  20.266  0.00  0.00    +0.000 N 
ATOM      6  N   UNL     1       3.432   6.181  19.158  0.00  0.00    +0.000 NA
ATOM      7  H   UNL     1       0.653   5.734  20.823  0.00  0.00    +0.000 HD
ENDROOT
BRANCH   5   8
ATOM      8  C   UNL     1       1.032   7.669  20.276  0.00  0.00    +0.000 A 
ATOM      9  C   UNL     1       1.557   8.568  19.321  0.00  0.00    +0.000 A 
ATOM     10  C   UNL     1       1.403   9.952  19.440  0.00  0.00    +0.000 A 
ATOM     11  C   UNL     1       0.699  10.416  20.529  0.00  0.00    +0.000 A 
ATOM     12  C   UNL     1       0.142   9.580  21.486  0.00  0.00    +0.000 A 
ATOM     13  C   UNL     1       0.297   8.200  21.353  0.00  0.00    +0.000 A 
ATOM     14  C   UNL     1      -0.549  10.279  22.619  0.00  0.00    +0.000 C 
ATOM     15  C   UNL     1      -0.500  11.796  22.409  0.00  0.00    +0.000 C 
ATOM     16  S   UNL     1       0.424  12.096  20.908  0.00  0.00    +0.000 S 
ATOM     17  O   UNL     1      -0.460  12.638  19.898  0.00  0.00    +0.000 OA
ATOM     18  O   UNL     1       1.703  12.686  21.239  0.00  0.00    +0.000 OA
BRANCH  14  19
ATOM     19  O   UNL     1       0.086   9.950  23.852  0.00  0.00    +0.000 OA
ATOM     20  H   UNL     1       1.006  10.272  23.825  0.00  0.00    +0.000 HD
ENDBRANCH  14  19
ENDBRANCH   5   8
BRANCH   1  26
ATOM     21  C   UNL     1       5.532   6.833  17.553  0.00  0.00    +0.000 C 
ATOM     22  C   UNL     1       4.848   6.514  16.216  0.00  0.00    +0.000 C 
ATOM     23  C   UNL     1       5.439   5.295  15.507  0.00  0.00    +0.000 C 
ATOM     24  C   UNL     1       5.596   4.073  16.405  0.00  0.00    +0.000 C 
ATOM     25  C   UNL     1       6.268   4.386  17.741  0.00  0.00    +0.000 C 
ATOM     26  C   UNL     1       5.673   5.602  18.471  0.00  0.00    +0.000 C 
BRANCH  21  28
ATOM     27  N   UNL     1       7.904   7.889  17.103  0.00  0.00    +0.000 NA
ATOM     28  C   UNL     1       6.870   7.416  17.314  0.00  0.00    +0.000 C 
ENDBRANCH  21  28
ENDBRANCH   1  26
BRANCH   3  29
ATOM     29  C   UNL     1       2.071   3.424  21.168  0.00  0.00    +0.000 C 
ATOM     30  N   UNL     1       0.858   3.033  20.671  0.00  0.00    +0.000 N 
ATOM     31  O   UNL     1       2.479   2.996  22.242  0.00  0.00    +0.000 OA
ATOM     32  H   UNL     1       0.560   3.240  19.731  0.00  0.00    +0.000 HD
ATOM     33  H   UNL     1       0.330   2.355  21.201  0.00  0.00    +0.000 HD
ENDBRANCH   3  29
TORSDOF 5
ENDMDL
MODEL 3
REMARK VINA RESULT:      -8.4      1.692      2.760
REMARK  Name = 
REMARK  5 active torsions:
REMARK  status: ('A' for Active; 'I' for Inactive)
REMARK    1  A    between atoms: C_2  and  C_3
REMARK    2  A    between atoms: C_8  and  N_9
REMARK    3  A    between atoms: C_11  and  C_12
REMARK    4  A    between atoms: N_16  and  C_17
REMARK    5  A    between atoms: C_23  and  O_24
REMARK                            x       y       z     vdW  Elec       q    Type
REMARK                         _______ _______ _______ _____ _____    ______ ____
ROOT
ATOM      1  N   UNL     1       3.880   4.886  17.915  0.00  0.00    +0.000 N 
ATOM      2  C   UNL     1       4.072   3.868  18.796  0.00  0.00    +0.000 A 
ATOM      3  C   UNL     1       3.206   4.102  19.854  0.00  0.00    +0.000 A 
ATOM      4  C   UNL     1       2.544   5.322  19.509  0.00  0.00    +0.000 A 
ATOM      5  N   UNL     1       1.674   5.975  20.327  0.00  0.00    +0.000 N 
ATOM      6  N   UNL     1       2.961   5.757  18.320  0.00  0.00    +0.000 NA
ATOM      7  H   UNL     1       1.435   5.508  21.201  0.00  0.00    +0.000 HD
ENDROOT
BRANCH   5   8
ATOM      8  C   UNL     1       1.304   7.345  20.309  0.00  0.00    +0.000 A 
ATOM      9  C   UNL     1       1.737   8.247  19.312  0.00  0.00    +0.000 A 
ATOM     10  C   UNL     1       1.496   9.622  19.397  0.00  0.00    +0.000 A 
ATOM     11  C   UNL     1       0.801  10.072  20.498  0.00  0.00    +0.000 A 
ATOM     12  C   UNL     1       0.333   9.230  21.497  0.00  0.00    +0.000 A 
ATOM     13  C   UNL     1       0.573   7.859  21.397  0.00  0.00    +0.000 A 
ATOM     14  C   UNL     1      -0.365   9.915  22.634  0.00  0.00    +0.000 C 
ATOM     15  C   UNL     1      -0.422  11.426  22.381  0.00  0.00    +0.000 C 
ATOM     16  S   UNL     1       0.429  11.741  20.840  0.00  0.00    +0.000 S 
ATOM     17  O   UNL     1      -0.522  12.194  19.848  0.00  0.00    +0.000 OA
ATOM     18  O   UNL     1       1.678  12.421  21.109  0.00  0.00    +0.000 OA
BRANCH  14  19
ATOM     19  O   UNL     1       0.332   9.665  23.852  0.00  0.00    +0.000 OA
ATOM     20  H   UNL     1      -0.175  10.055  24.588  0.00  0.00    +0.000 HD
ENDBRANCH  14  19
ENDBRANCH   5   8
BRANCH   1  26
ATOM     21  C   UNL     1       5.855   4.228  16.559  0.00  0.00    +0.000 C 
ATOM     22  C   UNL     1       7.035   4.724  17.408  0.00  0.00    +0.000 C 
ATOM     23  C   UNL     1       7.343   6.208  17.214  0.00  0.00    +0.000 C 
ATOM     24  C   UNL     1       6.117   7.111  17.308  0.00  0.00    +0.000 C 
ATOM     25  C   UNL     1       4.937   6.619  16.472  0.00  0.00    +0.000 C 
ATOM     26  C   UNL     1       4.608   5.129  16.669  0.00  0.00    +0.000 C 
BRANCH  21  28
ATOM     27  N   UNL     1       6.552   4.027  14.026  0.00  0.00    +0.000 NA
ATOM     28  C   UNL     1       6.258   4.128  15.139  0.00  0.00    +0.000 C 
ENDBRANCH  21  28
ENDBRANCH   1  26
BRANCH   3  29
ATOM     29  C   UNL     1       3.052   3.311  21.057  0.00  0.00    +0.000 C 
ATOM     30  N   UNL     1       3.805   2.169  21.121  0.00  0.00    +0.000 N 
ATOM     31  O   UNL     1       2.317   3.633  21.985  0.00  0.00    +0.000 OA
ATOM     32  H   UNL     1       4.527   1.953  20.453  0.00  0.00    +0.000 HD
ATOM     33  H   UNL     1       3.760   1.625  21.970  0.00  0.00    +0.000 HD
ENDBRANCH   3  29
TORSDOF 5
ENDMDL
MODEL 4
REMARK VINA RESULT:      -8.3      1.353      1.938
REMARK  Name = 
REMARK  5 active torsions:
REMARK  status: ('A' for Active; 'I' for Inactive)
REMARK    1  A    between atoms: C_2  and  C_3
REMARK    2  A    between atoms: C_8  and  N_9
REMARK    3  A    between atoms: C_11  and  C_12
REMARK    4  A    between atoms: N_16  and  C_17
REMARK    5  A    between atoms: C_23  and  O_24
REMARK                            x       y       z     vdW  Elec       q    Type
REMARK                         _______ _______ _______ _____ _____    ______ ____
ROOT
ATOM      1  N   UNL     1       3.865   5.060  17.934  0.00  0.00    +0.000 N 
ATOM      2  C   UNL     1       3.942   3.949  18.714  0.00  0.00    +0.000 A 
ATOM      3  C   UNL     1       3.126   4.187  19.810  0.00  0.00    +0.000 A 
ATOM      4  C   UNL     1       2.617   5.506  19.596  0.00  0.00    +0.000 A 
ATOM      5  N   UNL     1       1.847   6.181  20.492  0.00  0.00    +0.000 N 
ATOM      6  N   UNL     1       3.068   5.996  18.441  0.00  0.00    +0.000 NA
ATOM      7  H   UNL     1       1.564   5.667  21.326  0.00  0.00    +0.000 HD
ENDROOT
BRANCH   5   8
ATOM      8  C   UNL     1       1.651   7.582  20.609  0.00  0.00    +0.000 A 
ATOM      9  C   UNL     1       1.478   8.235  21.849  0.00  0.00    +0.000 A 
ATOM     10  C   UNL     1       1.127   9.585  21.936  0.00  0.00    +0.000 A 
ATOM     11  C   UNL     1       0.967  10.272  20.752  0.00  0.00    +0.000 A 
ATOM     12  C   UNL     1       1.146   9.688  19.506  0.00  0.00    +0.000 A 
ATOM     13  C   UNL     1       1.503   8.341  19.432  0.00  0.00    +0.000 A 
ATOM     14  C   UNL     1       0.884  10.589  18.336  0.00  0.00    +0.000 C 
ATOM     15  C   UNL     1       0.508  11.991  18.827  0.00  0.00    +0.000 C 
ATOM     16  S   UNL     1       0.486  11.942  20.615  0.00  0.00    +0.000 S 
ATOM     17  O   UNL     1       1.564  12.756  21.132  0.00  0.00    +0.000 OA
ATOM     18  O   UNL     1      -0.879  12.044  21.083  0.00  0.00    +0.000 OA
BRANCH  14  19
ATOM     19  O   UNL     1      -0.180  10.062  17.546  0.00  0.00    +0.000 OA
ATOM     20  H   UNL     1       0.027   9.136  17.323  0.00  0.00    +0.000 HD
ENDBRANCH  14  19
ENDBRANCH   5   8
BRANCH   1  26
ATOM     21  C   UNL     1       5.796   4.368  16.532  0.00  0.00    +0.000 C 
ATOM     22  C   UNL     1       7.005   4.755  17.398  0.00  0.00    +0.000 C 
ATOM     23  C   UNL     1       7.392   6.229  17.278  0.00  0.00    +0.000 C 
ATOM     24  C   UNL     1       6.217   7.190  17.427  0.00  0.00    +0.000 C 
ATOM     25  C   UNL     1       5.009   6.806  16.575  0.00  0.00    +0.000 C 
ATOM     26  C   UNL     1       4.600   5.328  16.698  0.00  0.00    +0.000 C 
BRANCH  21  28
ATOM     27  N   UNL     1       6.511   4.307  13.997  0.00  0.00    +0.000 NA
ATOM     28  C   UNL     1       6.187   4.320  15.107  0.00  0.00    +0.000 C 
ENDBRANCH  21  28
ENDBRANCH   1  26
BRANCH   3  29
ATOM     29  C   UNL     1       2.892   3.311  20.940  0.00  0.00    +0.000 C 
ATOM     30  N   UNL     1       3.698   2.207  21.016  0.00  0.00    +0.000 N 
ATOM     31  O   UNL     1       2.047   3.534  21.801  0.00  0.00    +0.000 OA
ATOM     32  H   UNL     1       4.497   2.072  20.419  0.00  0.00    +0.000 HD
ATOM     33  H   UNL     1       3.596   1.606  21.821  0.00  0.00    +0.000 HD
ENDBRANCH   3  29
TORSDOF 5
ENDMDL
MODEL 5
REMARK VINA RESULT:      -7.6      4.474      8.424
REMARK  Name = 
REMARK  5 active torsions:
REMARK  status: ('A' for Active; 'I' for Inactive)
REMARK    1  A    between atoms: C_2  and  C_3
REMARK    2  A    between atoms: C_8  and  N_9
REMARK    3  A    between atoms: C_11  and  C_12
REMARK    4  A    between atoms: N_16  and  C_17
REMARK    5  A    between atoms: C_23  and  O_24
REMARK                            x       y       z     vdW  Elec       q    Type
REMARK                         _______ _______ _______ _____ _____    ______ ____
ROOT
ATOM      1  N   UNL     1      -1.251  10.065  17.616  0.00  0.00    +0.000 N 
ATOM      2  C   UNL     1      -1.221  11.089  18.511  0.00  0.00    +0.000 A 
ATOM      3  C   UNL     1       0.007  11.008  19.150  0.00  0.00    +0.000 A 
ATOM      4  C   UNL     1       0.638   9.864  18.568  0.00  0.00    +0.000 A 
ATOM      5  N   UNL     1       1.832   9.359  18.982  0.00  0.00    +0.000 N 
ATOM      6  N   UNL     1      -0.144   9.331  17.628  0.00  0.00    +0.000 NA
ATOM      7  H   UNL     1       2.325   9.888  19.700  0.00  0.00    +0.000 HD
ENDROOT
BRANCH   5   8
ATOM      8  C   UNL     1       2.340   8.044  18.812  0.00  0.00    +0.000 A 
ATOM      9  C   UNL     1       2.137   7.012  19.755  0.00  0.00    +0.000 A 
ATOM     10  C   UNL     1       2.777   5.774  19.651  0.00  0.00    +0.000 A 
ATOM     11  C   UNL     1       3.615   5.587  18.573  0.00  0.00    +0.000 A 
ATOM     12  C   UNL     1       3.835   6.556  17.605  0.00  0.00    +0.000 A 
ATOM     13  C   UNL     1       3.185   7.786  17.716  0.00  0.00    +0.000 A 
ATOM     14  C   UNL     1       4.815   6.178  16.535  0.00  0.00    +0.000 C 
ATOM     15  C   UNL     1       5.317   4.748  16.764  0.00  0.00    +0.000 C 
ATOM     16  S   UNL     1       4.553   4.149  18.266  0.00  0.00    +0.000 S 
ATOM     17  O   UNL     1       3.632   3.081  17.944  0.00  0.00    +0.000 OA
ATOM     18  O   UNL     1       5.552   4.047  19.308  0.00  0.00    +0.000 OA
BRANCH  14  19
ATOM     19  O   UNL     1       5.921   7.077  16.549  0.00  0.00    +0.000 OA
ATOM     20  H   UNL     1       5.593   7.972  16.750  0.00  0.00    +0.000 HD
ENDBRANCH  14  19
ENDBRANCH   5   8
BRANCH   1  26
ATOM     21  C   UNL     1      -2.667  10.775  15.701  0.00  0.00    +0.000 C 
ATOM     22  C   UNL     1      -3.458  11.958  16.279  0.00  0.00    +0.000 C 
ATOM     23  C   UNL     1      -4.685  11.535  17.085  0.00  0.00    +0.000 C 
ATOM     24  C   UNL     1      -4.403  10.445  18.115  0.00  0.00    +0.000 C 
ATOM     25  C   UNL     1      -3.610   9.269  17.548  0.00  0.00    +0.000 C 
ATOM     26  C   UNL     1      -2.364   9.681  16.746  0.00  0.00    +0.000 C 
BRANCH  21  28
ATOM     27  N   UNL     1      -3.993   9.679  13.705  0.00  0.00    +0.000 NA
ATOM     28  C   UNL     1      -3.407  10.174  14.571  0.00  0.00    +0.000 C 
ENDBRANCH  21  28
ENDBRANCH   1  26
BRANCH   3  29
ATOM     29  C   UNL     1       0.507  11.864  20.207  0.00  0.00    +0.000 C 
ATOM     30  N   UNL     1       0.287  13.205  20.045  0.00  0.00    +0.000 N 
ATOM     31  O   UNL     1       1.075  11.436  21.207  0.00  0.00    +0.000 OA
ATOM     32  H   UNL     1      -0.305  13.577  19.319  0.00  0.00    +0.000 HD
ATOM     33  H   UNL     1       0.575  13.822  20.790  0.00  0.00    +0.000 HD
ENDBRANCH   3  29
TORSDOF 5
ENDMDL
MODEL 6
REMARK VINA RESULT:      -7.6      2.487      4.657
REMARK  Name = 
REMARK  5 active torsions:
REMARK  status: ('A' for Active; 'I' for Inactive)
REMARK    1  A    between atoms: C_2  and  C_3
REMARK    2  A    between atoms: C_8  and  N_9
REMARK    3  A    between atoms: C_11  and  C_12
REMARK    4  A    between atoms: N_16  and  C_17
REMARK    5  A    between atoms: C_23  and  O_24
REMARK                            x       y       z     vdW  Elec       q    Type
REMARK                         _______ _______ _______ _____ _____    ______ ____
ROOT
ATOM      1  N   UNL     1       4.332   4.766  18.895  0.00  0.00    +0.000 N 
ATOM      2  C   UNL     1       4.872   4.535  17.668  0.00  0.00    +0.000 A 
ATOM      3  C   UNL     1       4.706   5.707  16.945  0.00  0.00    +0.000 A 
ATOM      4  C   UNL     1       4.022   6.586  17.842  0.00  0.00    +0.000 A 
ATOM      5  N   UNL     1       3.567   7.821  17.500  0.00  0.00    +0.000 N 
ATOM      6  N   UNL     1       3.831   5.990  19.020  0.00  0.00    +0.000 NA
ATOM      7  H   UNL     1       3.807   8.151  16.566  0.00  0.00    +0.000 HD
ENDROOT
BRANCH   5   8
ATOM      8  C   UNL     1       2.538   8.584  18.111  0.00  0.00    +0.000 A 
ATOM      9  C   UNL     1       2.060   9.802  17.578  0.00  0.00    +0.000 A 
ATOM     10  C   UNL     1       1.163  10.617  18.274  0.00  0.00    +0.000 A 
ATOM     11  C   UNL     1       0.743  10.179  19.511  0.00  0.00    +0.000 A 
ATOM     12  C   UNL     1       1.161   8.982  20.075  0.00  0.00    +0.000 A 
ATOM     13  C   UNL     1       2.052   8.173  19.367  0.00  0.00    +0.000 A 
ATOM     14  C   UNL     1       0.626   8.702  21.447  0.00  0.00    +0.000 C 
ATOM     15  C   UNL     1      -0.314   9.830  21.884  0.00  0.00    +0.000 C 
ATOM     16  S   UNL     1      -0.330  11.048  20.575  0.00  0.00    +0.000 S 
ATOM     17  O   UNL     1      -1.638  11.075  19.958  0.00  0.00    +0.000 OA
ATOM     18  O   UNL     1       0.362  12.240  21.017  0.00  0.00    +0.000 OA
BRANCH  14  19
ATOM     19  O   UNL     1       1.702   8.595  22.376  0.00  0.00    +0.000 OA
ATOM     20  H   UNL     1       1.935   9.489  22.688  0.00  0.00    +0.000 HD
ENDBRANCH  14  19
ENDBRANCH   5   8
BRANCH   1  26
ATOM     21  C   UNL     1       4.571   2.383  19.557  0.00  0.00    +0.000 C 
ATOM     22  C   UNL     1       3.461   1.690  18.752  0.00  0.00    +0.000 C 
ATOM     23  C   UNL     1       2.085   1.780  19.412  0.00  0.00    +0.000 C 
ATOM     24  C   UNL     1       1.707   3.187  19.864  0.00  0.00    +0.000 C 
ATOM     25  C   UNL     1       2.811   3.884  20.658  0.00  0.00    +0.000 C 
ATOM     26  C   UNL     1       4.198   3.813  19.997  0.00  0.00    +0.000 C 
BRANCH  21  28
ATOM     27  N   UNL     1       5.203   0.962  21.684  0.00  0.00    +0.000 NA
ATOM     28  C   UNL     1       4.909   1.580  20.752  0.00  0.00    +0.000 C 
ENDBRANCH  21  28
ENDBRANCH   1  26
BRANCH   3  29
ATOM     29  C   UNL     1       5.094   5.956  15.572  0.00  0.00    +0.000 C 
ATOM     30  N   UNL     1       5.455   4.854  14.844  0.00  0.00    +0.000 N 
ATOM     31  O   UNL     1       5.086   7.072  15.062  0.00  0.00    +0.000 OA
ATOM     32  H   UNL     1       5.329   3.913  15.179  0.00  0.00    +0.000 HD
ATOM     33  H   UNL     1       5.679   4.989  13.868  0.00  0.00    +0.000 HD
ENDBRANCH   3  29
TORSDOF 5
ENDMDL
MODEL 7
REMARK VINA RESULT:      -7.4      1.939      2.856
REMARK  Name = 
REMARK  5 active torsions:
REMARK  status: ('A' for Active; 'I' for Inactive)
REMARK    1  A    between atoms: C_2  and  C_3
REMARK    2  A    between atoms: C_8  and  N_9
REMARK    3  A    between atoms: C_11  and  C_12
REMARK    4  A    between atoms: N_16  and  C_17
REMARK    5  A    between atoms: C_23  and  O_24
REMARK                            x       y       z     vdW  Elec       q    Type
REMARK                         _______ _______ _______ _____ _____    ______ ____
ROOT
ATOM      1  N   UNL     1       4.304   6.283  17.323  0.00  0.00    +0.000 N 
ATOM      2  C   UNL     1       3.877   5.199  18.024  0.00  0.00    +0.000 A 
ATOM      3  C   UNL     1       2.688   5.574  18.633  0.00  0.00    +0.000 A 
ATOM      4  C   UNL     1       2.502   6.937  18.242  0.00  0.00    +0.000 A 
ATOM      5  N   UNL     1       1.500   7.732  18.704  0.00  0.00    +0.000 N 
ATOM      6  N   UNL     1       3.488   7.326  17.433  0.00  0.00    +0.000 NA
ATOM      7  H   UNL     1       0.806   7.287  19.304  0.00  0.00    +0.000 HD
ENDROOT
BRANCH   5   8
ATOM      8  C   UNL     1       1.449   9.150  18.753  0.00  0.00    +0.000 A 
ATOM      9  C   UNL     1       2.257   9.979  17.943  0.00  0.00    +0.000 A 
ATOM     10  C   UNL     1       2.310  11.364  18.117  0.00  0.00    +0.000 A 
ATOM     11  C   UNL     1       1.525  11.904  19.112  0.00  0.00    +0.000 A 
ATOM     12  C   UNL     1       0.696  11.143  19.923  0.00  0.00    +0.000 A 
ATOM     13  C   UNL     1       0.647   9.761  19.735  0.00  0.00    +0.000 A 
ATOM     14  C   UNL     1      -0.046  11.910  20.977  0.00  0.00    +0.000 C 
ATOM     15  C   UNL     1       0.278  13.404  20.865  0.00  0.00    +0.000 C 
ATOM     16  S   UNL     1       1.466  13.593  19.541  0.00  0.00    +0.000 S 
ATOM     17  O   UNL     1       0.852  14.308  18.443  0.00  0.00    +0.000 OA
ATOM     18  O   UNL     1       2.754  13.949  20.097  0.00  0.00    +0.000 OA
BRANCH  14  19
ATOM     19  O   UNL     1       0.324  11.440  22.271  0.00  0.00    +0.000 OA
ATOM     20  H   UNL     1       0.834  10.615  22.169  0.00  0.00    +0.000 HD
ENDBRANCH  14  19
ENDBRANCH   5   8
BRANCH   1  26
ATOM     21  C   UNL     1       5.998   5.061  15.978  0.00  0.00    +0.000 C 
ATOM     22  C   UNL     1       6.664   4.144  17.015  0.00  0.00    +0.000 C 
ATOM     23  C   UNL     1       7.752   4.839  17.832  0.00  0.00    +0.000 C 
ATOM     24  C   UNL     1       7.326   6.185  18.411  0.00  0.00    +0.000 C 
ATOM     25  C   UNL     1       6.656   7.099  17.386  0.00  0.00    +0.000 C 
ATOM     26  C   UNL     1       5.549   6.415  16.566  0.00  0.00    +0.000 C 
BRANCH  21  28
ATOM     27  N   UNL     1       7.651   5.466  13.966  0.00  0.00    +0.000 NA
ATOM     28  C   UNL     1       6.922   5.305  14.849  0.00  0.00    +0.000 C 
ENDBRANCH  21  28
ENDBRANCH   1  26
BRANCH   3  29
ATOM     29  C   UNL     1       1.858   4.773  19.509  0.00  0.00    +0.000 C 
ATOM     30  N   UNL     1       1.541   3.522  19.054  0.00  0.00    +0.000 N 
ATOM     31  O   UNL     1       1.468   5.161  20.606  0.00  0.00    +0.000 OA
ATOM     32  H   UNL     1       1.965   3.115  18.235  0.00  0.00    +0.000 HD
ATOM     33  H   UNL     1       1.009   2.920  19.666  0.00  0.00    +0.000 HD
ENDBRANCH   3  29
TORSDOF 5
ENDMDL
MODEL 8
REMARK VINA RESULT:      -7.4      2.664      4.675
REMARK  Name = 
REMARK  5 active torsions:
REMARK  status: ('A' for Active; 'I' for Inactive)
REMARK    1  A    between atoms: C_2  and  C_3
REMARK    2  A    between atoms: C_8  and  N_9
REMARK    3  A    between atoms: C_11  and  C_12
REMARK    4  A    between atoms: N_16  and  C_17
REMARK    5  A    between atoms: C_23  and  O_24
REMARK                            x       y       z     vdW  Elec       q    Type
REMARK                         _______ _______ _______ _____ _____    ______ ____
ROOT
ATOM      1  N   UNL     1       3.007   4.983  18.485  0.00  0.00    +0.000 N 
ATOM      2  C   UNL     1       3.956   4.833  17.523  0.00  0.00    +0.000 A 
ATOM      3  C   UNL     1       4.267   6.111  17.083  0.00  0.00    +0.000 A 
ATOM      4  C   UNL     1       3.414   6.968  17.846  0.00  0.00    +0.000 A 
ATOM      5  N   UNL     1       3.319   8.312  17.658  0.00  0.00    +0.000 N 
ATOM      6  N   UNL     1       2.680   6.253  18.699  0.00  0.00    +0.000 NA
ATOM      7  H   UNL     1       3.960   8.723  16.980  0.00  0.00    +0.000 HD
ENDROOT
BRANCH   5   8
ATOM      8  C   UNL     1       2.251   9.180  18.009  0.00  0.00    +0.000 A 
ATOM      9  C   UNL     1       0.903   8.761  18.062  0.00  0.00    +0.000 A 
ATOM     10  C   UNL     1      -0.148   9.662  18.253  0.00  0.00    +0.000 A 
ATOM     11  C   UNL     1       0.181  10.991  18.401  0.00  0.00    +0.000 A 
ATOM     12  C   UNL     1       1.487  11.457  18.380  0.00  0.00    +0.000 A 
ATOM     13  C   UNL     1       2.529  10.547  18.197  0.00  0.00    +0.000 A 
ATOM     14  C   UNL     1       1.637  12.943  18.516  0.00  0.00    +0.000 C 
ATOM     15  C   UNL     1       0.261  13.596  18.691  0.00  0.00    +0.000 C 
ATOM     16  S   UNL     1      -0.961  12.294  18.600  0.00  0.00    +0.000 S 
ATOM     17  O   UNL     1      -1.592  12.135  19.892  0.00  0.00    +0.000 OA
ATOM     18  O   UNL     1      -1.705  12.416  17.365  0.00  0.00    +0.000 OA
BRANCH  14  19
ATOM     19  O   UNL     1       2.271  13.476  17.355  0.00  0.00    +0.000 OA
ATOM     20  H   UNL     1       3.235  13.469  17.496  0.00  0.00    +0.000 HD
ENDBRANCH  14  19
ENDBRANCH   5   8
BRANCH   1  26
ATOM     21  C   UNL     1       3.127   3.413  20.408  0.00  0.00    +0.000 C 
ATOM     22  C   UNL     1       4.258   2.457  20.000  0.00  0.00    +0.000 C 
ATOM     23  C   UNL     1       3.801   1.340  19.062  0.00  0.00    +0.000 C 
ATOM     24  C   UNL     1       2.974   1.828  17.877  0.00  0.00    +0.000 C 
ATOM     25  C   UNL     1       1.853   2.786  18.275  0.00  0.00    +0.000 C 
ATOM     26  C   UNL     1       2.303   3.923  19.208  0.00  0.00    +0.000 C 
BRANCH  21  28
ATOM     27  N   UNL     1       1.538   2.232  22.146  0.00  0.00    +0.000 NA
ATOM     28  C   UNL     1       2.223   2.749  21.371  0.00  0.00    +0.000 C 
ENDBRANCH  21  28
ENDBRANCH   1  26
BRANCH   3  29
ATOM     29  C   UNL     1       5.209   6.480  16.046  0.00  0.00    +0.000 C 
ATOM     30  N   UNL     1       6.486   6.014  16.205  0.00  0.00    +0.000 N 
ATOM     31  O   UNL     1       4.900   7.147  15.064  0.00  0.00    +0.000 OA
ATOM     32  H   UNL     1       6.738   5.341  16.912  0.00  0.00    +0.000 HD
ATOM     33  H   UNL     1       7.151   6.208  15.471  0.00  0.00    +0.000 HD
ENDBRANCH   3  29
TORSDOF 5
ENDMDL
MODEL 9
REMARK VINA RESULT:      -7.4      4.341      8.421
REMARK  Name = 
REMARK  5 active torsions:
REMARK  status: ('A' for Active; 'I' for Inactive)
REMARK    1  A    between atoms: C_2  and  C_3
REMARK    2  A    between atoms: C_8  and  N_9
REMARK    3  A    between atoms: C_11  and  C_12
REMARK    4  A    between atoms: N_16  and  C_17
REMARK    5  A    between atoms: C_23  and  O_24
REMARK                            x       y       z     vdW  Elec       q    Type
REMARK                         _______ _______ _______ _____ _____    ______ ____
ROOT
ATOM      1  N   UNL     1      -1.449  10.084  17.801  0.00  0.00    +0.000 N 
ATOM      2  C   UNL     1      -1.542  11.030  18.773  0.00  0.00    +0.000 A 
ATOM      3  C   UNL     1      -0.351  10.975  19.483  0.00  0.00    +0.000 A 
ATOM      4  C   UNL     1       0.390   9.925  18.855  0.00  0.00    +0.000 A 
ATOM      5  N   UNL     1       1.588   9.464  19.305  0.00  0.00    +0.000 N 
ATOM      6  N   UNL     1      -0.297   9.423  17.828  0.00  0.00    +0.000 NA
ATOM      7  H   UNL     1       2.001   9.962  20.092  0.00  0.00    +0.000 HD
ENDROOT
BRANCH   5   8
ATOM      8  C   UNL     1       2.194   8.202  19.067  0.00  0.00    +0.000 A 
ATOM      9  C   UNL     1       2.970   7.924  17.920  0.00  0.00    +0.000 A 
ATOM     10  C   UNL     1       3.424   6.636  17.623  0.00  0.00    +0.000 A 
ATOM     11  C   UNL     1       3.093   5.633  18.509  0.00  0.00    +0.000 A 
ATOM     12  C   UNL     1       2.353   5.851  19.662  0.00  0.00    +0.000 A 
ATOM     13  C   UNL     1       1.912   7.143  19.950  0.00  0.00    +0.000 A 
ATOM     14  C   UNL     1       2.061   4.624  20.474  0.00  0.00    +0.000 C 
ATOM     15  C   UNL     1       2.711   3.398  19.824  0.00  0.00    +0.000 C 
ATOM     16  S   UNL     1       3.506   3.949  18.321  0.00  0.00    +0.000 S 
ATOM     17  O   UNL     1       4.940   3.826  18.462  0.00  0.00    +0.000 OA
ATOM     18  O   UNL     1       2.776   3.445  17.177  0.00  0.00    +0.000 OA
BRANCH  14  19
ATOM     19  O   UNL     1       0.652   4.425  20.562  0.00  0.00    +0.000 OA
ATOM     20  H   UNL     1       0.330   4.095  19.703  0.00  0.00    +0.000 HD
ENDBRANCH  14  19
ENDBRANCH   5   8
BRANCH   1  26
ATOM     21  C   UNL     1      -2.719  10.818  15.795  0.00  0.00    +0.000 C 
ATOM     22  C   UNL     1      -3.577  11.972  16.336  0.00  0.00    +0.000 C 
ATOM     23  C   UNL     1      -4.857  11.505  17.028  0.00  0.00    +0.000 C 
ATOM     24  C   UNL     1      -4.638  10.393  18.050  0.00  0.00    +0.000 C 
ATOM     25  C   UNL     1      -3.777   9.247  17.520  0.00  0.00    +0.000 C 
ATOM     26  C   UNL     1      -2.479   9.703  16.834  0.00  0.00    +0.000 C 
BRANCH  21  28
ATOM     27  N   UNL     1      -3.865   9.803  13.652  0.00  0.00    +0.000 NA
ATOM     28  C   UNL     1      -3.352  10.234  14.594  0.00  0.00    +0.000 C 
ENDBRANCH  21  28
ENDBRANCH   1  26
BRANCH   3  29
ATOM     29  C   UNL     1       0.026  11.771  20.633  0.00  0.00    +0.000 C 
ATOM     30  N   UNL     1      -0.334  13.091  20.590  0.00  0.00    +0.000 N 
ATOM     31  O   UNL     1       0.610  11.310  21.608  0.00  0.00    +0.000 OA
ATOM     32  H   UNL     1      -0.944  13.468  19.882  0.00  0.00    +0.000 HD
ATOM     33  H   UNL     1      -0.134  13.659  21.401  0.00  0.00    +0.000 HD
ENDBRANCH   3  29
TORSDOF 5
ENDMDL
