MODEL 1
REMARK VINA RESULT:      -7.5      0.000      0.000
REMARK  Name = 
REMARK  9 active torsions:
REMARK  status: ('A' for Active; 'I' for Inactive)
REMARK    1  A    between atoms: C_1  and  C_2
REMARK    2  A    between atoms: C_2  and  C_3
REMARK    3  A    between atoms: C_3  and  C_4
REMARK    4  A    between atoms: C_4  and  C_5
REMARK    5  A    between atoms: C_6  and  C_7
REMARK    6  A    between atoms: C_10  and  C_11
REMARK    7  A    between atoms: C_18  and  C_19
REMARK    8  A    between atoms: C_22  and  O_23
REMARK    9  A    between atoms: O_23  and  C_24
REMARK                            x       y       z     vdW  Elec       q    Type
REMARK                         _______ _______ _______ _____ _____    ______ ____
ROOT
ATOM      1  C   UNL     1       2.504   6.599  19.089  0.00  0.00    +0.000 A 
ATOM      2  C   UNL     1       3.016   5.397  18.578  0.00  0.00    +0.000 A 
ATOM      3  N   UNL     1       2.674   4.198  19.110  0.00  0.00    +0.000 NA
ATOM      4  C   UNL     1       1.892   4.184  20.181  0.00  0.00    +0.000 A 
ATOM      5  N   UNL     1       1.486   2.954  20.661  0.00  0.00    +0.000 N 
ATOM      6  N   UNL     1       1.423   5.266  20.783  0.00  0.00    +0.000 NA
ATOM      7  C   UNL     1       1.746   6.474  20.266  0.00  0.00    +0.000 A 
ATOM      8  H   UNL     1       1.520   2.273  19.915  0.00  0.00    +0.000 HD
ATOM      9  H   UNL     1       0.610   3.056  21.154  0.00  0.00    +0.000 HD
ENDROOT
BRANCH   2  10
ATOM     10  C   UNL     1       3.968   5.244  17.436  0.00  0.00    +0.000 A 
ATOM     11  C   UNL     1       4.611   6.334  16.822  0.00  0.00    +0.000 A 
ATOM     12  C   UNL     1       5.479   6.166  15.737  0.00  0.00    +0.000 A 
ATOM     13  C   UNL     1       5.795   4.890  15.270  0.00  0.00    +0.000 A 
ATOM     14  C   UNL     1       6.786   4.703  14.162  0.00  0.00    +0.000 C 
ATOM     15  C   UNL     1       5.202   3.788  15.891  0.00  0.00    +0.000 A 
ATOM     16  C   UNL     1       4.300   3.967  16.947  0.00  0.00    +0.000 A 
ENDBRANCH   2  10
BRANCH   7  17
ATOM     17  C   UNL     1       1.169   7.599  21.057  0.00  0.00    +0.000 A 
ATOM     18  C   UNL     1      -0.211   7.848  21.144  0.00  0.00    +0.000 A 
ATOM     19  C   UNL     1      -0.725   8.834  21.994  0.00  0.00    +0.000 A 
ATOM     20  C   UNL     1       0.129   9.655  22.725  0.00  0.00    +0.000 A 
ATOM     21  C   UNL     1       1.503   9.513  22.563  0.00  0.00    +0.000 A 
ATOM     22  C   UNL     1       2.012   8.492  21.747  0.00  0.00    +0.000 A 
BRANCH  20  23
ATOM     23  O   UNL     1      -0.490  10.577  23.521  0.00  0.00    +0.000 OA
ATOM     24  C   UNL     1      -1.153  11.639  22.842  0.00  0.00    +0.000 C 
ENDBRANCH  20  23
ENDBRANCH   7  17
BRANCH   1  25
ATOM     25  C   UNL     1       2.728   7.943  18.432  0.00  0.00    +0.000 C 
BRANCH  25  26
ATOM     26  C   UNL     1       1.523   8.577  17.727  0.00  0.00    +0.000 C 
BRANCH  26  28
ATOM     27  C   UNL     1      -0.193  10.252  18.474  0.00  0.00    +0.000 C 
ATOM     28  C   UNL     1       1.287   9.991  18.267  0.00  0.00    +0.000 C 
ENDBRANCH  26  28
ENDBRANCH  25  26
ENDBRANCH   1  25
TORSDOF 6
ENDMDL
MODEL 2
REMARK VINA RESULT:      -7.2      0.361      1.361
REMARK  Name = 
REMARK  9 active torsions:
REMARK  status: ('A' for Active; 'I' for Inactive)
REMARK    1  A    between atoms: C_1  and  C_2
REMARK    2  A    between atoms: C_2  and  C_3
REMARK    3  A    between atoms: C_3  and  C_4
REMARK    4  A    between atoms: C_4  and  C_5
REMARK    5  A    between atoms: C_6  and  C_7
REMARK    6  A    between atoms: C_10  and  C_11
REMARK    7  A    between atoms: C_18  and  C_19
REMARK    8  A    between atoms: C_22  and  O_23
REMARK    9  A    between atoms: O_23  and  C_24
REMARK                            x       y       z     vdW  Elec       q    Type
REMARK                         _______ _______ _______ _____ _____    ______ ____
ROOT
ATOM      1  C   UNL     1       2.465   6.696  19.283  0.00  0.00    +0.000 A 
ATOM      2  C   UNL     1       2.969   5.476  18.810  0.00  0.00    +0.000 A 
ATOM      3  N   UNL     1       2.609   4.294  19.368  0.00  0.00    +0.000 NA
ATOM      4  C   UNL     1       1.816   4.316  20.430  0.00  0.00    +0.000 A 
ATOM      5  N   UNL     1       1.392   3.103  20.938  0.00  0.00    +0.000 N 
ATOM      6  N   UNL     1       1.352   5.418  21.000  0.00  0.00    +0.000 NA
ATOM      7  C   UNL     1       1.693   6.609  20.454  0.00  0.00    +0.000 A 
ATOM      8  H   UNL     1       1.427   2.403  20.210  0.00  0.00    +0.000 HD
ATOM      9  H   UNL     1       0.512   3.227  21.419  0.00  0.00    +0.000 HD
ENDROOT
BRANCH   2  10
ATOM     10  C   UNL     1       3.931   5.283  17.682  0.00  0.00    +0.000 A 
ATOM     11  C   UNL     1       3.998   4.100  16.924  0.00  0.00    +0.000 A 
ATOM     12  C   UNL     1       4.926   3.935  15.889  0.00  0.00    +0.000 A 
ATOM     13  C   UNL     1       5.776   4.978  15.523  0.00  0.00    +0.000 A 
ATOM     14  C   UNL     1       6.713   4.833  14.363  0.00  0.00    +0.000 C 
ATOM     15  C   UNL     1       5.699   6.179  16.233  0.00  0.00    +0.000 A 
ATOM     16  C   UNL     1       4.800   6.321  17.296  0.00  0.00    +0.000 A 
ENDBRANCH   2  10
BRANCH   7  17
ATOM     17  C   UNL     1       1.120   7.759  21.211  0.00  0.00    +0.000 A 
ATOM     18  C   UNL     1       1.902   8.639  21.978  0.00  0.00    +0.000 A 
ATOM     19  C   UNL     1       1.350   9.780  22.574  0.00  0.00    +0.000 A 
ATOM     20  C   UNL     1      -0.015  10.034  22.488  0.00  0.00    +0.000 A 
ATOM     21  C   UNL     1      -0.833   9.114  21.839  0.00  0.00    +0.000 A 
ATOM     22  C   UNL     1      -0.268   7.998  21.204  0.00  0.00    +0.000 A 
BRANCH  20  23
ATOM     23  O   UNL     1      -0.435  11.178  23.106  0.00  0.00    +0.000 OA
ATOM     24  C   UNL     1      -1.845  11.348  23.206  0.00  0.00    +0.000 C 
ENDBRANCH  20  23
ENDBRANCH   7  17
BRANCH   1  25
ATOM     25  C   UNL     1       2.709   8.020  18.595  0.00  0.00    +0.000 C 
BRANCH  25  26
ATOM     26  C   UNL     1       1.541   8.610  17.795  0.00  0.00    +0.000 C 
BRANCH  26  28
ATOM     27  C   UNL     1      -0.297  10.243  18.302  0.00  0.00    +0.000 C 
ATOM     28  C   UNL     1       1.201  10.007  18.322  0.00  0.00    +0.000 C 
ENDBRANCH  26  28
ENDBRANCH  25  26
ENDBRANCH   1  25
TORSDOF 6
ENDMDL
MODEL 3
REMARK VINA RESULT:      -7.1      2.645      7.337
REMARK  Name = 
REMARK  9 active torsions:
REMARK  status: ('A' for Active; 'I' for Inactive)
REMARK    1  A    between atoms: C_1  and  C_2
REMARK    2  A    between atoms: C_2  and  C_3
REMARK    3  A    between atoms: C_3  and  C_4
REMARK    4  A    between atoms: C_4  and  C_5
REMARK    5  A    between atoms: C_6  and  C_7
REMARK    6  A    between atoms: C_10  and  C_11
REMARK    7  A    between atoms: C_18  and  C_19
REMARK    8  A    between atoms: C_22  and  O_23
REMARK    9  A    between atoms: O_23  and  C_24
REMARK                            x       y       z     vdW  Elec       q    Type
REMARK                         _______ _______ _______ _____ _____    ______ ____
ROOT
ATOM      1  C   UNL     1       2.800   6.551  19.206  0.00  0.00    +0.000 A 
ATOM      2  C   UNL     1       2.043   6.445  20.382  0.00  0.00    +0.000 A 
ATOM      3  N   UNL     1       1.961   5.280  21.071  0.00  0.00    +0.000 NA
ATOM      4  C   UNL     1       2.560   4.209  20.569  0.00  0.00    +0.000 A 
ATOM      5  N   UNL     1       2.538   3.051  21.322  0.00  0.00    +0.000 N 
ATOM      6  N   UNL     1       3.231   4.188  19.428  0.00  0.00    +0.000 NA
ATOM      7  C   UNL     1       3.332   5.342  18.726  0.00  0.00    +0.000 A 
ATOM      8  H   UNL     1       2.411   3.286  22.297  0.00  0.00    +0.000 HD
ATOM      9  H   UNL     1       3.334   2.477  21.084  0.00  0.00    +0.000 HD
ENDROOT
BRANCH   2  10
ATOM     10  C   UNL     1       1.244   7.528  21.033  0.00  0.00    +0.000 A 
ATOM     11  C   UNL     1      -0.162   7.555  21.024  0.00  0.00    +0.000 A 
ATOM     12  C   UNL     1      -0.887   8.595  21.619  0.00  0.00    +0.000 A 
ATOM     13  C   UNL     1      -0.231   9.613  22.311  0.00  0.00    +0.000 A 
ATOM     14  C   UNL     1      -1.007  10.683  23.018  0.00  0.00    +0.000 C 
ATOM     15  C   UNL     1       1.164   9.586  22.370  0.00  0.00    +0.000 A 
ATOM     16  C   UNL     1       1.884   8.567  21.734  0.00  0.00    +0.000 A 
ENDBRANCH   2  10
BRANCH   7  17
ATOM     17  C   UNL     1       4.092   5.164  17.456  0.00  0.00    +0.000 A 
ATOM     18  C   UNL     1       4.590   6.241  16.703  0.00  0.00    +0.000 A 
ATOM     19  C   UNL     1       5.405   6.036  15.583  0.00  0.00    +0.000 A 
ATOM     20  C   UNL     1       5.682   4.749  15.134  0.00  0.00    +0.000 A 
ATOM     21  C   UNL     1       5.100   3.667  15.787  0.00  0.00    +0.000 A 
ATOM     22  C   UNL     1       4.323   3.876  16.937  0.00  0.00    +0.000 A 
BRANCH  20  23
ATOM     23  O   UNL     1       6.490   4.676  14.035  0.00  0.00    +0.000 OA
ATOM     24  C   UNL     1       6.144   3.685  13.073  0.00  0.00    +0.000 C 
ENDBRANCH  20  23
ENDBRANCH   7  17
BRANCH   1  25
ATOM     25  C   UNL     1       3.051   7.862  18.495  0.00  0.00    +0.000 C 
BRANCH  25  26
ATOM     26  C   UNL     1       1.875   8.462  17.714  0.00  0.00    +0.000 C 
BRANCH  26  28
ATOM     27  C   UNL     1       0.117  10.123  18.388  0.00  0.00    +0.000 C 
ATOM     28  C   UNL     1       1.604   9.890  18.197  0.00  0.00    +0.000 C 
ENDBRANCH  26  28
ENDBRANCH  25  26
ENDBRANCH   1  25
TORSDOF 6
ENDMDL
MODEL 4
REMARK VINA RESULT:      -6.7      2.785      7.229
REMARK  Name = 
REMARK  9 active torsions:
REMARK  status: ('A' for Active; 'I' for Inactive)
REMARK    1  A    between atoms: C_1  and  C_2
REMARK    2  A    between atoms: C_2  and  C_3
REMARK    3  A    between atoms: C_3  and  C_4
REMARK    4  A    between atoms: C_4  and  C_5
REMARK    5  A    between atoms: C_6  and  C_7
REMARK    6  A    between atoms: C_10  and  C_11
REMARK    7  A    between atoms: C_18  and  C_19
REMARK    8  A    between atoms: C_22  and  O_23
REMARK    9  A    between atoms: O_23  and  C_24
REMARK                            x       y       z     vdW  Elec       q    Type
REMARK                         _______ _______ _______ _____ _____    ______ ____
ROOT
ATOM      1  C   UNL     1       3.022   6.169  19.487  0.00  0.00    +0.000 A 
ATOM      2  C   UNL     1       2.151   6.176  20.586  0.00  0.00    +0.000 A 
ATOM      3  N   UNL     1       1.936   5.062  21.327  0.00  0.00    +0.000 NA
ATOM      4  C   UNL     1       2.518   3.933  20.949  0.00  0.00    +0.000 A 
ATOM      5  N   UNL     1       2.357   2.826  21.762  0.00  0.00    +0.000 N 
ATOM      6  N   UNL     1       3.293   3.806  19.884  0.00  0.00    +0.000 NA
ATOM      7  C   UNL     1       3.527   4.907  19.131  0.00  0.00    +0.000 A 
ATOM      8  H   UNL     1       2.151   3.128  22.704  0.00  0.00    +0.000 HD
ATOM      9  H   UNL     1       3.139   2.198  21.636  0.00  0.00    +0.000 HD
ENDROOT
BRANCH   2  10
ATOM     10  C   UNL     1       1.357   7.338  21.091  0.00  0.00    +0.000 A 
ATOM     11  C   UNL     1       1.945   8.462  21.699  0.00  0.00    +0.000 A 
ATOM     12  C   UNL     1       1.177   9.526  22.186  0.00  0.00    +0.000 A 
ATOM     13  C   UNL     1      -0.207   9.539  22.018  0.00  0.00    +0.000 A 
ATOM     14  C   UNL     1      -1.023  10.714  22.467  0.00  0.00    +0.000 C 
ATOM     15  C   UNL     1      -0.811   8.453  21.380  0.00  0.00    +0.000 A 
ATOM     16  C   UNL     1      -0.041   7.372  20.935  0.00  0.00    +0.000 A 
ENDBRANCH   2  10
BRANCH   7  17
ATOM     17  C   UNL     1       4.395   4.612  17.955  0.00  0.00    +0.000 A 
ATOM     18  C   UNL     1       3.883   4.297  16.685  0.00  0.00    +0.000 A 
ATOM     19  C   UNL     1       4.722   4.147  15.574  0.00  0.00    +0.000 A 
ATOM     20  C   UNL     1       6.104   4.230  15.714  0.00  0.00    +0.000 A 
ATOM     21  C   UNL     1       6.644   4.417  16.983  0.00  0.00    +0.000 A 
ATOM     22  C   UNL     1       5.797   4.614  18.083  0.00  0.00    +0.000 A 
BRANCH  20  23
ATOM     23  O   UNL     1       6.817   4.070  14.559  0.00  0.00    +0.000 OA
ATOM     24  C   UNL     1       6.054   3.770  13.395  0.00  0.00    +0.000 C 
ENDBRANCH  20  23
ENDBRANCH   7  17
BRANCH   1  25
ATOM     25  C   UNL     1       3.416   7.419  18.730  0.00  0.00    +0.000 C 
BRANCH  25  26
ATOM     26  C   UNL     1       2.397   7.968  17.724  0.00  0.00    +0.000 C 
BRANCH  26  28
ATOM     27  C   UNL     1       0.590   9.675  18.082  0.00  0.00    +0.000 C 
ATOM     28  C   UNL     1       2.088   9.434  18.042  0.00  0.00    +0.000 C 
ENDBRANCH  26  28
ENDBRANCH  25  26
ENDBRANCH   1  25
TORSDOF 6
ENDMDL
MODEL 5
REMARK VINA RESULT:      -6.6      4.349      8.966
REMARK  Name = 
REMARK  9 active torsions:
REMARK  status: ('A' for Active; 'I' for Inactive)
REMARK    1  A    between atoms: C_1  and  C_2
REMARK    2  A    between atoms: C_2  and  C_3
REMARK    3  A    between atoms: C_3  and  C_4
REMARK    4  A    between atoms: C_4  and  C_5
REMARK    5  A    between atoms: C_6  and  C_7
REMARK    6  A    between atoms: C_10  and  C_11
REMARK    7  A    between atoms: C_18  and  C_19
REMARK    8  A    between atoms: C_22  and  O_23
REMARK    9  A    between atoms: O_23  and  C_24
REMARK                            x       y       z     vdW  Elec       q    Type
REMARK                         _______ _______ _______ _____ _____    ______ ____
ROOT
ATOM      1  C   UNL     1      -1.134  10.934  19.474  0.00  0.00    +0.000 A 
ATOM      2  C   UNL     1      -1.742  12.073  20.023  0.00  0.00    +0.000 A 
ATOM      3  N   UNL     1      -1.015  13.037  20.641  0.00  0.00    +0.000 NA
ATOM      4  C   UNL     1       0.289  12.849  20.781  0.00  0.00    +0.000 A 
ATOM      5  N   UNL     1       1.028  13.875  21.339  0.00  0.00    +0.000 N 
ATOM      6  N   UNL     1       0.943  11.773  20.370  0.00  0.00    +0.000 NA
ATOM      7  C   UNL     1       0.239  10.801  19.744  0.00  0.00    +0.000 A 
ATOM      8  H   UNL     1       0.543  14.751  21.201  0.00  0.00    +0.000 HD
ATOM      9  H   UNL     1       1.983  13.818  21.015  0.00  0.00    +0.000 HD
ENDROOT
BRANCH   2  10
ATOM     10  C   UNL     1      -3.201  12.396  20.023  0.00  0.00    +0.000 A 
ATOM     11  C   UNL     1      -4.042  12.145  18.924  0.00  0.00    +0.000 A 
ATOM     12  C   UNL     1      -5.402  12.479  18.940  0.00  0.00    +0.000 A 
ATOM     13  C   UNL     1      -5.989  13.012  20.087  0.00  0.00    +0.000 A 
ATOM     14  C   UNL     1      -7.460  13.296  20.135  0.00  0.00    +0.000 C 
ATOM     15  C   UNL     1      -5.183  13.232  21.207  0.00  0.00    +0.000 A 
ATOM     16  C   UNL     1      -3.815  12.936  21.168  0.00  0.00    +0.000 A 
ENDBRANCH   2  10
BRANCH   7  17
ATOM     17  C   UNL     1       1.097   9.644  19.358  0.00  0.00    +0.000 A 
ATOM     18  C   UNL     1       1.356   8.561  20.215  0.00  0.00    +0.000 A 
ATOM     19  C   UNL     1       2.064   7.435  19.778  0.00  0.00    +0.000 A 
ATOM     20  C   UNL     1       2.601   7.389  18.495  0.00  0.00    +0.000 A 
ATOM     21  C   UNL     1       2.466   8.499  17.667  0.00  0.00    +0.000 A 
ATOM     22  C   UNL     1       1.716   9.605  18.093  0.00  0.00    +0.000 A 
BRANCH  20  23
ATOM     23  O   UNL     1       3.267   6.237  18.183  0.00  0.00    +0.000 OA
ATOM     24  C   UNL     1       3.926   5.588  19.266  0.00  0.00    +0.000 C 
ENDBRANCH  20  23
ENDBRANCH   7  17
BRANCH   1  25
ATOM     25  C   UNL     1      -1.878   9.916  18.639  0.00  0.00    +0.000 C 
BRANCH  25  26
ATOM     26  C   UNL     1      -1.695  10.002  17.119  0.00  0.00    +0.000 C 
BRANCH  26  28
ATOM     27  C   UNL     1      -2.977  10.258  14.975  0.00  0.00    +0.000 C 
ATOM     28  C   UNL     1      -3.043   9.799  16.420  0.00  0.00    +0.000 C 
ENDBRANCH  26  28
ENDBRANCH  25  26
ENDBRANCH   1  25
TORSDOF 6
ENDMDL
MODEL 6
REMARK VINA RESULT:      -6.5      4.341      8.970
REMARK  Name = 
REMARK  9 active torsions:
REMARK  status: ('A' for Active; 'I' for Inactive)
REMARK    1  A    between atoms: C_1  and  C_2
REMARK    2  A    between atoms: C_2  and  C_3
REMARK    3  A    between atoms: C_3  and  C_4
REMARK    4  A    between atoms: C_4  and  C_5
REMARK    5  A    between atoms: C_6  and  C_7
REMARK    6  A    between atoms: C_10  and  C_11
REMARK    7  A    between atoms: C_18  and  C_19
REMARK    8  A    between atoms: C_22  and  O_23
REMARK    9  A    between atoms: O_23  and  C_24
REMARK                            x       y       z     vdW  Elec       q    Type
REMARK                         _______ _______ _______ _____ _____    ______ ____
ROOT
ATOM      1  C   UNL     1      -1.150  10.938  19.534  0.00  0.00    +0.000 A 
ATOM      2  C   UNL     1      -1.766  12.060  20.108  0.00  0.00    +0.000 A 
ATOM      3  N   UNL     1      -1.045  13.028  20.725  0.00  0.00    +0.000 NA
ATOM      4  C   UNL     1       0.265  12.859  20.840  0.00  0.00    +0.000 A 
ATOM      5  N   UNL     1       0.997  13.890  21.397  0.00  0.00    +0.000 N 
ATOM      6  N   UNL     1       0.928  11.799  20.403  0.00  0.00    +0.000 NA
ATOM      7  C   UNL     1       0.229  10.824  19.778  0.00  0.00    +0.000 A 
ATOM      8  H   UNL     1       0.496  14.760  21.280  0.00  0.00    +0.000 HD
ATOM      9  H   UNL     1       1.947  13.853  21.056  0.00  0.00    +0.000 HD
ENDROOT
BRANCH   2  10
ATOM     10  C   UNL     1      -3.231  12.359  20.138  0.00  0.00    +0.000 A 
ATOM     11  C   UNL     1      -3.896  12.820  21.289  0.00  0.00    +0.000 A 
ATOM     12  C   UNL     1      -5.274  13.068  21.298  0.00  0.00    +0.000 A 
ATOM     13  C   UNL     1      -6.028  12.935  20.133  0.00  0.00    +0.000 A 
ATOM     14  C   UNL     1      -7.487  13.278  20.120  0.00  0.00    +0.000 C 
ATOM     15  C   UNL     1      -5.382  12.518  18.966  0.00  0.00    +0.000 A 
ATOM     16  C   UNL     1      -4.013  12.229  18.976  0.00  0.00    +0.000 A 
ENDBRANCH   2  10
BRANCH   7  17
ATOM     17  C   UNL     1       1.099   9.686  19.362  0.00  0.00    +0.000 A 
ATOM     18  C   UNL     1       1.372   8.586  20.192  0.00  0.00    +0.000 A 
ATOM     19  C   UNL     1       2.091   7.478  19.727  0.00  0.00    +0.000 A 
ATOM     20  C   UNL     1       2.625   7.469  18.442  0.00  0.00    +0.000 A 
ATOM     21  C   UNL     1       2.475   8.596  17.640  0.00  0.00    +0.000 A 
ATOM     22  C   UNL     1       1.714   9.684  18.095  0.00  0.00    +0.000 A 
BRANCH  20  23
ATOM     23  O   UNL     1       3.302   6.332  18.101  0.00  0.00    +0.000 OA
ATOM     24  C   UNL     1       2.649   5.104  18.408  0.00  0.00    +0.000 C 
ENDBRANCH  20  23
ENDBRANCH   7  17
BRANCH   1  25
ATOM     25  C   UNL     1      -1.892   9.918  18.699  0.00  0.00    +0.000 C 
BRANCH  25  26
ATOM     26  C   UNL     1      -1.692   9.990  17.181  0.00  0.00    +0.000 C 
BRANCH  26  28
ATOM     27  C   UNL     1      -3.148  10.757  15.284  0.00  0.00    +0.000 C 
ATOM     28  C   UNL     1      -3.036   9.815  16.468  0.00  0.00    +0.000 C 
ENDBRANCH  26  28
ENDBRANCH  25  26
ENDBRANCH   1  25
TORSDOF 6
ENDMDL
MODEL 7
REMARK VINA RESULT:      -6.4      4.335      8.929
REMARK  Name = 
REMARK  9 active torsions:
REMARK  status: ('A' for Active; 'I' for Inactive)
REMARK    1  A    between atoms: C_1  and  C_2
REMARK    2  A    between atoms: C_2  and  C_3
REMARK    3  A    between atoms: C_3  and  C_4
REMARK    4  A    between atoms: C_4  and  C_5
REMARK    5  A    between atoms: C_6  and  C_7
REMARK    6  A    between atoms: C_10  and  C_11
REMARK    7  A    between atoms: C_18  and  C_19
REMARK    8  A    between atoms: C_22  and  O_23
REMARK    9  A    between atoms: O_23  and  C_24
REMARK                            x       y       z     vdW  Elec       q    Type
REMARK                         _______ _______ _______ _____ _____    ______ ____
ROOT
ATOM      1  C   UNL     1      -1.106  10.913  19.429  0.00  0.00    +0.000 A 
ATOM      2  C   UNL     1      -1.671  12.067  19.992  0.00  0.00    +0.000 A 
ATOM      3  N   UNL     1      -0.908  13.001  20.610  0.00  0.00    +0.000 NA
ATOM      4  C   UNL     1       0.391  12.768  20.737  0.00  0.00    +0.000 A 
ATOM      5  N   UNL     1       1.168  13.765  21.296  0.00  0.00    +0.000 N 
ATOM      6  N   UNL     1       1.005  11.675  20.311  0.00  0.00    +0.000 NA
ATOM      7  C   UNL     1       0.264  10.732  19.684  0.00  0.00    +0.000 A 
ATOM      8  H   UNL     1       0.712  14.658  21.170  0.00  0.00    +0.000 HD
ATOM      9  H   UNL     1       2.118  13.680  20.963  0.00  0.00    +0.000 HD
ENDROOT
BRANCH   2  10
ATOM     10  C   UNL     1      -3.119  12.438  20.008  0.00  0.00    +0.000 A 
ATOM     11  C   UNL     1      -3.711  13.170  21.053  0.00  0.00    +0.000 A 
ATOM     12  C   UNL     1      -5.076  13.483  21.057  0.00  0.00    +0.000 A 
ATOM     13  C   UNL     1      -5.888  13.137  19.977  0.00  0.00    +0.000 A 
ATOM     14  C   UNL     1      -7.330  13.541  19.942  0.00  0.00    +0.000 C 
ATOM     15  C   UNL     1      -5.314  12.446  18.908  0.00  0.00    +0.000 A 
ATOM     16  C   UNL     1      -3.958  12.097  18.932  0.00  0.00    +0.000 A 
ENDBRANCH   2  10
BRANCH   7  17
ATOM     17  C   UNL     1       1.079   9.551  19.281  0.00  0.00    +0.000 A 
ATOM     18  C   UNL     1       1.654   9.415  18.006  0.00  0.00    +0.000 A 
ATOM     19  C   UNL     1       2.516   8.354  17.700  0.00  0.00    +0.000 A 
ATOM     20  C   UNL     1       2.767   7.354  18.635  0.00  0.00    +0.000 A 
ATOM     21  C   UNL     1       2.113   7.398  19.862  0.00  0.00    +0.000 A 
ATOM     22  C   UNL     1       1.289   8.487  20.180  0.00  0.00    +0.000 A 
BRANCH  20  23
ATOM     23  O   UNL     1       3.626   6.375  18.223  0.00  0.00    +0.000 OA
ATOM     24  C   UNL     1       4.087   5.486  19.236  0.00  0.00    +0.000 C 
ENDBRANCH  20  23
ENDBRANCH   7  17
BRANCH   1  25
ATOM     25  C   UNL     1      -1.891   9.927  18.592  0.00  0.00    +0.000 C 
BRANCH  25  26
ATOM     26  C   UNL     1      -1.720  10.020  17.071  0.00  0.00    +0.000 C 
BRANCH  26  28
ATOM     27  C   UNL     1      -2.984  10.164  14.906  0.00  0.00    +0.000 C 
ATOM     28  C   UNL     1      -3.072   9.817  16.381  0.00  0.00    +0.000 C 
ENDBRANCH  26  28
ENDBRANCH  25  26
ENDBRANCH   1  25
TORSDOF 6
ENDMDL
MODEL 8
REMARK VINA RESULT:      -6.4      4.363      9.010
REMARK  Name = 
REMARK  9 active torsions:
REMARK  status: ('A' for Active; 'I' for Inactive)
REMARK    1  A    between atoms: C_1  and  C_2
REMARK    2  A    between atoms: C_2  and  C_3
REMARK    3  A    between atoms: C_3  and  C_4
REMARK    4  A    between atoms: C_4  and  C_5
REMARK    5  A    between atoms: C_6  and  C_7
REMARK    6  A    between atoms: C_10  and  C_11
REMARK    7  A    between atoms: C_18  and  C_19
REMARK    8  A    between atoms: C_22  and  O_23
REMARK    9  A    between atoms: O_23  and  C_24
REMARK                            x       y       z     vdW  Elec       q    Type
REMARK                         _______ _______ _______ _____ _____    ______ ____
ROOT
ATOM      1  C   UNL     1      -1.151  10.969  19.392  0.00  0.00    +0.000 A 
ATOM      2  C   UNL     1      -1.717  12.128  19.943  0.00  0.00    +0.000 A 
ATOM      3  N   UNL     1      -0.958  13.057  20.574  0.00  0.00    +0.000 NA
ATOM      4  C   UNL     1       0.337  12.814  20.726  0.00  0.00    +0.000 A 
ATOM      5  N   UNL     1       1.111  13.806  21.297  0.00  0.00    +0.000 N 
ATOM      6  N   UNL     1       0.949  11.716  20.313  0.00  0.00    +0.000 NA
ATOM      7  C   UNL     1       0.213  10.777  19.673  0.00  0.00    +0.000 A 
ATOM      8  H   UNL     1       0.664  14.702  21.162  0.00  0.00    +0.000 HD
ATOM      9  H   UNL     1       2.067  13.712  20.982  0.00  0.00    +0.000 HD
ENDROOT
BRANCH   2  10
ATOM     10  C   UNL     1      -3.162  12.510  19.932  0.00  0.00    +0.000 A 
ATOM     11  C   UNL     1      -4.071  12.045  18.965  0.00  0.00    +0.000 A 
ATOM     12  C   UNL     1      -5.415  12.437  18.961  0.00  0.00    +0.000 A 
ATOM     13  C   UNL     1      -5.918  13.256  19.971  0.00  0.00    +0.000 A 
ATOM     14  C   UNL     1      -7.373  13.612  20.016  0.00  0.00    +0.000 C 
ATOM     15  C   UNL     1      -5.044  13.698  20.968  0.00  0.00    +0.000 A 
ATOM     16  C   UNL     1      -3.692  13.337  20.939  0.00  0.00    +0.000 A 
ENDBRANCH   2  10
BRANCH   7  17
ATOM     17  C   UNL     1       1.026   9.589  19.287  0.00  0.00    +0.000 A 
ATOM     18  C   UNL     1       1.583   9.423  18.008  0.00  0.00    +0.000 A 
ATOM     19  C   UNL     1       2.443   8.358  17.716  0.00  0.00    +0.000 A 
ATOM     20  C   UNL     1       2.712   7.382  18.671  0.00  0.00    +0.000 A 
ATOM     21  C   UNL     1       2.076   7.454  19.906  0.00  0.00    +0.000 A 
ATOM     22  C   UNL     1       1.252   8.548  20.209  0.00  0.00    +0.000 A 
BRANCH  20  23
ATOM     23  O   UNL     1       3.568   6.395  18.270  0.00  0.00    +0.000 OA
ATOM     24  C   UNL     1       4.462   6.739  17.216  0.00  0.00    +0.000 C 
ENDBRANCH  20  23
ENDBRANCH   7  17
BRANCH   1  25
ATOM     25  C   UNL     1      -1.928   9.988  18.542  0.00  0.00    +0.000 C 
BRANCH  25  26
ATOM     26  C   UNL     1      -1.728  10.078  17.025  0.00  0.00    +0.000 C 
BRANCH  26  28
ATOM     27  C   UNL     1      -3.350  10.790  15.245  0.00  0.00    +0.000 C 
ATOM     28  C   UNL     1      -3.041   9.750  16.306  0.00  0.00    +0.000 C 
ENDBRANCH  26  28
ENDBRANCH  25  26
ENDBRANCH   1  25
TORSDOF 6
ENDMDL
MODEL 9
REMARK VINA RESULT:      -6.4      3.364      5.115
REMARK  Name = 
REMARK  9 active torsions:
REMARK  status: ('A' for Active; 'I' for Inactive)
REMARK    1  A    between atoms: C_1  and  C_2
REMARK    2  A    between atoms: C_2  and  C_3
REMARK    3  A    between atoms: C_3  and  C_4
REMARK    4  A    between atoms: C_4  and  C_5
REMARK    5  A    between atoms: C_6  and  C_7
REMARK    6  A    between atoms: C_10  and  C_11
REMARK    7  A    between atoms: C_18  and  C_19
REMARK    8  A    between atoms: C_22  and  O_23
REMARK    9  A    between atoms: O_23  and  C_24
REMARK                            x       y       z     vdW  Elec       q    Type
REMARK                         _______ _______ _______ _____ _____    ______ ____
ROOT
ATOM      1  C   UNL     1       1.159   9.834  19.933  0.00  0.00    +0.000 A 
ATOM      2  C   UNL     1       1.254   8.600  20.593  0.00  0.00    +0.000 A 
ATOM      3  N   UNL     1       0.885   8.459  21.889  0.00  0.00    +0.000 NA
ATOM      4  C   UNL     1       0.493   9.537  22.553  0.00  0.00    +0.000 A 
ATOM      5  N   UNL     1       0.042   9.364  23.847  0.00  0.00    +0.000 N 
ATOM      6  N   UNL     1       0.444  10.758  22.043  0.00  0.00    +0.000 NA
ATOM      7  C   UNL     1       0.801  10.922  20.747  0.00  0.00    +0.000 A 
ATOM      8  H   UNL     1      -0.286   8.415  23.965  0.00  0.00    +0.000 HD
ATOM      9  H   UNL     1      -0.599  10.108  24.085  0.00  0.00    +0.000 HD
ENDROOT
BRANCH   2  10
ATOM     10  C   UNL     1       1.752   7.314  20.016  0.00  0.00    +0.000 A 
ATOM     11  C   UNL     1       2.541   7.248  18.854  0.00  0.00    +0.000 A 
ATOM     12  C   UNL     1       2.974   6.028  18.320  0.00  0.00    +0.000 A 
ATOM     13  C   UNL     1       2.694   4.828  18.972  0.00  0.00    +0.000 A 
ATOM     14  C   UNL     1       3.224   3.529  18.447  0.00  0.00    +0.000 C 
ATOM     15  C   UNL     1       1.947   4.870  20.152  0.00  0.00    +0.000 A 
ATOM     16  C   UNL     1       1.480   6.090  20.655  0.00  0.00    +0.000 A 
ENDBRANCH   2  10
BRANCH   7  17
ATOM     17  C   UNL     1       0.720  12.347  20.316  0.00  0.00    +0.000 A 
ATOM     18  C   UNL     1       1.843  13.187  20.227  0.00  0.00    +0.000 A 
ATOM     19  C   UNL     1       1.750  14.481  19.702  0.00  0.00    +0.000 A 
ATOM     20  C   UNL     1       0.517  15.004  19.322  0.00  0.00    +0.000 A 
ATOM     21  C   UNL     1      -0.629  14.240  19.515  0.00  0.00    +0.000 A 
ATOM     22  C   UNL     1      -0.523  12.927  19.998  0.00  0.00    +0.000 A 
BRANCH  20  23
ATOM     23  O   UNL     1       0.554  16.275  18.821  0.00  0.00    +0.000 OA
ATOM     24  C   UNL     1      -0.711  16.890  18.594  0.00  0.00    +0.000 C 
ENDBRANCH  20  23
ENDBRANCH   7  17
BRANCH   1  25
ATOM     25  C   UNL     1       1.405  10.005  18.450  0.00  0.00    +0.000 C 
BRANCH  25  26
ATOM     26  C   UNL     1       0.295   9.528  17.505  0.00  0.00    +0.000 C 
BRANCH  26  28
ATOM     27  C   UNL     1      -2.090   9.968  16.853  0.00  0.00    +0.000 C 
ATOM     28  C   UNL     1      -1.053  10.102  17.953  0.00  0.00    +0.000 C 
ENDBRANCH  26  28
ENDBRANCH  25  26
ENDBRANCH   1  25
TORSDOF 6
ENDMDL
