MODEL 1
REMARK VINA RESULT:      -9.1      0.000      0.000
REMARK  Name = 
REMARK  9 active torsions:
REMARK  status: ('A' for Active; 'I' for Inactive)
REMARK    1  A    between atoms: C_1  and  C_2
REMARK    2  A    between atoms: C_4  and  C_5
REMARK    3  A    between atoms: C_9  and  C_10
REMARK    4  A    between atoms: C_12  and  C_13
REMARK    5  A    between atoms: N_21  and  C_22
REMARK    6  A    between atoms: N_25  and  C_26
REMARK    7  A    between atoms: C_26  and  C_27
REMARK    8  A    between atoms: C_26  and  C_28
REMARK    9  A    between atoms: C_26  and  C_29
REMARK                            x       y       z     vdW  Elec       q    Type
REMARK                         _______ _______ _______ _____ _____    ______ ____
ROOT
ATOM      1  C   UNL     1      -0.235  12.273  18.497  0.00  0.00    +0.000 C 
ATOM      2  C   UNL     1       0.083  11.028  19.224  0.00  0.00    +0.000 A 
ATOM      3  N   UNL     1      -0.577  10.635  20.350  0.00  0.00    +0.000 NA
ATOM      4  C   UNL     1       0.002   9.489  20.666  0.00  0.00    +0.000 A 
ATOM      5  C   UNL     1      -0.315   8.661  21.850  0.00  0.00    +0.000 C 
ATOM      6  N   UNL     1       0.975   9.188  19.728  0.00  0.00    +0.000 N 
ATOM      7  C   UNL     1       1.801   8.035  19.605  0.00  0.00    +0.000 A 
ATOM      8  C   UNL     1       2.731   8.024  18.589  0.00  0.00    +0.000 A 
ATOM      9  C   UNL     1       3.483   6.884  18.433  0.00  0.00    +0.000 A 
ATOM     10  N   UNL     1       3.310   5.833  19.257  0.00  0.00    +0.000 NA
ATOM     11  C   UNL     1       2.391   5.910  20.225  0.00  0.00    +0.000 A 
ATOM     12  N   UNL     1       2.153   4.833  21.060  0.00  0.00    +0.000 N 
ATOM     13  N   UNL     1       1.627   6.988  20.442  0.00  0.00    +0.000 NA
ATOM     14  N   UNL     1       1.047  10.204  18.816  0.00  0.00    +0.000 NA
ATOM     15  H   UNL     1       1.277   5.045  21.531  0.00  0.00    +0.000 HD
ENDROOT
BRANCH  12  16
ATOM     16  C   UNL     1       2.247   3.458  20.547  0.00  0.00    +0.000 C 
ATOM     17  C   UNL     1       3.695   3.072  20.201  0.00  0.00    +0.000 C 
ATOM     18  C   UNL     1       1.783   2.525  21.686  0.00  0.00    +0.000 C 
ATOM     19  C   UNL     1       1.314   3.239  19.345  0.00  0.00    +0.000 C 
ENDBRANCH  12  16
BRANCH   9  20
ATOM     20  C   UNL     1       4.460   6.807  17.294  0.00  0.00    +0.000 C 
ATOM     21  C   UNL     1       5.818   7.415  17.450  0.00  0.00    +0.000 C 
ATOM     22  C   UNL     1       5.690   5.911  17.323  0.00  0.00    +0.000 C 
BRANCH  22  23
ATOM     23  C   UNL     1       6.055   5.268  15.986  0.00  0.00    +0.000 A 
ATOM     24  N   UNL     1       7.024   5.742  15.229  0.00  0.00    +0.000 NA
ATOM     25  C   UNL     1       6.986   5.005  14.078  0.00  0.00    +0.000 A 
ATOM     26  C   UNL     1       7.736   5.161  12.903  0.00  0.00    +0.000 A 
ATOM     27  C   UNL     1       7.499   4.292  11.833  0.00  0.00    +0.000 A 
ATOM     28  C   UNL     1       6.565   3.261  11.948  0.00  0.00    +0.000 A 
ATOM     29  C   UNL     1       5.812   3.086  13.116  0.00  0.00    +0.000 A 
ATOM     30  C   UNL     1       6.025   4.001  14.156  0.00  0.00    +0.000 A 
ATOM     31  N   UNL     1       5.419   4.215  15.372  0.00  0.00    +0.000 N 
ATOM     32  C   UNL     1       4.215   3.578  15.845  0.00  0.00    +0.000 C 
ENDBRANCH  22  23
ENDBRANCH   9  20
TORSDOF 3
ENDMDL
MODEL 2
REMARK VINA RESULT:      -8.5      3.567      6.709
REMARK  Name = 
REMARK  9 active torsions:
REMARK  status: ('A' for Active; 'I' for Inactive)
REMARK    1  A    between atoms: C_1  and  C_2
REMARK    2  A    between atoms: C_4  and  C_5
REMARK    3  A    between atoms: C_9  and  C_10
REMARK    4  A    between atoms: C_12  and  C_13
REMARK    5  A    between atoms: N_21  and  C_22
REMARK    6  A    between atoms: N_25  and  C_26
REMARK    7  A    between atoms: C_26  and  C_27
REMARK    8  A    between atoms: C_26  and  C_28
REMARK    9  A    between atoms: C_26  and  C_29
REMARK                            x       y       z     vdW  Elec       q    Type
REMARK                         _______ _______ _______ _____ _____    ______ ____
ROOT
ATOM      1  C   UNL     1       4.806  15.126  18.689  0.00  0.00    +0.000 C 
ATOM      2  C   UNL     1       3.394  14.703  18.778  0.00  0.00    +0.000 A 
ATOM      3  N   UNL     1       2.371  15.573  19.010  0.00  0.00    +0.000 NA
ATOM      4  C   UNL     1       1.298  14.800  19.004  0.00  0.00    +0.000 A 
ATOM      5  C   UNL     1      -0.088  15.249  19.260  0.00  0.00    +0.000 C 
ATOM      6  N   UNL     1       1.672  13.493  18.746  0.00  0.00    +0.000 N 
ATOM      7  C   UNL     1       0.868  12.330  18.568  0.00  0.00    +0.000 A 
ATOM      8  C   UNL     1       1.518  11.133  18.368  0.00  0.00    +0.000 A 
ATOM      9  C   UNL     1       0.740  10.024  18.132  0.00  0.00    +0.000 A 
ATOM     10  N   UNL     1      -0.603  10.122  18.113  0.00  0.00    +0.000 NA
ATOM     11  C   UNL     1      -1.170  11.316  18.317  0.00  0.00    +0.000 A 
ATOM     12  N   UNL     1      -2.544  11.463  18.255  0.00  0.00    +0.000 N 
ATOM     13  N   UNL     1      -0.479  12.436  18.557  0.00  0.00    +0.000 NA
ATOM     14  N   UNL     1       3.032  13.429  18.634  0.00  0.00    +0.000 NA
ATOM     15  H   UNL     1      -2.706  12.466  18.203  0.00  0.00    +0.000 HD
ENDROOT
BRANCH  12  16
ATOM     16  C   UNL     1      -3.337  10.672  17.303  0.00  0.00    +0.000 C 
ATOM     17  C   UNL     1      -3.633   9.260  17.836  0.00  0.00    +0.000 C 
ATOM     18  C   UNL     1      -4.692  11.394  17.142  0.00  0.00    +0.000 C 
ATOM     19  C   UNL     1      -2.665  10.611  15.922  0.00  0.00    +0.000 C 
ENDBRANCH  12  16
BRANCH   9  20
ATOM     20  C   UNL     1       1.413   8.711  17.842  0.00  0.00    +0.000 C 
ATOM     21  C   UNL     1       2.857   8.697  17.453  0.00  0.00    +0.000 C 
ATOM     22  C   UNL     1       2.441   8.089  18.775  0.00  0.00    +0.000 C 
BRANCH  22  23
ATOM     23  C   UNL     1       2.382   6.565  18.879  0.00  0.00    +0.000 A 
ATOM     24  N   UNL     1       2.766   5.786  17.888  0.00  0.00    +0.000 NA
ATOM     25  C   UNL     1       2.464   4.512  18.283  0.00  0.00    +0.000 A 
ATOM     26  C   UNL     1       2.575   3.314  17.563  0.00  0.00    +0.000 A 
ATOM     27  C   UNL     1       2.174   2.122  18.175  0.00  0.00    +0.000 A 
ATOM     28  C   UNL     1       1.712   2.119  19.492  0.00  0.00    +0.000 A 
ATOM     29  C   UNL     1       1.601   3.305  20.228  0.00  0.00    +0.000 A 
ATOM     30  C   UNL     1       1.956   4.495  19.579  0.00  0.00    +0.000 A 
ATOM     31  N   UNL     1       1.879   5.825  19.923  0.00  0.00    +0.000 N 
ATOM     32  C   UNL     1       1.222   6.364  21.087  0.00  0.00    +0.000 C 
ENDBRANCH  22  23
ENDBRANCH   9  20
TORSDOF 3
ENDMDL
MODEL 3
REMARK VINA RESULT:      -8.3      3.249      6.990
REMARK  Name = 
REMARK  9 active torsions:
REMARK  status: ('A' for Active; 'I' for Inactive)
REMARK    1  A    between atoms: C_1  and  C_2
REMARK    2  A    between atoms: C_4  and  C_5
REMARK    3  A    between atoms: C_9  and  C_10
REMARK    4  A    between atoms: C_12  and  C_13
REMARK    5  A    between atoms: N_21  and  C_22
REMARK    6  A    between atoms: N_25  and  C_26
REMARK    7  A    between atoms: C_26  and  C_27
REMARK    8  A    between atoms: C_26  and  C_28
REMARK    9  A    between atoms: C_26  and  C_29
REMARK                            x       y       z     vdW  Elec       q    Type
REMARK                         _______ _______ _______ _____ _____    ______ ____
ROOT
ATOM      1  C   UNL     1       4.591  15.185  19.539  0.00  0.00    +0.000 C 
ATOM      2  C   UNL     1       3.167  14.801  19.464  0.00  0.00    +0.000 A 
ATOM      3  N   UNL     1       2.147  15.695  19.601  0.00  0.00    +0.000 NA
ATOM      4  C   UNL     1       1.062  14.953  19.461  0.00  0.00    +0.000 A 
ATOM      5  C   UNL     1      -0.332  15.435  19.573  0.00  0.00    +0.000 C 
ATOM      6  N   UNL     1       1.428  13.640  19.217  0.00  0.00    +0.000 N 
ATOM      7  C   UNL     1       0.619  12.504  18.927  0.00  0.00    +0.000 A 
ATOM      8  C   UNL     1       1.256  11.293  18.774  0.00  0.00    +0.000 A 
ATOM      9  C   UNL     1       0.481  10.210  18.431  0.00  0.00    +0.000 A 
ATOM     10  N   UNL     1      -0.849  10.347  18.266  0.00  0.00    +0.000 NA
ATOM     11  C   UNL     1      -1.404  11.551  18.432  0.00  0.00    +0.000 A 
ATOM     12  N   UNL     1      -2.759  11.739  18.223  0.00  0.00    +0.000 N 
ATOM     13  N   UNL     1      -0.715  12.648  18.771  0.00  0.00    +0.000 NA
ATOM     14  N   UNL     1       2.790  13.540  19.253  0.00  0.00    +0.000 NA
ATOM     15  H   UNL     1      -2.888  12.746  18.175  0.00  0.00    +0.000 HD
ENDROOT
BRANCH  12  16
ATOM     16  C   UNL     1      -3.462  10.988  17.173  0.00  0.00    +0.000 C 
ATOM     17  C   UNL     1      -3.703   9.524  17.578  0.00  0.00    +0.000 C 
ATOM     18  C   UNL     1      -4.846  11.649  17.002  0.00  0.00    +0.000 C 
ATOM     19  C   UNL     1      -2.726  11.075  15.827  0.00  0.00    +0.000 C 
ENDBRANCH  12  16
BRANCH   9  20
ATOM     20  C   UNL     1       1.147   8.885  18.188  0.00  0.00    +0.000 C 
ATOM     21  C   UNL     1       2.463   8.845  17.477  0.00  0.00    +0.000 C 
ATOM     22  C   UNL     1       2.396   8.442  18.935  0.00  0.00    +0.000 C 
BRANCH  22  23
ATOM     23  C   UNL     1       2.455   6.953  19.274  0.00  0.00    +0.000 A 
ATOM     24  N   UNL     1       1.802   6.449  20.302  0.00  0.00    +0.000 NA
ATOM     25  C   UNL     1       2.179   5.136  20.368  0.00  0.00    +0.000 A 
ATOM     26  C   UNL     1       1.855   4.171  21.333  0.00  0.00    +0.000 A 
ATOM     27  C   UNL     1       2.388   2.885  21.204  0.00  0.00    +0.000 A 
ATOM     28  C   UNL     1       3.191   2.554  20.111  0.00  0.00    +0.000 A 
ATOM     29  C   UNL     1       3.519   3.503  19.134  0.00  0.00    +0.000 A 
ATOM     30  C   UNL     1       3.021   4.800  19.311  0.00  0.00    +0.000 A 
ATOM     31  N   UNL     1       3.211   5.991  18.648  0.00  0.00    +0.000 N 
ATOM     32  C   UNL     1       4.170   6.235  17.599  0.00  0.00    +0.000 C 
ENDBRANCH  22  23
ENDBRANCH   9  20
TORSDOF 3
ENDMDL
MODEL 4
REMARK VINA RESULT:      -8.0      3.424      6.649
REMARK  Name = 
REMARK  9 active torsions:
REMARK  status: ('A' for Active; 'I' for Inactive)
REMARK    1  A    between atoms: C_1  and  C_2
REMARK    2  A    between atoms: C_4  and  C_5
REMARK    3  A    between atoms: C_9  and  C_10
REMARK    4  A    between atoms: C_12  and  C_13
REMARK    5  A    between atoms: N_21  and  C_22
REMARK    6  A    between atoms: N_25  and  C_26
REMARK    7  A    between atoms: C_26  and  C_27
REMARK    8  A    between atoms: C_26  and  C_28
REMARK    9  A    between atoms: C_26  and  C_29
REMARK                            x       y       z     vdW  Elec       q    Type
REMARK                         _______ _______ _______ _____ _____    ______ ____
ROOT
ATOM      1  C   UNL     1       4.428  14.971  20.392  0.00  0.00    +0.000 C 
ATOM      2  C   UNL     1       3.020  14.550  20.248  0.00  0.00    +0.000 A 
ATOM      3  N   UNL     1       1.967  15.372  20.519  0.00  0.00    +0.000 NA
ATOM      4  C   UNL     1       0.911  14.620  20.257  0.00  0.00    +0.000 A 
ATOM      5  C   UNL     1      -0.500  15.026  20.435  0.00  0.00    +0.000 C 
ATOM      6  N   UNL     1       1.327  13.377  19.811  0.00  0.00    +0.000 N 
ATOM      7  C   UNL     1       0.561  12.272  19.341  0.00  0.00    +0.000 A 
ATOM      8  C   UNL     1       1.244  11.125  19.003  0.00  0.00    +0.000 A 
ATOM      9  C   UNL     1       0.511  10.081  18.489  0.00  0.00    +0.000 A 
ATOM     10  N   UNL     1      -0.823  10.192  18.340  0.00  0.00    +0.000 NA
ATOM     11  C   UNL     1      -1.424  11.333  18.690  0.00  0.00    +0.000 A 
ATOM     12  N   UNL     1      -2.785  11.500  18.505  0.00  0.00    +0.000 N 
ATOM     13  N   UNL     1      -0.777  12.388  19.202  0.00  0.00    +0.000 NA
ATOM     14  N   UNL     1       2.692  13.325  19.840  0.00  0.00    +0.000 NA
ATOM     15  H   UNL     1      -2.952  12.497  18.616  0.00  0.00    +0.000 HD
ENDROOT
BRANCH  12  16
ATOM     16  C   UNL     1      -3.459  10.898  17.346  0.00  0.00    +0.000 C 
ATOM     17  C   UNL     1      -4.820  11.558  17.067  0.00  0.00    +0.000 C 
ATOM     18  C   UNL     1      -2.560  11.164  16.120  0.00  0.00    +0.000 C 
ATOM     19  C   UNL     1      -3.606   9.376  17.506  0.00  0.00    +0.000 C 
ENDBRANCH  12  16
BRANCH   9  20
ATOM     20  C   UNL     1       1.227   8.837  18.044  0.00  0.00    +0.000 C 
ATOM     21  C   UNL     1       2.636   8.939  17.550  0.00  0.00    +0.000 C 
ATOM     22  C   UNL     1       2.356   8.206  18.845  0.00  0.00    +0.000 C 
BRANCH  22  23
ATOM     23  C   UNL     1       2.387   6.678  18.829  0.00  0.00    +0.000 A 
ATOM     24  N   UNL     1       2.771   6.003  17.765  0.00  0.00    +0.000 NA
ATOM     25  C   UNL     1       2.557   4.686  18.067  0.00  0.00    +0.000 A 
ATOM     26  C   UNL     1       2.705   3.556  17.250  0.00  0.00    +0.000 A 
ATOM     27  C   UNL     1       2.396   2.299  17.778  0.00  0.00    +0.000 A 
ATOM     28  C   UNL     1       1.990   2.166  19.107  0.00  0.00    +0.000 A 
ATOM     29  C   UNL     1       1.844   3.283  19.940  0.00  0.00    +0.000 A 
ATOM     30  C   UNL     1       2.105   4.538  19.376  0.00  0.00    +0.000 A 
ATOM     31  N   UNL     1       1.969   5.830  19.828  0.00  0.00    +0.000 N 
ATOM     32  C   UNL     1       1.332   6.238  21.055  0.00  0.00    +0.000 C 
ENDBRANCH  22  23
ENDBRANCH   9  20
TORSDOF 3
ENDMDL
MODEL 5
REMARK VINA RESULT:      -7.7      3.143      6.766
REMARK  Name = 
REMARK  9 active torsions:
REMARK  status: ('A' for Active; 'I' for Inactive)
REMARK    1  A    between atoms: C_1  and  C_2
REMARK    2  A    between atoms: C_4  and  C_5
REMARK    3  A    between atoms: C_9  and  C_10
REMARK    4  A    between atoms: C_12  and  C_13
REMARK    5  A    between atoms: N_21  and  C_22
REMARK    6  A    between atoms: N_25  and  C_26
REMARK    7  A    between atoms: C_26  and  C_27
REMARK    8  A    between atoms: C_26  and  C_28
REMARK    9  A    between atoms: C_26  and  C_29
REMARK                            x       y       z     vdW  Elec       q    Type
REMARK                         _______ _______ _______ _____ _____    ______ ____
ROOT
ATOM      1  C   UNL     1       4.507  16.667  18.817  0.00  0.00    +0.000 C 
ATOM      2  C   UNL     1       3.123  16.154  18.748  0.00  0.00    +0.000 A 
ATOM      3  N   UNL     1       2.052  16.944  18.454  0.00  0.00    +0.000 NA
ATOM      4  C   UNL     1       1.030  16.106  18.488  0.00  0.00    +0.000 A 
ATOM      5  C   UNL     1      -0.389  16.470  18.283  0.00  0.00    +0.000 C 
ATOM      6  N   UNL     1       1.487  14.830  18.772  0.00  0.00    +0.000 N 
ATOM      7  C   UNL     1       0.776  13.598  18.836  0.00  0.00    +0.000 A 
ATOM      8  C   UNL     1       1.485  12.473  19.194  0.00  0.00    +0.000 A 
ATOM      9  C   UNL     1       0.812  11.274  19.193  0.00  0.00    +0.000 A 
ATOM     10  N   UNL     1      -0.493  11.224  18.863  0.00  0.00    +0.000 NA
ATOM     11  C   UNL     1      -1.123  12.354  18.527  0.00  0.00    +0.000 A 
ATOM     12  N   UNL     1      -2.449  12.333  18.134  0.00  0.00    +0.000 N 
ATOM     13  N   UNL     1      -0.535  13.557  18.511  0.00  0.00    +0.000 NA
ATOM     14  N   UNL     1       2.838  14.873  18.973  0.00  0.00    +0.000 NA
ATOM     15  H   UNL     1      -2.621  13.242  17.713  0.00  0.00    +0.000 HD
ENDROOT
BRANCH  12  16
ATOM     16  C   UNL     1      -2.981  11.199  17.365  0.00  0.00    +0.000 C 
ATOM     17  C   UNL     1      -2.648   9.851  18.025  0.00  0.00    +0.000 C 
ATOM     18  C   UNL     1      -4.518  11.343  17.364  0.00  0.00    +0.000 C 
ATOM     19  C   UNL     1      -2.500  11.232  15.905  0.00  0.00    +0.000 C 
ENDBRANCH  12  16
BRANCH   9  20
ATOM     20  C   UNL     1       1.567  10.015  19.511  0.00  0.00    +0.000 C 
ATOM     21  C   UNL     1       0.940   8.988  20.401  0.00  0.00    +0.000 C 
ATOM     22  C   UNL     1       1.181   8.657  18.943  0.00  0.00    +0.000 C 
BRANCH  22  23
ATOM     23  C   UNL     1       2.355   7.742  18.598  0.00  0.00    +0.000 A 
ATOM     24  N   UNL     1       3.135   7.974  17.561  0.00  0.00    +0.000 NA
ATOM     25  C   UNL     1       3.983   6.903  17.492  0.00  0.00    +0.000 A 
ATOM     26  C   UNL     1       4.947   6.600  16.519  0.00  0.00    +0.000 A 
ATOM     27  C   UNL     1       5.685   5.420  16.648  0.00  0.00    +0.000 A 
ATOM     28  C   UNL     1       5.497   4.580  17.747  0.00  0.00    +0.000 A 
ATOM     29  C   UNL     1       4.544   4.870  18.732  0.00  0.00    +0.000 A 
ATOM     30  C   UNL     1       3.777   6.029  18.556  0.00  0.00    +0.000 A 
ATOM     31  N   UNL     1       2.705   6.570  19.227  0.00  0.00    +0.000 N 
ATOM     32  C   UNL     1       1.959   5.938  20.286  0.00  0.00    +0.000 C 
ENDBRANCH  22  23
ENDBRANCH   9  20
TORSDOF 3
ENDMDL
MODEL 6
REMARK VINA RESULT:      -7.6      0.629      1.372
REMARK  Name = 
REMARK  9 active torsions:
REMARK  status: ('A' for Active; 'I' for Inactive)
REMARK    1  A    between atoms: C_1  and  C_2
REMARK    2  A    between atoms: C_4  and  C_5
REMARK    3  A    between atoms: C_9  and  C_10
REMARK    4  A    between atoms: C_12  and  C_13
REMARK    5  A    between atoms: N_21  and  C_22
REMARK    6  A    between atoms: N_25  and  C_26
REMARK    7  A    between atoms: C_26  and  C_27
REMARK    8  A    between atoms: C_26  and  C_28
REMARK    9  A    between atoms: C_26  and  C_29
REMARK                            x       y       z     vdW  Elec       q    Type
REMARK                         _______ _______ _______ _____ _____    ______ ____
ROOT
ATOM      1  C   UNL     1       0.007  12.398  18.550  0.00  0.00    +0.000 C 
ATOM      2  C   UNL     1       0.270  11.127  19.255  0.00  0.00    +0.000 A 
ATOM      3  N   UNL     1      -0.381  10.761  20.395  0.00  0.00    +0.000 NA
ATOM      4  C   UNL     1       0.137   9.579  20.683  0.00  0.00    +0.000 A 
ATOM      5  C   UNL     1      -0.196   8.758  21.868  0.00  0.00    +0.000 C 
ATOM      6  N   UNL     1       1.065   9.232  19.716  0.00  0.00    +0.000 N 
ATOM      7  C   UNL     1       1.817   8.033  19.559  0.00  0.00    +0.000 A 
ATOM      8  C   UNL     1       2.716   7.980  18.517  0.00  0.00    +0.000 A 
ATOM      9  C   UNL     1       3.394   6.798  18.328  0.00  0.00    +0.000 A 
ATOM     10  N   UNL     1       3.182   5.750  19.146  0.00  0.00    +0.000 NA
ATOM     11  C   UNL     1       2.296   5.871  20.141  0.00  0.00    +0.000 A 
ATOM     12  N   UNL     1       2.017   4.799  20.970  0.00  0.00    +0.000 N 
ATOM     13  N   UNL     1       1.604   6.989  20.389  0.00  0.00    +0.000 NA
ATOM     14  N   UNL     1       1.172  10.252  18.812  0.00  0.00    +0.000 NA
ATOM     15  H   UNL     1       1.169   5.057  21.468  0.00  0.00    +0.000 HD
ENDROOT
BRANCH  12  16
ATOM     16  C   UNL     1       2.014   3.427  20.442  0.00  0.00    +0.000 C 
ATOM     17  C   UNL     1       3.430   2.951  20.077  0.00  0.00    +0.000 C 
ATOM     18  C   UNL     1       1.500   2.514  21.574  0.00  0.00    +0.000 C 
ATOM     19  C   UNL     1       1.059   3.285  19.246  0.00  0.00    +0.000 C 
ENDBRANCH  12  16
BRANCH   9  20
ATOM     20  C   UNL     1       4.333   6.676  17.161  0.00  0.00    +0.000 C 
ATOM     21  C   UNL     1       5.787   6.971  17.355  0.00  0.00    +0.000 C 
ATOM     22  C   UNL     1       5.354   5.555  17.040  0.00  0.00    +0.000 C 
BRANCH  22  23
ATOM     23  C   UNL     1       5.579   5.034  15.620  0.00  0.00    +0.000 A 
ATOM     24  N   UNL     1       4.619   4.442  14.938  0.00  0.00    +0.000 NA
ATOM     25  C   UNL     1       5.204   4.007  13.781  0.00  0.00    +0.000 A 
ATOM     26  C   UNL     1       4.655   3.232  12.750  0.00  0.00    +0.000 A 
ATOM     27  C   UNL     1       5.465   2.885  11.664  0.00  0.00    +0.000 A 
ATOM     28  C   UNL     1       6.783   3.337  11.588  0.00  0.00    +0.000 A 
ATOM     29  C   UNL     1       7.347   4.118  12.605  0.00  0.00    +0.000 A 
ATOM     30  C   UNL     1       6.535   4.409  13.710  0.00  0.00    +0.000 A 
ATOM     31  N   UNL     1       6.759   5.031  14.916  0.00  0.00    +0.000 N 
ATOM     32  C   UNL     1       8.040   5.444  15.433  0.00  0.00    +0.000 C 
ENDBRANCH  22  23
ENDBRANCH   9  20
TORSDOF 3
ENDMDL
MODEL 7
REMARK VINA RESULT:      -7.5      3.020      6.486
REMARK  Name = 
REMARK  9 active torsions:
REMARK  status: ('A' for Active; 'I' for Inactive)
REMARK    1  A    between atoms: C_1  and  C_2
REMARK    2  A    between atoms: C_4  and  C_5
REMARK    3  A    between atoms: C_9  and  C_10
REMARK    4  A    between atoms: C_12  and  C_13
REMARK    5  A    between atoms: N_21  and  C_22
REMARK    6  A    between atoms: N_25  and  C_26
REMARK    7  A    between atoms: C_26  and  C_27
REMARK    8  A    between atoms: C_26  and  C_28
REMARK    9  A    between atoms: C_26  and  C_29
REMARK                            x       y       z     vdW  Elec       q    Type
REMARK                         _______ _______ _______ _____ _____    ______ ____
ROOT
ATOM      1  C   UNL     1       4.249  14.881  20.975  0.00  0.00    +0.000 C 
ATOM      2  C   UNL     1       2.856  14.432  20.773  0.00  0.00    +0.000 A 
ATOM      3  N   UNL     1       1.775  15.192  21.107  0.00  0.00    +0.000 NA
ATOM      4  C   UNL     1       0.746  14.436  20.761  0.00  0.00    +0.000 A 
ATOM      5  C   UNL     1      -0.679  14.779  20.958  0.00  0.00    +0.000 C 
ATOM      6  N   UNL     1       1.206  13.256  20.204  0.00  0.00    +0.000 N 
ATOM      7  C   UNL     1       0.482  12.177  19.620  0.00  0.00    +0.000 A 
ATOM      8  C   UNL     1       1.205  11.090  19.182  0.00  0.00    +0.000 A 
ATOM      9  C   UNL     1       0.510  10.078  18.561  0.00  0.00    +0.000 A 
ATOM     10  N   UNL     1      -0.825  10.161  18.405  0.00  0.00    +0.000 NA
ATOM     11  C   UNL     1      -1.466  11.245  18.856  0.00  0.00    +0.000 A 
ATOM     12  N   UNL     1      -2.829  11.386  18.669  0.00  0.00    +0.000 N 
ATOM     13  N   UNL     1      -0.858  12.265  19.474  0.00  0.00    +0.000 NA
ATOM     14  N   UNL     1       2.572  13.243  20.245  0.00  0.00    +0.000 NA
ATOM     15  H   UNL     1      -3.030  12.362  18.873  0.00  0.00    +0.000 HD
ENDROOT
BRANCH  12  16
ATOM     16  C   UNL     1      -3.472  10.878  17.449  0.00  0.00    +0.000 C 
ATOM     17  C   UNL     1      -4.824  11.561  17.185  0.00  0.00    +0.000 C 
ATOM     18  C   UNL     1      -2.540  11.236  16.272  0.00  0.00    +0.000 C 
ATOM     19  C   UNL     1      -3.624   9.349  17.485  0.00  0.00    +0.000 C 
ENDBRANCH  12  16
BRANCH   9  20
ATOM     20  C   UNL     1       1.271   8.906  18.009  0.00  0.00    +0.000 C 
ATOM     21  C   UNL     1       2.714   9.070  17.649  0.00  0.00    +0.000 C 
ATOM     22  C   UNL     1       2.337   8.167  18.804  0.00  0.00    +0.000 C 
BRANCH  22  23
ATOM     23  C   UNL     1       2.381   6.655  18.580  0.00  0.00    +0.000 A 
ATOM     24  N   UNL     1       1.552   5.838  19.196  0.00  0.00    +0.000 NA
ATOM     25  C   UNL     1       1.957   4.577  18.855  0.00  0.00    +0.000 A 
ATOM     26  C   UNL     1       1.480   3.340  19.313  0.00  0.00    +0.000 A 
ATOM     27  C   UNL     1       2.076   2.170  18.834  0.00  0.00    +0.000 A 
ATOM     28  C   UNL     1       3.098   2.229  17.885  0.00  0.00    +0.000 A 
ATOM     29  C   UNL     1       3.582   3.455  17.411  0.00  0.00    +0.000 A 
ATOM     30  C   UNL     1       3.009   4.617  17.944  0.00  0.00    +0.000 A 
ATOM     31  N   UNL     1       3.286   5.958  17.815  0.00  0.00    +0.000 N 
ATOM     32  C   UNL     1       4.429   6.529  17.147  0.00  0.00    +0.000 C 
ENDBRANCH  22  23
ENDBRANCH   9  20
TORSDOF 3
ENDMDL
MODEL 8
REMARK VINA RESULT:      -7.3      3.416      7.730
REMARK  Name = 
REMARK  9 active torsions:
REMARK  status: ('A' for Active; 'I' for Inactive)
REMARK    1  A    between atoms: C_1  and  C_2
REMARK    2  A    between atoms: C_4  and  C_5
REMARK    3  A    between atoms: C_9  and  C_10
REMARK    4  A    between atoms: C_12  and  C_13
REMARK    5  A    between atoms: N_21  and  C_22
REMARK    6  A    between atoms: N_25  and  C_26
REMARK    7  A    between atoms: C_26  and  C_27
REMARK    8  A    between atoms: C_26  and  C_28
REMARK    9  A    between atoms: C_26  and  C_29
REMARK                            x       y       z     vdW  Elec       q    Type
REMARK                         _______ _______ _______ _____ _____    ______ ____
ROOT
ATOM      1  C   UNL     1      -4.711  12.257  24.755  0.00  0.00    +0.000 C 
ATOM      2  C   UNL     1      -3.858  12.914  23.744  0.00  0.00    +0.000 A 
ATOM      3  N   UNL     1      -4.039  14.204  23.343  0.00  0.00    +0.000 NA
ATOM      4  C   UNL     1      -3.077  14.391  22.455  0.00  0.00    +0.000 A 
ATOM      5  C   UNL     1      -2.857  15.627  21.673  0.00  0.00    +0.000 C 
ATOM      6  N   UNL     1      -2.317  13.239  22.347  0.00  0.00    +0.000 N 
ATOM      7  C   UNL     1      -1.141  12.989  21.584  0.00  0.00    +0.000 A 
ATOM      8  C   UNL     1      -0.614  11.718  21.628  0.00  0.00    +0.000 A 
ATOM      9  C   UNL     1       0.558  11.495  20.943  0.00  0.00    +0.000 A 
ATOM     10  N   UNL     1       1.145  12.491  20.252  0.00  0.00    +0.000 NA
ATOM     11  C   UNL     1       0.579  13.702  20.249  0.00  0.00    +0.000 A 
ATOM     12  N   UNL     1       1.180  14.760  19.592  0.00  0.00    +0.000 N 
ATOM     13  N   UNL     1      -0.562  13.991  20.888  0.00  0.00    +0.000 NA
ATOM     14  N   UNL     1      -2.846  12.275  23.158  0.00  0.00    +0.000 NA
ATOM     15  H   UNL     1       0.703  15.593  19.928  0.00  0.00    +0.000 HD
ENDROOT
BRANCH  12  16
ATOM     16  C   UNL     1       2.645  14.877  19.549  0.00  0.00    +0.000 C 
ATOM     17  C   UNL     1       3.252  14.062  18.395  0.00  0.00    +0.000 C 
ATOM     18  C   UNL     1       2.967  16.362  19.281  0.00  0.00    +0.000 C 
ATOM     19  C   UNL     1       3.281  14.489  20.894  0.00  0.00    +0.000 C 
ENDBRANCH  12  16
BRANCH   9  20
ATOM     20  C   UNL     1       1.201  10.139  21.022  0.00  0.00    +0.000 C 
ATOM     21  C   UNL     1       0.641   9.115  21.957  0.00  0.00    +0.000 C 
ATOM     22  C   UNL     1       0.547   8.884  20.464  0.00  0.00    +0.000 C 
BRANCH  22  23
ATOM     23  C   UNL     1       1.509   7.879  19.829  0.00  0.00    +0.000 A 
ATOM     24  N   UNL     1       1.835   6.754  20.432  0.00  0.00    +0.000 NA
ATOM     25  C   UNL     1       2.790   6.177  19.642  0.00  0.00    +0.000 A 
ATOM     26  C   UNL     1       3.544   5.017  19.871  0.00  0.00    +0.000 A 
ATOM     27  C   UNL     1       4.493   4.632  18.918  0.00  0.00    +0.000 A 
ATOM     28  C   UNL     1       4.656   5.365  17.741  0.00  0.00    +0.000 A 
ATOM     29  C   UNL     1       3.907   6.522  17.492  0.00  0.00    +0.000 A 
ATOM     30  C   UNL     1       3.001   6.921  18.484  0.00  0.00    +0.000 A 
ATOM     31  N   UNL     1       2.196   8.024  18.647  0.00  0.00    +0.000 N 
ATOM     32  C   UNL     1       2.202   9.209  17.826  0.00  0.00    +0.000 C 
ENDBRANCH  22  23
ENDBRANCH   9  20
TORSDOF 3
ENDMDL
MODEL 9
REMARK VINA RESULT:      -7.2      3.576      7.803
REMARK  Name = 
REMARK  9 active torsions:
REMARK  status: ('A' for Active; 'I' for Inactive)
REMARK    1  A    between atoms: C_1  and  C_2
REMARK    2  A    between atoms: C_4  and  C_5
REMARK    3  A    between atoms: C_9  and  C_10
REMARK    4  A    between atoms: C_12  and  C_13
REMARK    5  A    between atoms: N_21  and  C_22
REMARK    6  A    between atoms: N_25  and  C_26
REMARK    7  A    between atoms: C_26  and  C_27
REMARK    8  A    between atoms: C_26  and  C_28
REMARK    9  A    between atoms: C_26  and  C_29
REMARK                            x       y       z     vdW  Elec       q    Type
REMARK                         _______ _______ _______ _____ _____    ______ ____
ROOT
ATOM      1  C   UNL     1       3.753  15.686  17.099  0.00  0.00    +0.000 C 
ATOM      2  C   UNL     1       2.771  15.669  18.202  0.00  0.00    +0.000 A 
ATOM      3  N   UNL     1       2.081  16.775  18.600  0.00  0.00    +0.000 NA
ATOM      4  C   UNL     1       1.320  16.330  19.586  0.00  0.00    +0.000 A 
ATOM      5  C   UNL     1       0.402  17.151  20.404  0.00  0.00    +0.000 C 
ATOM      6  N   UNL     1       1.534  14.973  19.757  0.00  0.00    +0.000 N 
ATOM      7  C   UNL     1       0.896  14.050  20.635  0.00  0.00    +0.000 A 
ATOM      8  C   UNL     1       1.348  12.750  20.628  0.00  0.00    +0.000 A 
ATOM      9  C   UNL     1       0.689  11.847  21.429  0.00  0.00    +0.000 A 
ATOM     10  N   UNL     1      -0.350  12.241  22.191  0.00  0.00    +0.000 NA
ATOM     11  C   UNL     1      -0.737  13.520  22.151  0.00  0.00    +0.000 A 
ATOM     12  N   UNL     1      -1.831  13.949  22.882  0.00  0.00    +0.000 N 
ATOM     13  N   UNL     1      -0.141  14.455  21.401  0.00  0.00    +0.000 NA
ATOM     14  N   UNL     1       2.498  14.557  18.882  0.00  0.00    +0.000 NA
ATOM     15  H   UNL     1      -2.061  14.867  22.509  0.00  0.00    +0.000 HD
ENDROOT
BRANCH  12  16
ATOM     16  C   UNL     1      -2.989  13.066  23.078  0.00  0.00    +0.000 C 
ATOM     17  C   UNL     1      -2.566  11.649  23.498  0.00  0.00    +0.000 C 
ATOM     18  C   UNL     1      -3.812  13.662  24.240  0.00  0.00    +0.000 C 
ATOM     19  C   UNL     1      -3.888  13.028  21.832  0.00  0.00    +0.000 C 
ENDBRANCH  12  16
BRANCH   9  20
ATOM     20  C   UNL     1       1.108  10.405  21.399  0.00  0.00    +0.000 C 
ATOM     21  C   UNL     1       0.251   9.377  22.067  0.00  0.00    +0.000 C 
ATOM     22  C   UNL     1       0.393   9.356  20.560  0.00  0.00    +0.000 C 
BRANCH  22  23
ATOM     23  C   UNL     1       1.300   8.295  19.937  0.00  0.00    +0.000 A 
ATOM     24  N   UNL     1       1.582   7.170  20.562  0.00  0.00    +0.000 NA
ATOM     25  C   UNL     1       2.500   6.532  19.774  0.00  0.00    +0.000 A 
ATOM     26  C   UNL     1       3.204   5.344  20.021  0.00  0.00    +0.000 A 
ATOM     27  C   UNL     1       4.122   4.895  19.067  0.00  0.00    +0.000 A 
ATOM     28  C   UNL     1       4.305   5.594  17.872  0.00  0.00    +0.000 A 
ATOM     29  C   UNL     1       3.606   6.778  17.606  0.00  0.00    +0.000 A 
ATOM     30  C   UNL     1       2.731   7.240  18.597  0.00  0.00    +0.000 A 
ATOM     31  N   UNL     1       1.979   8.382  18.745  0.00  0.00    +0.000 N 
ATOM     32  C   UNL     1       2.030   9.547  17.897  0.00  0.00    +0.000 C 
ENDBRANCH  22  23
ENDBRANCH   9  20
TORSDOF 3
ENDMDL
