MODEL 1
REMARK VINA RESULT:      -7.3      0.000      0.000
REMARK  Name = 
REMARK  8 active torsions:
REMARK  status: ('A' for Active; 'I' for Inactive)
REMARK    1  A    between atoms: C_1  and  N_2
REMARK    2  A    between atoms: C_6  and  S_7
REMARK    3  A    between atoms: S_7  and  C_8
REMARK    4  A    between atoms: C_8  and  C_9
REMARK    5  A    between atoms: C_9  and  C_11
REMARK    6  A    between atoms: C_12  and  N_13
REMARK    7  A    between atoms: N_14  and  C_15
REMARK    8  A    between atoms: N_18  and  C_19
REMARK                            x       y       z     vdW  Elec       q    Type
REMARK                         _______ _______ _______ _____ _____    ______ ____
ROOT
ATOM      1  C   UNL     1       5.285   4.952  18.585  0.00  0.00    +0.000 A 
ATOM      2  C   UNL     1       4.624   3.898  19.130  0.00  0.00    +0.000 A 
ATOM      3  N   UNL     1       3.245   3.976  19.310  0.00  0.00    +0.000 N 
ATOM      4  C   UNL     1       2.466   2.872  19.863  0.00  0.00    +0.000 C 
ATOM      5  C   UNL     1       2.482   5.104  19.003  0.00  0.00    +0.000 A 
ATOM      6  O   UNL     1       1.266   5.141  19.202  0.00  0.00    +0.000 OA
ATOM      7  N   UNL     1       3.166   6.165  18.454  0.00  0.00    +0.000 N 
ATOM      8  C   UNL     1       2.426   7.360  18.081  0.00  0.00    +0.000 C 
ATOM      9  C   UNL     1       4.500   6.126  18.135  0.00  0.00    +0.000 A 
ATOM     10  O   UNL     1       5.038   7.028  17.489  0.00  0.00    +0.000 OA
ENDROOT
BRANCH   2  11
ATOM     11  N   UNL     1       5.297   2.736  19.496  0.00  0.00    +0.000 N 
ATOM     12  H   UNL     1       4.944   1.908  18.996  0.00  0.00    +0.000 HD
ATOM     13  H   UNL     1       6.303   2.788  19.396  0.00  0.00    +0.000 HD
ENDBRANCH   2  11
BRANCH   1  14
ATOM     14  C   UNL     1       6.792   4.914  18.424  0.00  0.00    +0.000 C 
ATOM     15  O   UNL     1       7.508   5.267  19.374  0.00  0.00    +0.000 OA
BRANCH  14  16
ATOM     16  C   UNL     1       7.384   4.420  17.105  0.00  0.00    +0.000 C 
BRANCH  16  17
ATOM     17  S   UNL     1       6.110   4.160  15.822  0.00  0.00    +0.000 S 
BRANCH  17  23
ATOM     18  C   UNL     1       5.731   3.361  12.674  0.00  0.00    +0.000 C 
ATOM     19  N   UNL     1       6.703   4.301  13.155  0.00  0.00    +0.000 N 
ATOM     20  N   UNL     1       7.548   4.910  12.303  0.00  0.00    +0.000 NA
ATOM     21  N   UNL     1       8.301   5.694  13.065  0.00  0.00    +0.000 NA
ATOM     22  N   UNL     1       7.945   5.589  14.389  0.00  0.00    +0.000 NA
ATOM     23  C   UNL     1       6.960   4.720  14.426  0.00  0.00    +0.000 A 
ENDBRANCH  17  23
ENDBRANCH  16  17
ENDBRANCH  14  16
ENDBRANCH   1  14
TORSDOF 5
ENDMDL
MODEL 2
REMARK VINA RESULT:      -7.1      1.263      1.325
REMARK  Name = 
REMARK  8 active torsions:
REMARK  status: ('A' for Active; 'I' for Inactive)
REMARK    1  A    between atoms: C_1  and  N_2
REMARK    2  A    between atoms: C_6  and  S_7
REMARK    3  A    between atoms: S_7  and  C_8
REMARK    4  A    between atoms: C_8  and  C_9
REMARK    5  A    between atoms: C_9  and  C_11
REMARK    6  A    between atoms: C_12  and  N_13
REMARK    7  A    between atoms: N_14  and  C_15
REMARK    8  A    between atoms: N_18  and  C_19
REMARK                            x       y       z     vdW  Elec       q    Type
REMARK                         _______ _______ _______ _____ _____    ______ ____
ROOT
ATOM      1  C   UNL     1       4.280   4.566  18.713  0.00  0.00    +0.000 A 
ATOM      2  C   UNL     1       3.665   3.355  18.729  0.00  0.00    +0.000 A 
ATOM      3  N   UNL     1       2.397   3.240  19.295  0.00  0.00    +0.000 N 
ATOM      4  C   UNL     1       1.666   1.977  19.322  0.00  0.00    +0.000 C 
ATOM      5  C   UNL     1       1.716   4.298  19.900  0.00  0.00    +0.000 A 
ATOM      6  O   UNL     1       0.605   4.148  20.412  0.00  0.00    +0.000 OA
ATOM      7  N   UNL     1       2.352   5.518  19.878  0.00  0.00    +0.000 N 
ATOM      8  C   UNL     1       1.683   6.670  20.463  0.00  0.00    +0.000 C 
ATOM      9  C   UNL     1       3.545   5.743  19.238  0.00  0.00    +0.000 A 
ATOM     10  O   UNL     1       3.998   6.879  19.092  0.00  0.00    +0.000 OA
ENDROOT
BRANCH   2  11
ATOM     11  N   UNL     1       4.272   2.232  18.176  0.00  0.00    +0.000 N 
ATOM     12  H   UNL     1       4.981   2.480  17.472  0.00  0.00    +0.000 HD
ATOM     13  H   UNL     1       4.678   1.601  18.856  0.00  0.00    +0.000 HD
ENDBRANCH   2  11
BRANCH   1  14
ATOM     14  C   UNL     1       5.680   4.711  18.149  0.00  0.00    +0.000 C 
ATOM     15  O   UNL     1       6.642   4.306  18.819  0.00  0.00    +0.000 OA
BRANCH  14  16
ATOM     16  C   UNL     1       5.860   5.328  16.764  0.00  0.00    +0.000 C 
BRANCH  16  17
ATOM     17  S   UNL     1       5.561   4.128  15.420  0.00  0.00    +0.000 S 
BRANCH  17  23
ATOM     18  C   UNL     1       5.926   3.281  12.283  0.00  0.00    +0.000 C 
ATOM     19  N   UNL     1       6.741   4.253  12.954  0.00  0.00    +0.000 N 
ATOM     20  N   UNL     1       7.743   4.874  12.306  0.00  0.00    +0.000 NA
ATOM     21  N   UNL     1       8.285   5.687  13.204  0.00  0.00    +0.000 NA
ATOM     22  N   UNL     1       7.639   5.589  14.415  0.00  0.00    +0.000 NA
ATOM     23  C   UNL     1       6.692   4.694  14.243  0.00  0.00    +0.000 A 
ENDBRANCH  17  23
ENDBRANCH  16  17
ENDBRANCH  14  16
ENDBRANCH   1  14
TORSDOF 5
ENDMDL
MODEL 3
REMARK VINA RESULT:      -6.9      0.966      2.366
REMARK  Name = 
REMARK  8 active torsions:
REMARK  status: ('A' for Active; 'I' for Inactive)
REMARK    1  A    between atoms: C_1  and  N_2
REMARK    2  A    between atoms: C_6  and  S_7
REMARK    3  A    between atoms: S_7  and  C_8
REMARK    4  A    between atoms: C_8  and  C_9
REMARK    5  A    between atoms: C_9  and  C_11
REMARK    6  A    between atoms: C_12  and  N_13
REMARK    7  A    between atoms: N_14  and  C_15
REMARK    8  A    between atoms: N_18  and  C_19
REMARK                            x       y       z     vdW  Elec       q    Type
REMARK                         _______ _______ _______ _____ _____    ______ ____
ROOT
ATOM      1  C   UNL     1       5.250   4.842  18.429  0.00  0.00    +0.000 A 
ATOM      2  C   UNL     1       4.447   5.865  18.038  0.00  0.00    +0.000 A 
ATOM      3  N   UNL     1       3.066   5.734  18.157  0.00  0.00    +0.000 N 
ATOM      4  C   UNL     1       2.144   6.802  17.783  0.00  0.00    +0.000 C 
ATOM      5  C   UNL     1       2.431   4.580  18.620  0.00  0.00    +0.000 A 
ATOM      6  O   UNL     1       1.203   4.495  18.686  0.00  0.00    +0.000 OA
ATOM      7  N   UNL     1       3.257   3.550  19.011  0.00  0.00    +0.000 N 
ATOM      8  C   UNL     1       2.661   2.331  19.533  0.00  0.00    +0.000 C 
ATOM      9  C   UNL     1       4.626   3.642  19.037  0.00  0.00    +0.000 A 
ATOM     10  O   UNL     1       5.323   2.768  19.553  0.00  0.00    +0.000 OA
ENDROOT
BRANCH   2  11
ATOM     11  N   UNL     1       4.981   7.048  17.536  0.00  0.00    +0.000 N 
ATOM     12  H   UNL     1       4.973   7.072  16.506  0.00  0.00    +0.000 HD
ATOM     13  H   UNL     1       4.546   7.888  17.897  0.00  0.00    +0.000 HD
ENDBRANCH   2  11
BRANCH   1  14
ATOM     14  C   UNL     1       6.754   4.938  18.265  0.00  0.00    +0.000 C 
ATOM     15  O   UNL     1       7.435   5.380  19.203  0.00  0.00    +0.000 OA
BRANCH  14  16
ATOM     16  C   UNL     1       7.388   4.465  16.958  0.00  0.00    +0.000 C 
BRANCH  16  17
ATOM     17  S   UNL     1       6.143   4.050  15.687  0.00  0.00    +0.000 S 
BRANCH  17  23
ATOM     18  C   UNL     1       5.694   3.254  12.548  0.00  0.00    +0.000 C 
ATOM     19  N   UNL     1       6.660   4.211  13.006  0.00  0.00    +0.000 N 
ATOM     20  N   UNL     1       7.469   4.840  12.133  0.00  0.00    +0.000 NA
ATOM     21  N   UNL     1       8.227   5.637  12.877  0.00  0.00    +0.000 NA
ATOM     22  N   UNL     1       7.909   5.521  14.211  0.00  0.00    +0.000 NA
ATOM     23  C   UNL     1       6.943   4.632  14.271  0.00  0.00    +0.000 A 
ENDBRANCH  17  23
ENDBRANCH  16  17
ENDBRANCH  14  16
ENDBRANCH   1  14
TORSDOF 5
ENDMDL
MODEL 4
REMARK VINA RESULT:      -6.9      1.399      1.549
REMARK  Name = 
REMARK  8 active torsions:
REMARK  status: ('A' for Active; 'I' for Inactive)
REMARK    1  A    between atoms: C_1  and  N_2
REMARK    2  A    between atoms: C_6  and  S_7
REMARK    3  A    between atoms: S_7  and  C_8
REMARK    4  A    between atoms: C_8  and  C_9
REMARK    5  A    between atoms: C_9  and  C_11
REMARK    6  A    between atoms: C_12  and  N_13
REMARK    7  A    between atoms: N_14  and  C_15
REMARK    8  A    between atoms: N_18  and  C_19
REMARK                            x       y       z     vdW  Elec       q    Type
REMARK                         _______ _______ _______ _____ _____    ______ ____
ROOT
ATOM      1  C   UNL     1       4.492   5.506  18.675  0.00  0.00    +0.000 A 
ATOM      2  C   UNL     1       4.647   4.265  19.205  0.00  0.00    +0.000 A 
ATOM      3  N   UNL     1       3.726   3.803  20.142  0.00  0.00    +0.000 N 
ATOM      4  C   UNL     1       3.813   2.470  20.732  0.00  0.00    +0.000 C 
ATOM      5  C   UNL     1       2.654   4.559  20.619  0.00  0.00    +0.000 A 
ATOM      6  O   UNL     1       1.875   4.122  21.469  0.00  0.00    +0.000 OA
ATOM      7  N   UNL     1       2.511   5.816  20.075  0.00  0.00    +0.000 N 
ATOM      8  C   UNL     1       1.396   6.645  20.504  0.00  0.00    +0.000 C 
ATOM      9  C   UNL     1       3.302   6.301  19.063  0.00  0.00    +0.000 A 
ATOM     10  O   UNL     1       3.039   7.356  18.485  0.00  0.00    +0.000 OA
ENDROOT
BRANCH   2  11
ATOM     11  N   UNL     1       5.699   3.442  18.817  0.00  0.00    +0.000 N 
ATOM     12  H   UNL     1       5.999   2.811  19.574  0.00  0.00    +0.000 HD
ATOM     13  H   UNL     1       5.520   2.902  17.979  0.00  0.00    +0.000 HD
ENDBRANCH   2  11
BRANCH   1  14
ATOM     14  C   UNL     1       5.507   6.054  17.691  0.00  0.00    +0.000 C 
ATOM     15  O   UNL     1       6.593   6.474  18.119  0.00  0.00    +0.000 OA
BRANCH  14  16
ATOM     16  C   UNL     1       5.172   6.050  16.201  0.00  0.00    +0.000 C 
BRANCH  16  17
ATOM     17  S   UNL     1       5.397   4.405  15.439  0.00  0.00    +0.000 S 
BRANCH  17  23
ATOM     18  C   UNL     1       5.816   3.351  12.373  0.00  0.00    +0.000 C 
ATOM     19  N   UNL     1       6.714   4.245  13.047  0.00  0.00    +0.000 N 
ATOM     20  N   UNL     1       7.822   4.698  12.432  0.00  0.00    +0.000 NA
ATOM     21  N   UNL     1       8.416   5.482  13.323  0.00  0.00    +0.000 NA
ATOM     22  N   UNL     1       7.699   5.532  14.496  0.00  0.00    +0.000 NA
ATOM     23  C   UNL     1       6.654   4.758  14.308  0.00  0.00    +0.000 A 
ENDBRANCH  17  23
ENDBRANCH  16  17
ENDBRANCH  14  16
ENDBRANCH   1  14
TORSDOF 5
ENDMDL
MODEL 5
REMARK VINA RESULT:      -6.8      1.196      1.607
REMARK  Name = 
REMARK  8 active torsions:
REMARK  status: ('A' for Active; 'I' for Inactive)
REMARK    1  A    between atoms: C_1  and  N_2
REMARK    2  A    between atoms: C_6  and  S_7
REMARK    3  A    between atoms: S_7  and  C_8
REMARK    4  A    between atoms: C_8  and  C_9
REMARK    5  A    between atoms: C_9  and  C_11
REMARK    6  A    between atoms: C_12  and  N_13
REMARK    7  A    between atoms: N_14  and  C_15
REMARK    8  A    between atoms: N_18  and  C_19
REMARK                            x       y       z     vdW  Elec       q    Type
REMARK                         _______ _______ _______ _____ _____    ______ ____
ROOT
ATOM      1  C   UNL     1       4.759   4.660  18.759  0.00  0.00    +0.000 A 
ATOM      2  C   UNL     1       4.246   3.688  19.557  0.00  0.00    +0.000 A 
ATOM      3  N   UNL     1       3.072   3.934  20.264  0.00  0.00    +0.000 N 
ATOM      4  C   UNL     1       2.449   2.927  21.119  0.00  0.00    +0.000 C 
ATOM      5  C   UNL     1       2.391   5.153  20.244  0.00  0.00    +0.000 A 
ATOM      6  O   UNL     1       1.368   5.338  20.905  0.00  0.00    +0.000 OA
ATOM      7  N   UNL     1       2.924   6.129  19.432  0.00  0.00    +0.000 N 
ATOM      8  C   UNL     1       2.246   7.412  19.339  0.00  0.00    +0.000 C 
ATOM      9  C   UNL     1       4.007   5.930  18.613  0.00  0.00    +0.000 A 
ATOM     10  O   UNL     1       4.349   6.767  17.777  0.00  0.00    +0.000 OA
ENDROOT
BRANCH   2  11
ATOM     11  N   UNL     1       4.865   2.447  19.668  0.00  0.00    +0.000 N 
ATOM     12  H   UNL     1       5.050   2.192  20.649  0.00  0.00    +0.000 HD
ATOM     13  H   UNL     1       4.370   1.691  19.211  0.00  0.00    +0.000 HD
ENDBRANCH   2  11
BRANCH   1  14
ATOM     14  C   UNL     1       6.062   4.438  18.016  0.00  0.00    +0.000 C 
ATOM     15  O   UNL     1       7.131   4.522  18.640  0.00  0.00    +0.000 OA
BRANCH  14  16
ATOM     16  C   UNL     1       6.019   4.093  16.529  0.00  0.00    +0.000 C 
BRANCH  16  17
ATOM     17  S   UNL     1       6.998   5.254  15.514  0.00  0.00    +0.000 S 
BRANCH  17  23
ATOM     18  C   UNL     1       8.549   5.894  12.707  0.00  0.00    +0.000 C 
ATOM     19  N   UNL     1       7.524   4.899  12.853  0.00  0.00    +0.000 N 
ATOM     20  N   UNL     1       7.127   4.164  11.798  0.00  0.00    +0.000 NA
ATOM     21  N   UNL     1       6.182   3.362  12.272  0.00  0.00    +0.000 NA
ATOM     22  N   UNL     1       5.975   3.578  13.615  0.00  0.00    +0.000 NA
ATOM     23  C   UNL     1       6.810   4.535  13.955  0.00  0.00    +0.000 A 
ENDBRANCH  17  23
ENDBRANCH  16  17
ENDBRANCH  14  16
ENDBRANCH   1  14
TORSDOF 5
ENDMDL
MODEL 6
REMARK VINA RESULT:      -6.8      2.504      6.343
REMARK  Name = 
REMARK  8 active torsions:
REMARK  status: ('A' for Active; 'I' for Inactive)
REMARK    1  A    between atoms: C_1  and  N_2
REMARK    2  A    between atoms: C_6  and  S_7
REMARK    3  A    between atoms: S_7  and  C_8
REMARK    4  A    between atoms: C_8  and  C_9
REMARK    5  A    between atoms: C_9  and  C_11
REMARK    6  A    between atoms: C_12  and  N_13
REMARK    7  A    between atoms: N_14  and  C_15
REMARK    8  A    between atoms: N_18  and  C_19
REMARK                            x       y       z     vdW  Elec       q    Type
REMARK                         _______ _______ _______ _____ _____    ______ ____
ROOT
ATOM      1  C   UNL     1       4.114   4.912  17.646  0.00  0.00    +0.000 A 
ATOM      2  C   UNL     1       4.930   5.240  18.681  0.00  0.00    +0.000 A 
ATOM      3  N   UNL     1       6.308   5.097  18.537  0.00  0.00    +0.000 N 
ATOM      4  C   UNL     1       7.246   5.456  19.597  0.00  0.00    +0.000 C 
ATOM      5  C   UNL     1       6.922   4.589  17.391  0.00  0.00    +0.000 A 
ATOM      6  O   UNL     1       8.145   4.455  17.313  0.00  0.00    +0.000 OA
ATOM      7  N   UNL     1       6.083   4.259  16.351  0.00  0.00    +0.000 N 
ATOM      8  C   UNL     1       6.660   3.754  15.115  0.00  0.00    +0.000 C 
ATOM      9  C   UNL     1       4.728   4.480  16.367  0.00  0.00    +0.000 A 
ATOM     10  O   UNL     1       4.036   4.333  15.359  0.00  0.00    +0.000 OA
ENDROOT
BRANCH   2  11
ATOM     11  N   UNL     1       4.414   5.729  19.877  0.00  0.00    +0.000 N 
ATOM     12  H   UNL     1       3.490   5.330  20.094  0.00  0.00    +0.000 HD
ATOM     13  H   UNL     1       5.027   5.613  20.674  0.00  0.00    +0.000 HD
ENDBRANCH   2  11
BRANCH   1  14
ATOM     14  C   UNL     1       2.608   5.010  17.792  0.00  0.00    +0.000 C 
ATOM     15  O   UNL     1       2.107   6.087  18.149  0.00  0.00    +0.000 OA
BRANCH  14  16
ATOM     16  C   UNL     1       1.752   3.786  17.472  0.00  0.00    +0.000 C 
BRANCH  16  17
ATOM     17  S   UNL     1       2.473   2.239  18.123  0.00  0.00    +0.000 S 
BRANCH  17  23
ATOM     18  C   UNL     1       4.646   2.070  20.561  0.00  0.00    +0.000 C 
ATOM     19  N   UNL     1       3.257   2.384  20.741  0.00  0.00    +0.000 N 
ATOM     20  N   UNL     1       2.760   2.617  21.969  0.00  0.00    +0.000 NA
ATOM     21  N   UNL     1       1.470   2.866  21.778  0.00  0.00    +0.000 NA
ATOM     22  N   UNL     1       1.143   2.792  20.444  0.00  0.00    +0.000 NA
ATOM     23  C   UNL     1       2.258   2.489  19.819  0.00  0.00    +0.000 A 
ENDBRANCH  17  23
ENDBRANCH  16  17
ENDBRANCH  14  16
ENDBRANCH   1  14
TORSDOF 5
ENDMDL
MODEL 7
REMARK VINA RESULT:      -6.8      1.401      2.649
REMARK  Name = 
REMARK  8 active torsions:
REMARK  status: ('A' for Active; 'I' for Inactive)
REMARK    1  A    between atoms: C_1  and  N_2
REMARK    2  A    between atoms: C_6  and  S_7
REMARK    3  A    between atoms: S_7  and  C_8
REMARK    4  A    between atoms: C_8  and  C_9
REMARK    5  A    between atoms: C_9  and  C_11
REMARK    6  A    between atoms: C_12  and  N_13
REMARK    7  A    between atoms: N_14  and  C_15
REMARK    8  A    between atoms: N_18  and  C_19
REMARK                            x       y       z     vdW  Elec       q    Type
REMARK                         _______ _______ _______ _____ _____    ______ ____
ROOT
ATOM      1  C   UNL     1       4.433   5.312  18.590  0.00  0.00    +0.000 A 
ATOM      2  C   UNL     1       3.292   5.869  19.074  0.00  0.00    +0.000 A 
ATOM      3  N   UNL     1       2.550   5.183  20.033  0.00  0.00    +0.000 N 
ATOM      4  C   UNL     1       1.331   5.732  20.617  0.00  0.00    +0.000 C 
ATOM      5  C   UNL     1       2.881   3.914  20.511  0.00  0.00    +0.000 A 
ATOM      6  O   UNL     1       2.182   3.329  21.342  0.00  0.00    +0.000 OA
ATOM      7  N   UNL     1       4.038   3.361  20.010  0.00  0.00    +0.000 N 
ATOM      8  C   UNL     1       4.457   2.054  20.490  0.00  0.00    +0.000 C 
ATOM      9  C   UNL     1       4.886   4.018  19.155  0.00  0.00    +0.000 A 
ATOM     10  O   UNL     1       5.993   3.563  18.864  0.00  0.00    +0.000 OA
ENDROOT
BRANCH   2  11
ATOM     11  N   UNL     1       2.861   7.119  18.641  0.00  0.00    +0.000 N 
ATOM     12  H   UNL     1       2.564   7.107  17.655  0.00  0.00    +0.000 HD
ATOM     13  H   UNL     1       2.129   7.528  19.209  0.00  0.00    +0.000 HD
ENDBRANCH   2  11
BRANCH   1  14
ATOM     14  C   UNL     1       5.233   6.014  17.510  0.00  0.00    +0.000 C 
ATOM     15  O   UNL     1       6.100   6.836  17.843  0.00  0.00    +0.000 OA
BRANCH  14  16
ATOM     16  C   UNL     1       4.964   5.668  16.046  0.00  0.00    +0.000 C 
BRANCH  16  17
ATOM     17  S   UNL     1       5.758   4.103  15.541  0.00  0.00    +0.000 S 
BRANCH  17  23
ATOM     18  C   UNL     1       5.912   3.383  12.355  0.00  0.00    +0.000 C 
ATOM     19  N   UNL     1       6.798   4.297  13.018  0.00  0.00    +0.000 N 
ATOM     20  N   UNL     1       7.782   4.914  12.338  0.00  0.00    +0.000 NA
ATOM     21  N   UNL     1       8.403   5.668  13.236  0.00  0.00    +0.000 NA
ATOM     22  N   UNL     1       7.825   5.538  14.478  0.00  0.00    +0.000 NA
ATOM     23  C   UNL     1       6.839   4.683  14.325  0.00  0.00    +0.000 A 
ENDBRANCH  17  23
ENDBRANCH  16  17
ENDBRANCH  14  16
ENDBRANCH   1  14
TORSDOF 5
ENDMDL
MODEL 8
REMARK VINA RESULT:      -6.7      2.871      6.094
REMARK  Name = 
REMARK  8 active torsions:
REMARK  status: ('A' for Active; 'I' for Inactive)
REMARK    1  A    between atoms: C_1  and  N_2
REMARK    2  A    between atoms: C_6  and  S_7
REMARK    3  A    between atoms: S_7  and  C_8
REMARK    4  A    between atoms: C_8  and  C_9
REMARK    5  A    between atoms: C_9  and  C_11
REMARK    6  A    between atoms: C_12  and  N_13
REMARK    7  A    between atoms: N_14  and  C_15
REMARK    8  A    between atoms: N_18  and  C_19
REMARK                            x       y       z     vdW  Elec       q    Type
REMARK                         _______ _______ _______ _____ _____    ______ ____
ROOT
ATOM      1  C   UNL     1       5.491   4.355  18.619  0.00  0.00    +0.000 A 
ATOM      2  C   UNL     1       5.287   4.015  17.320  0.00  0.00    +0.000 A 
ATOM      3  N   UNL     1       6.038   4.637  16.325  0.00  0.00    +0.000 N 
ATOM      4  C   UNL     1       5.892   4.302  14.912  0.00  0.00    +0.000 C 
ATOM      5  C   UNL     1       6.978   5.640  16.571  0.00  0.00    +0.000 A 
ATOM      6  O   UNL     1       7.604   6.183  15.659  0.00  0.00    +0.000 OA
ATOM      7  N   UNL     1       7.172   5.975  17.892  0.00  0.00    +0.000 N 
ATOM      8  C   UNL     1       8.161   6.990  18.221  0.00  0.00    +0.000 C 
ATOM      9  C   UNL     1       6.561   5.330  18.939  0.00  0.00    +0.000 A 
ATOM     10  O   UNL     1       6.888   5.540  20.108  0.00  0.00    +0.000 OA
ENDROOT
BRANCH   2  11
ATOM     11  N   UNL     1       4.352   3.047  16.967  0.00  0.00    +0.000 N 
ATOM     12  H   UNL     1       4.478   2.173  17.497  0.00  0.00    +0.000 HD
ATOM     13  H   UNL     1       3.389   3.350  17.040  0.00  0.00    +0.000 HD
ENDBRANCH   2  11
BRANCH   1  14
ATOM     14  C   UNL     1       4.653   3.731  19.718  0.00  0.00    +0.000 C 
ATOM     15  O   UNL     1       4.763   2.516  19.942  0.00  0.00    +0.000 OA
BRANCH  14  16
ATOM     16  C   UNL     1       3.716   4.622  20.532  0.00  0.00    +0.000 C 
BRANCH  16  17
ATOM     17  S   UNL     1       2.365   5.323  19.521  0.00  0.00    +0.000 S 
BRANCH  17  23
ATOM     18  C   UNL     1       1.166   2.893  21.351  0.00  0.00    +0.000 C 
ATOM     19  N   UNL     1       1.100   2.929  19.917  0.00  0.00    +0.000 N 
ATOM     20  N   UNL     1       0.534   1.920  19.231  0.00  0.00    +0.000 NA
ATOM     21  N   UNL     1       0.645   2.266  17.954  0.00  0.00    +0.000 NA
ATOM     22  N   UNL     1       1.275   3.482  17.822  0.00  0.00    +0.000 NA
ATOM     23  C   UNL     1       1.553   3.874  19.046  0.00  0.00    +0.000 A 
ENDBRANCH  17  23
ENDBRANCH  16  17
ENDBRANCH  14  16
ENDBRANCH   1  14
TORSDOF 5
ENDMDL
MODEL 9
REMARK VINA RESULT:      -6.7      4.684      5.872
REMARK  Name = 
REMARK  8 active torsions:
REMARK  status: ('A' for Active; 'I' for Inactive)
REMARK    1  A    between atoms: C_1  and  N_2
REMARK    2  A    between atoms: C_6  and  S_7
REMARK    3  A    between atoms: S_7  and  C_8
REMARK    4  A    between atoms: C_8  and  C_9
REMARK    5  A    between atoms: C_9  and  C_11
REMARK    6  A    between atoms: C_12  and  N_13
REMARK    7  A    between atoms: N_14  and  C_15
REMARK    8  A    between atoms: N_18  and  C_19
REMARK                            x       y       z     vdW  Elec       q    Type
REMARK                         _______ _______ _______ _____ _____    ______ ____
ROOT
ATOM      1  C   UNL     1       2.799   6.824  19.080  0.00  0.00    +0.000 A 
ATOM      2  C   UNL     1       2.099   6.823  20.243  0.00  0.00    +0.000 A 
ATOM      3  N   UNL     1       1.321   7.931  20.573  0.00  0.00    +0.000 N 
ATOM      4  C   UNL     1       0.521   7.988  21.793  0.00  0.00    +0.000 C 
ATOM      5  C   UNL     1       1.241   9.086  19.794  0.00  0.00    +0.000 A 
ATOM      6  O   UNL     1       0.559  10.055  20.134  0.00  0.00    +0.000 OA
ATOM      7  N   UNL     1       1.957   9.073  18.618  0.00  0.00    +0.000 N 
ATOM      8  C   UNL     1       1.892  10.233  17.743  0.00  0.00    +0.000 C 
ATOM      9  C   UNL     1       2.653   7.980  18.163  0.00  0.00    +0.000 A 
ATOM     10  O   UNL     1       3.137   7.947  17.031  0.00  0.00    +0.000 OA
ENDROOT
BRANCH   2  11
ATOM     11  N   UNL     1       2.134   5.731  21.104  0.00  0.00    +0.000 N 
ATOM     12  H   UNL     1       3.097   5.424  21.303  0.00  0.00    +0.000 HD
ATOM     13  H   UNL     1       1.638   5.870  21.976  0.00  0.00    +0.000 HD
ENDBRANCH   2  11
BRANCH   1  14
ATOM     14  C   UNL     1       3.694   5.654  18.719  0.00  0.00    +0.000 C 
ATOM     15  O   UNL     1       4.808   5.561  19.258  0.00  0.00    +0.000 OA
BRANCH  14  16
ATOM     16  C   UNL     1       3.188   4.613  17.723  0.00  0.00    +0.000 C 
BRANCH  16  17
ATOM     17  S   UNL     1       3.714   2.918  18.156  0.00  0.00    +0.000 S 
BRANCH  17  23
ATOM     18  C   UNL     1       0.573   2.533  18.977  0.00  0.00    +0.000 C 
ATOM     19  N   UNL     1       1.650   2.605  19.924  0.00  0.00    +0.000 N 
ATOM     20  N   UNL     1       1.407   2.530  21.245  0.00  0.00    +0.000 NA
ATOM     21  N   UNL     1       2.599   2.633  21.821  0.00  0.00    +0.000 NA
ATOM     22  N   UNL     1       3.594   2.773  20.881  0.00  0.00    +0.000 NA
ATOM     23  C   UNL     1       2.988   2.759  19.716  0.00  0.00    +0.000 A 
ENDBRANCH  17  23
ENDBRANCH  16  17
ENDBRANCH  14  16
ENDBRANCH   1  14
TORSDOF 5
ENDMDL
