MODEL 1
REMARK VINA RESULT:      -5.8      0.000      0.000
REMARK  Name = 
REMARK  4 active torsions:
REMARK  status: ('A' for Active; 'I' for Inactive)
REMARK    1  A    between atoms: C_2  and  O_3
REMARK    2  A    between atoms: C_2  and  C_4
REMARK    3  A    between atoms: C_8  and  C_9
REMARK    4  A    between atoms: C_9  and  O_11
REMARK                            x       y       z     vdW  Elec       q    Type
REMARK                         _______ _______ _______ _____ _____    ______ ____
ROOT
ATOM      1  C   UNL     1       4.645   5.047  18.752  0.00  0.00    +0.000 A 
ATOM      2  C   UNL     1       4.237   6.253  18.163  0.00  0.00    +0.000 A 
ATOM      3  C   UNL     1       2.889   6.503  17.926  0.00  0.00    +0.000 A 
ATOM      4  C   UNL     1       1.946   5.526  18.230  0.00  0.00    +0.000 A 
ATOM      5  C   UNL     1       2.332   4.291  18.788  0.00  0.00    +0.000 A 
ATOM      6  C   UNL     1       3.690   4.055  19.079  0.00  0.00    +0.000 A 
ATOM      7 BR   UNL     1       4.211   2.466  20.002  0.00  0.00    +0.000 Br
ENDROOT
BRANCH   1   9
ATOM      8  O   UNL     1       6.742   5.285  19.874  0.00  0.00    +0.000 OA
ATOM      9  C   UNL     1       6.107   4.830  18.940  0.00  0.00    +0.000 C 
BRANCH   9  10
ATOM     10  O   UNL     1       6.659   4.036  17.998  0.00  0.00    +0.000 OA
ATOM     11  H   UNL     1       7.629   3.932  18.022  0.00  0.00    +0.000 HD
ENDBRANCH   9  10
ENDBRANCH   1   9
BRANCH   5  12
ATOM     12  C   UNL     1       1.209   3.346  19.040  0.00  0.00    +0.000 C 
ATOM     13  O   UNL     1       0.955   2.433  18.271  0.00  0.00    +0.000 OA
BRANCH  12  14
ATOM     14  O   UNL     1       0.591   3.480  20.229  0.00  0.00    +0.000 OA
ATOM     15  H   UNL     1      -0.294   3.891  20.204  0.00  0.00    +0.000 HD
ENDBRANCH  12  14
ENDBRANCH   5  12
TORSDOF 4
ENDMDL
MODEL 2
REMARK VINA RESULT:      -5.8      2.744      4.024
REMARK  Name = 
REMARK  4 active torsions:
REMARK  status: ('A' for Active; 'I' for Inactive)
REMARK    1  A    between atoms: C_2  and  O_3
REMARK    2  A    between atoms: C_2  and  C_4
REMARK    3  A    between atoms: C_8  and  C_9
REMARK    4  A    between atoms: C_9  and  O_11
REMARK                            x       y       z     vdW  Elec       q    Type
REMARK                         _______ _______ _______ _____ _____    ______ ____
ROOT
ATOM      1  C   UNL     1       2.340   5.253  19.943  0.00  0.00    +0.000 A 
ATOM      2  C   UNL     1       1.144   4.728  20.454  0.00  0.00    +0.000 A 
ATOM      3  C   UNL     1       1.044   3.375  20.767  0.00  0.00    +0.000 A 
ATOM      4  C   UNL     1       2.124   2.533  20.524  0.00  0.00    +0.000 A 
ATOM      5  C   UNL     1       3.324   3.028  19.977  0.00  0.00    +0.000 A 
ATOM      6  C   UNL     1       3.448   4.405  19.709  0.00  0.00    +0.000 A 
ATOM      7 BR   UNL     1       5.125   5.125  19.142  0.00  0.00    +0.000 Br
ENDROOT
BRANCH   1   9
ATOM      8  O   UNL     1       2.417   7.117  18.449  0.00  0.00    +0.000 OA
ATOM      9  C   UNL     1       2.364   6.701  19.593  0.00  0.00    +0.000 C 
BRANCH   9  10
ATOM     10  O   UNL     1       2.273   7.517  20.665  0.00  0.00    +0.000 OA
ATOM     11  H   UNL     1       3.044   8.082  20.855  0.00  0.00    +0.000 HD
ENDBRANCH   9  10
ENDBRANCH   1   9
BRANCH   5  12
ATOM     12  C   UNL     1       4.379   1.998  19.760  0.00  0.00    +0.000 C 
ATOM     13  O   UNL     1       5.221   1.754  20.609  0.00  0.00    +0.000 OA
BRANCH  12  14
ATOM     14  O   UNL     1       4.255   1.268  18.635  0.00  0.00    +0.000 OA
ATOM     15  H   UNL     1       3.393   0.828  18.506  0.00  0.00    +0.000 HD
ENDBRANCH  12  14
ENDBRANCH   5  12
TORSDOF 4
ENDMDL
MODEL 3
REMARK VINA RESULT:      -5.8      2.781      3.595
REMARK  Name = 
REMARK  4 active torsions:
REMARK  status: ('A' for Active; 'I' for Inactive)
REMARK    1  A    between atoms: C_2  and  O_3
REMARK    2  A    between atoms: C_2  and  C_4
REMARK    3  A    between atoms: C_8  and  C_9
REMARK    4  A    between atoms: C_9  and  O_11
REMARK                            x       y       z     vdW  Elec       q    Type
REMARK                         _______ _______ _______ _____ _____    ______ ____
ROOT
ATOM      1  C   UNL     1       3.301   2.990  20.149  0.00  0.00    +0.000 A 
ATOM      2  C   UNL     1       2.058   2.530  20.609  0.00  0.00    +0.000 A 
ATOM      3  C   UNL     1       0.976   3.400  20.707  0.00  0.00    +0.000 A 
ATOM      4  C   UNL     1       1.146   4.745  20.393  0.00  0.00    +0.000 A 
ATOM      5  C   UNL     1       2.393   5.240  19.964  0.00  0.00    +0.000 A 
ATOM      6  C   UNL     1       3.477   4.353  19.813  0.00  0.00    +0.000 A 
ATOM      7 BR   UNL     1       5.121   4.968  19.059  0.00  0.00    +0.000 Br
ENDROOT
BRANCH   1   9
ATOM      8  O   UNL     1       5.184   1.819  21.041  0.00  0.00    +0.000 OA
ATOM      9  C   UNL     1       4.426   2.014  20.108  0.00  0.00    +0.000 C 
BRANCH   9  10
ATOM     10  O   UNL     1       4.499   1.325  18.949  0.00  0.00    +0.000 OA
ATOM     11  H   UNL     1       4.887   0.431  18.992  0.00  0.00    +0.000 HD
ENDBRANCH   9  10
ENDBRANCH   1   9
BRANCH   5  12
ATOM     12  C   UNL     1       2.417   6.703  19.685  0.00  0.00    +0.000 C 
ATOM     13  O   UNL     1       2.513   7.136  18.548  0.00  0.00    +0.000 OA
BRANCH  12  14
ATOM     14  O   UNL     1       2.187   7.501  20.744  0.00  0.00    +0.000 OA
ATOM     15  H   UNL     1       2.235   7.071  21.620  0.00  0.00    +0.000 HD
ENDBRANCH  12  14
ENDBRANCH   5  12
TORSDOF 4
ENDMDL
MODEL 4
REMARK VINA RESULT:      -5.8      0.170      4.375
REMARK  Name = 
REMARK  4 active torsions:
REMARK  status: ('A' for Active; 'I' for Inactive)
REMARK    1  A    between atoms: C_2  and  O_3
REMARK    2  A    between atoms: C_2  and  C_4
REMARK    3  A    between atoms: C_8  and  C_9
REMARK    4  A    between atoms: C_9  and  O_11
REMARK                            x       y       z     vdW  Elec       q    Type
REMARK                         _______ _______ _______ _____ _____    ______ ____
ROOT
ATOM      1  C   UNL     1       2.290   4.347  18.757  0.00  0.00    +0.000 A 
ATOM      2  C   UNL     1       1.937   5.571  18.167  0.00  0.00    +0.000 A 
ATOM      3  C   UNL     1       2.918   6.488  17.801  0.00  0.00    +0.000 A 
ATOM      4  C   UNL     1       4.254   6.206  18.069  0.00  0.00    +0.000 A 
ATOM      5  C   UNL     1       4.633   5.002  18.693  0.00  0.00    +0.000 A 
ATOM      6  C   UNL     1       3.648   4.048  19.017  0.00  0.00    +0.000 A 
ATOM      7 BR   UNL     1       4.156   2.335  19.693  0.00  0.00    +0.000 Br
ENDROOT
BRANCH   1   9
ATOM      8  O   UNL     1       0.770   2.527  18.458  0.00  0.00    +0.000 OA
ATOM      9  C   UNL     1       1.186   3.431  19.160  0.00  0.00    +0.000 C 
BRANCH   9  10
ATOM     10  O   UNL     1       0.718   3.667  20.404  0.00  0.00    +0.000 OA
ATOM     11  H   UNL     1       0.182   4.473  20.527  0.00  0.00    +0.000 HD
ENDBRANCH   9  10
ENDBRANCH   1   9
BRANCH   5  12
ATOM     12  C   UNL     1       6.097   4.857  18.927  0.00  0.00    +0.000 C 
ATOM     13  O   UNL     1       6.636   5.320  19.919  0.00  0.00    +0.000 OA
BRANCH  12  14
ATOM     14  O   UNL     1       6.750   4.070  18.050  0.00  0.00    +0.000 OA
ATOM     15  H   UNL     1       6.346   3.198  17.878  0.00  0.00    +0.000 HD
ENDBRANCH  12  14
ENDBRANCH   5  12
TORSDOF 4
ENDMDL
MODEL 5
REMARK VINA RESULT:      -5.7      0.580      4.317
REMARK  Name = 
REMARK  4 active torsions:
REMARK  status: ('A' for Active; 'I' for Inactive)
REMARK    1  A    between atoms: C_2  and  O_3
REMARK    2  A    between atoms: C_2  and  C_4
REMARK    3  A    between atoms: C_8  and  C_9
REMARK    4  A    between atoms: C_9  and  O_11
REMARK                            x       y       z     vdW  Elec       q    Type
REMARK                         _______ _______ _______ _____ _____    ______ ____
ROOT
ATOM      1  C   UNL     1       2.649   4.818  18.695  0.00  0.00    +0.000 A 
ATOM      2  C   UNL     1       2.422   6.058  18.080  0.00  0.00    +0.000 A 
ATOM      3  C   UNL     1       3.490   6.874  17.719  0.00  0.00    +0.000 A 
ATOM      4  C   UNL     1       4.790   6.475  18.018  0.00  0.00    +0.000 A 
ATOM      5  C   UNL     1       5.044   5.251  18.667  0.00  0.00    +0.000 A 
ATOM      6  C   UNL     1       3.969   4.398  18.986  0.00  0.00    +0.000 A 
ATOM      7 BR   UNL     1       4.304   2.658  19.698  0.00  0.00    +0.000 Br
ENDROOT
BRANCH   1   9
ATOM      8  O   UNL     1       0.901   4.121  20.168  0.00  0.00    +0.000 OA
ATOM      9  C   UNL     1       1.458   4.015  19.090  0.00  0.00    +0.000 C 
BRANCH   9  10
ATOM     10  O   UNL     1       1.021   3.186  18.119  0.00  0.00    +0.000 OA
ATOM     11  H   UNL     1       1.147   3.481  17.198  0.00  0.00    +0.000 HD
ENDBRANCH   9  10
ENDBRANCH   1   9
BRANCH   5  12
ATOM     12  C   UNL     1       6.483   4.976  18.931  0.00  0.00    +0.000 C 
ATOM     13  O   UNL     1       7.036   5.371  19.945  0.00  0.00    +0.000 OA
BRANCH  12  14
ATOM     14  O   UNL     1       7.088   4.152  18.054  0.00  0.00    +0.000 OA
ATOM     15  H   UNL     1       6.618   3.319  17.859  0.00  0.00    +0.000 HD
ENDBRANCH  12  14
ENDBRANCH   5  12
TORSDOF 4
ENDMDL
MODEL 6
REMARK VINA RESULT:      -5.7      1.583      4.005
REMARK  Name = 
REMARK  4 active torsions:
REMARK  status: ('A' for Active; 'I' for Inactive)
REMARK    1  A    between atoms: C_2  and  O_3
REMARK    2  A    between atoms: C_2  and  C_4
REMARK    3  A    between atoms: C_8  and  C_9
REMARK    4  A    between atoms: C_9  and  O_11
REMARK                            x       y       z     vdW  Elec       q    Type
REMARK                         _______ _______ _______ _____ _____    ______ ____
ROOT
ATOM      1  C   UNL     1       2.405   4.282  20.030  0.00  0.00    +0.000 A 
ATOM      2  C   UNL     1       2.203   5.668  20.105  0.00  0.00    +0.000 A 
ATOM      3  C   UNL     1       2.855   6.526  19.224  0.00  0.00    +0.000 A 
ATOM      4  C   UNL     1       3.751   6.005  18.296  0.00  0.00    +0.000 A 
ATOM      5  C   UNL     1       4.000   4.620  18.223  0.00  0.00    +0.000 A 
ATOM      6  C   UNL     1       3.302   3.743  19.077  0.00  0.00    +0.000 A 
ATOM      7 BR   UNL     1       3.487   1.854  18.870  0.00  0.00    +0.000 Br
ENDROOT
BRANCH   1   9
ATOM      8  O   UNL     1       2.165   3.160  22.126  0.00  0.00    +0.000 OA
ATOM      9  C   UNL     1       1.707   3.427  21.030  0.00  0.00    +0.000 C 
BRANCH   9  10
ATOM     10  O   UNL     1       0.488   3.010  20.625  0.00  0.00    +0.000 OA
ATOM     11  H   UNL     1       0.452   2.174  20.124  0.00  0.00    +0.000 HD
ENDBRANCH   9  10
ENDBRANCH   1   9
BRANCH   5  12
ATOM     12  C   UNL     1       4.996   4.222  17.190  0.00  0.00    +0.000 C 
ATOM     13  O   UNL     1       4.710   4.185  16.004  0.00  0.00    +0.000 OA
BRANCH  12  14
ATOM     14  O   UNL     1       6.255   4.045  17.634  0.00  0.00    +0.000 OA
ATOM     15  H   UNL     1       6.877   4.775  17.453  0.00  0.00    +0.000 HD
ENDBRANCH  12  14
ENDBRANCH   5  12
TORSDOF 4
ENDMDL
MODEL 7
REMARK VINA RESULT:      -5.6      1.349      4.181
REMARK  Name = 
REMARK  4 active torsions:
REMARK  status: ('A' for Active; 'I' for Inactive)
REMARK    1  A    between atoms: C_2  and  O_3
REMARK    2  A    between atoms: C_2  and  C_4
REMARK    3  A    between atoms: C_8  and  C_9
REMARK    4  A    between atoms: C_9  and  O_11
REMARK                            x       y       z     vdW  Elec       q    Type
REMARK                         _______ _______ _______ _____ _____    ______ ____
ROOT
ATOM      1  C   UNL     1       2.552   4.316  20.217  0.00  0.00    +0.000 A 
ATOM      2  C   UNL     1       2.100   5.621  19.973  0.00  0.00    +0.000 A 
ATOM      3  C   UNL     1       2.800   6.462  19.113  0.00  0.00    +0.000 A 
ATOM      4  C   UNL     1       3.984   6.018  18.532  0.00  0.00    +0.000 A 
ATOM      5  C   UNL     1       4.480   4.725  18.789  0.00  0.00    +0.000 A 
ATOM      6  C   UNL     1       3.747   3.852  19.616  0.00  0.00    +0.000 A 
ATOM      7 BR   UNL     1       4.305   2.038  19.830  0.00  0.00    +0.000 Br
ENDROOT
BRANCH   1   9
ATOM      8  O   UNL     1       2.148   3.241  22.313  0.00  0.00    +0.000 OA
ATOM      9  C   UNL     1       1.776   3.485  21.179  0.00  0.00    +0.000 C 
BRANCH   9  10
ATOM     10  O   UNL     1       0.590   3.062  20.691  0.00  0.00    +0.000 OA
ATOM     11  H   UNL     1       0.552   2.863  19.737  0.00  0.00    +0.000 HD
ENDBRANCH   9  10
ENDBRANCH   1   9
BRANCH   5  12
ATOM     12  C   UNL     1       5.766   4.407  18.107  0.00  0.00    +0.000 C 
ATOM     13  O   UNL     1       6.842   4.582  18.655  0.00  0.00    +0.000 OA
BRANCH  12  14
ATOM     14  O   UNL     1       5.654   3.790  16.915  0.00  0.00    +0.000 OA
ATOM     15  H   UNL     1       6.350   3.997  16.262  0.00  0.00    +0.000 HD
ENDBRANCH  12  14
ENDBRANCH   5  12
TORSDOF 4
ENDMDL
MODEL 8
REMARK VINA RESULT:      -5.6      1.434      1.954
REMARK  Name = 
REMARK  4 active torsions:
REMARK  status: ('A' for Active; 'I' for Inactive)
REMARK    1  A    between atoms: C_2  and  O_3
REMARK    2  A    between atoms: C_2  and  C_4
REMARK    3  A    between atoms: C_8  and  C_9
REMARK    4  A    between atoms: C_9  and  O_11
REMARK                            x       y       z     vdW  Elec       q    Type
REMARK                         _______ _______ _______ _____ _____    ______ ____
ROOT
ATOM      1  C   UNL     1       4.266   4.705  18.556  0.00  0.00    +0.000 A 
ATOM      2  C   UNL     1       3.829   6.035  18.457  0.00  0.00    +0.000 A 
ATOM      3  C   UNL     1       2.777   6.493  19.246  0.00  0.00    +0.000 A 
ATOM      4  C   UNL     1       2.125   5.609  20.101  0.00  0.00    +0.000 A 
ATOM      5  C   UNL     1       2.520   4.260  20.192  0.00  0.00    +0.000 A 
ATOM      6  C   UNL     1       3.618   3.805  19.435  0.00  0.00    +0.000 A 
ATOM      7 BR   UNL     1       4.285   2.032  19.681  0.00  0.00    +0.000 Br
ENDROOT
BRANCH   1   9
ATOM      8  O   UNL     1       5.217   4.031  16.470  0.00  0.00    +0.000 OA
ATOM      9  C   UNL     1       5.370   4.273  17.653  0.00  0.00    +0.000 C 
BRANCH   9  10
ATOM     10  O   UNL     1       6.574   4.220  18.262  0.00  0.00    +0.000 OA
ATOM     11  H   UNL     1       6.635   3.678  19.071  0.00  0.00    +0.000 HD
ENDBRANCH   9  10
ENDBRANCH   1   9
BRANCH   5  12
ATOM     12  C   UNL     1       1.713   3.439  21.137  0.00  0.00    +0.000 C 
ATOM     13  O   UNL     1       2.063   3.263  22.293  0.00  0.00    +0.000 OA
BRANCH  12  14
ATOM     14  O   UNL     1       0.518   3.027  20.674  0.00  0.00    +0.000 OA
ATOM     15  H   UNL     1      -0.140   3.729  20.510  0.00  0.00    +0.000 HD
ENDBRANCH  12  14
ENDBRANCH   5  12
TORSDOF 4
ENDMDL
MODEL 9
REMARK VINA RESULT:      -5.5      1.191      1.564
REMARK  Name = 
REMARK  4 active torsions:
REMARK  status: ('A' for Active; 'I' for Inactive)
REMARK    1  A    between atoms: C_2  and  O_3
REMARK    2  A    between atoms: C_2  and  C_4
REMARK    3  A    between atoms: C_8  and  C_9
REMARK    4  A    between atoms: C_9  and  O_11
REMARK                            x       y       z     vdW  Elec       q    Type
REMARK                         _______ _______ _______ _____ _____    ______ ____
ROOT
ATOM      1  C   UNL     1       4.130   4.390  17.789  0.00  0.00    +0.000 A 
ATOM      2  C   UNL     1       3.793   5.752  17.775  0.00  0.00    +0.000 A 
ATOM      3  C   UNL     1       2.562   6.180  18.262  0.00  0.00    +0.000 A 
ATOM      4  C   UNL     1       1.641   5.242  18.720  0.00  0.00    +0.000 A 
ATOM      5  C   UNL     1       1.940   3.866  18.711  0.00  0.00    +0.000 A 
ATOM      6  C   UNL     1       3.205   3.432  18.268  0.00  0.00    +0.000 A 
ATOM      7 BR   UNL     1       3.697   1.593  18.420  0.00  0.00    +0.000 Br
ENDROOT
BRANCH   1   9
ATOM      8  O   UNL     1       5.620   3.737  16.038  0.00  0.00    +0.000 OA
ATOM      9  C   UNL     1       5.448   3.999  17.215  0.00  0.00    +0.000 C 
BRANCH   9  10
ATOM     10  O   UNL     1       6.453   4.008  18.117  0.00  0.00    +0.000 OA
ATOM     11  H   UNL     1       6.949   4.842  18.214  0.00  0.00    +0.000 HD
ENDBRANCH   9  10
ENDBRANCH   1   9
BRANCH   5  12
ATOM     12  C   UNL     1       0.846   2.990  19.215  0.00  0.00    +0.000 C 
ATOM     13  O   UNL     1       0.266   2.203  18.484  0.00  0.00    +0.000 OA
BRANCH  12  14
ATOM     14  O   UNL     1       0.640   3.025  20.546  0.00  0.00    +0.000 OA
ATOM     15  H   UNL     1       0.106   2.295  20.913  0.00  0.00    +0.000 HD
ENDBRANCH  12  14
ENDBRANCH   5  12
TORSDOF 4
ENDMDL
