MODEL 1
REMARK VINA RESULT:      -8.0      0.000      0.000
REMARK  Name = 
REMARK  12 active torsions:
REMARK  status: ('A' for Active; 'I' for Inactive)
REMARK    1  A    between atoms: C_1  and  O_2
REMARK    2  A    between atoms: O_2  and  C_3
REMARK    3  A    between atoms: C_3  and  C_4
REMARK    4  A    between atoms: C_8  and  C_9
REMARK    5  A    between atoms: C_9  and  N_10
REMARK    6  A    between atoms: N_13  and  C_14
REMARK    7  A    between atoms: N_17  and  C_18
REMARK    8  A    between atoms: C_18  and  C_19
REMARK    9  A    between atoms: C_20  and  C_21
REMARK   10  A    between atoms: C_24  and  C_25
REMARK   11  A    between atoms: C_29  and  C_30
REMARK   12  A    between atoms: C_29  and  C_31
REMARK                            x       y       z     vdW  Elec       q    Type
REMARK                         _______ _______ _______ _____ _____    ______ ____
ROOT
ATOM      1  N   UNL     1       1.192   9.352  19.605  0.00  0.00    +0.000 N 
ATOM      2  C   UNL     1       1.918   8.599  18.679  0.00  0.00    +0.000 C 
ATOM      3  O   UNL     1       2.159   8.966  17.536  0.00  0.00    +0.000 OA
ATOM      4  N   UNL     1       2.164   7.360  19.220  0.00  0.00    +0.000 N 
ATOM      5  C   UNL     1       1.615   7.258  20.475  0.00  0.00    +0.000 C 
ATOM      6  O   UNL     1       1.589   6.278  21.213  0.00  0.00    +0.000 OA
ATOM      7  C   UNL     1       0.989   8.614  20.849  0.00  0.00    +0.000 C 
ATOM      8  C   UNL     1       1.774   9.216  22.016  0.00  0.00    +0.000 C 
ATOM      9  C   UNL     1      -0.475   8.382  21.223  0.00  0.00    +0.000 C 
ENDROOT
BRANCH   4  10
ATOM     10  C   UNL     1       2.627   6.293  18.459  0.00  0.00    +0.000 A 
ATOM     11  C   UNL     1       1.919   5.164  17.974  0.00  0.00    +0.000 A 
ATOM     12  N   UNL     1       2.715   4.256  17.402  0.00  0.00    +0.000 NA
ATOM     13  N   UNL     1       3.940   4.802  17.510  0.00  0.00    +0.000 N 
ATOM     14  C   UNL     1       3.927   6.048  18.073  0.00  0.00    +0.000 A 
BRANCH  13  15
ATOM     15  C   UNL     1       5.124   4.001  17.222  0.00  0.00    +0.000 C 
BRANCH  15  16
ATOM     16  C   UNL     1       6.103   4.753  16.411  0.00  0.00    +0.000 A 
ATOM     17  C   UNL     1       6.294   4.726  15.002  0.00  0.00    +0.000 A 
ATOM     18  C   UNL     1       5.564   3.949  13.971  0.00  0.00    +0.000 C 
ATOM     19  N   UNL     1       7.298   5.531  14.633  0.00  0.00    +0.000 NA
ATOM     20  O   UNL     1       7.776   6.101  15.794  0.00  0.00    +0.000 OA
ATOM     21  C   UNL     1       7.064   5.636  16.854  0.00  0.00    +0.000 A 
ATOM     22  C   UNL     1       7.461   6.143  18.183  0.00  0.00    +0.000 C 
ENDBRANCH  15  16
ENDBRANCH  13  15
ENDBRANCH   4  10
BRANCH   1  23
ATOM     23  C   UNL     1       0.372  10.473  19.157  0.00  0.00    +0.000 C 
BRANCH  23  28
ATOM     24  C   UNL     1       2.448  13.674  19.295  0.00  0.00    +0.000 A 
ATOM     25  C   UNL     1       1.939  14.270  20.454  0.00  0.00    +0.000 A 
ATOM     26  C   UNL     1       0.914  13.656  21.174  0.00  0.00    +0.000 A 
ATOM     27  C   UNL     1       0.403  12.428  20.756  0.00  0.00    +0.000 A 
ATOM     28  C   UNL     1       0.893  11.816  19.596  0.00  0.00    +0.000 A 
ATOM     29  C   UNL     1       1.894  12.466  18.857  0.00  0.00    +0.000 A 
BRANCH  24  30
ATOM     30  C   UNL     1       3.639  14.266  18.589  0.00  0.00    +0.000 C 
BRANCH  30  32
ATOM     31  C   UNL     1       3.341  16.461  17.770  0.00  0.00    +0.000 C 
ATOM     32  O   UNL     1       3.136  15.079  17.531  0.00  0.00    +0.000 OA
ENDBRANCH  30  32
ENDBRANCH  24  30
ENDBRANCH  23  28
ENDBRANCH   1  23
TORSDOF 7
ENDMDL
MODEL 2
REMARK VINA RESULT:      -7.9      1.244      2.088
REMARK  Name = 
REMARK  12 active torsions:
REMARK  status: ('A' for Active; 'I' for Inactive)
REMARK    1  A    between atoms: C_1  and  O_2
REMARK    2  A    between atoms: O_2  and  C_3
REMARK    3  A    between atoms: C_3  and  C_4
REMARK    4  A    between atoms: C_8  and  C_9
REMARK    5  A    between atoms: C_9  and  N_10
REMARK    6  A    between atoms: N_13  and  C_14
REMARK    7  A    between atoms: N_17  and  C_18
REMARK    8  A    between atoms: C_18  and  C_19
REMARK    9  A    between atoms: C_20  and  C_21
REMARK   10  A    between atoms: C_24  and  C_25
REMARK   11  A    between atoms: C_29  and  C_30
REMARK   12  A    between atoms: C_29  and  C_31
REMARK                            x       y       z     vdW  Elec       q    Type
REMARK                         _______ _______ _______ _____ _____    ______ ____
ROOT
ATOM      1  N   UNL     1       1.235   9.291  19.562  0.00  0.00    +0.000 N 
ATOM      2  C   UNL     1       1.958   8.531  18.638  0.00  0.00    +0.000 C 
ATOM      3  O   UNL     1       2.206   8.896  17.496  0.00  0.00    +0.000 OA
ATOM      4  N   UNL     1       2.192   7.290  19.180  0.00  0.00    +0.000 N 
ATOM      5  C   UNL     1       1.638   7.193  20.433  0.00  0.00    +0.000 C 
ATOM      6  O   UNL     1       1.602   6.213  21.171  0.00  0.00    +0.000 OA
ATOM      7  C   UNL     1       1.022   8.555  20.805  0.00  0.00    +0.000 C 
ATOM      8  C   UNL     1       1.809   9.151  21.974  0.00  0.00    +0.000 C 
ATOM      9  C   UNL     1      -0.445   8.335  21.174  0.00  0.00    +0.000 C 
ENDROOT
BRANCH   4  10
ATOM     10  C   UNL     1       2.649   6.219  18.421  0.00  0.00    +0.000 A 
ATOM     11  C   UNL     1       1.942   5.075  17.969  0.00  0.00    +0.000 A 
ATOM     12  N   UNL     1       2.735   4.169  17.389  0.00  0.00    +0.000 NA
ATOM     13  N   UNL     1       3.955   4.732  17.458  0.00  0.00    +0.000 N 
ATOM     14  C   UNL     1       3.941   5.985  18.005  0.00  0.00    +0.000 A 
BRANCH  13  15
ATOM     15  C   UNL     1       5.141   3.941  17.149  0.00  0.00    +0.000 C 
BRANCH  15  16
ATOM     16  C   UNL     1       6.113   4.712  16.347  0.00  0.00    +0.000 A 
ATOM     17  C   UNL     1       6.303   4.702  14.937  0.00  0.00    +0.000 A 
ATOM     18  C   UNL     1       5.580   3.929  13.898  0.00  0.00    +0.000 C 
ATOM     19  N   UNL     1       7.299   5.521  14.576  0.00  0.00    +0.000 NA
ATOM     20  O   UNL     1       7.771   6.083  15.744  0.00  0.00    +0.000 OA
ATOM     21  C   UNL     1       7.065   5.599  16.798  0.00  0.00    +0.000 A 
ATOM     22  C   UNL     1       7.457   6.095  18.133  0.00  0.00    +0.000 C 
ENDBRANCH  15  16
ENDBRANCH  13  15
ENDBRANCH   4  10
BRANCH   1  23
ATOM     23  C   UNL     1       0.427  10.418  19.110  0.00  0.00    +0.000 C 
BRANCH  23  28
ATOM     24  C   UNL     1       1.175  13.746  20.824  0.00  0.00    +0.000 A 
ATOM     25  C   UNL     1       2.099  14.301  19.932  0.00  0.00    +0.000 A 
ATOM     26  C   UNL     1       2.498  13.596  18.796  0.00  0.00    +0.000 A 
ATOM     27  C   UNL     1       1.960  12.338  18.528  0.00  0.00    +0.000 A 
ATOM     28  C   UNL     1       1.039  11.760  19.410  0.00  0.00    +0.000 A 
ATOM     29  C   UNL     1       0.679  12.462  20.571  0.00  0.00    +0.000 A 
BRANCH  24  30
ATOM     30  C   UNL     1       0.645  14.553  21.979  0.00  0.00    +0.000 C 
BRANCH  30  32
ATOM     31  C   UNL     1      -1.153  14.117  23.446  0.00  0.00    +0.000 C 
ATOM     32  O   UNL     1      -0.744  14.253  22.096  0.00  0.00    +0.000 OA
ENDBRANCH  30  32
ENDBRANCH  24  30
ENDBRANCH  23  28
ENDBRANCH   1  23
TORSDOF 7
ENDMDL
MODEL 3
REMARK VINA RESULT:      -7.7      0.563      1.501
REMARK  Name = 
REMARK  12 active torsions:
REMARK  status: ('A' for Active; 'I' for Inactive)
REMARK    1  A    between atoms: C_1  and  O_2
REMARK    2  A    between atoms: O_2  and  C_3
REMARK    3  A    between atoms: C_3  and  C_4
REMARK    4  A    between atoms: C_8  and  C_9
REMARK    5  A    between atoms: C_9  and  N_10
REMARK    6  A    between atoms: N_13  and  C_14
REMARK    7  A    between atoms: N_17  and  C_18
REMARK    8  A    between atoms: C_18  and  C_19
REMARK    9  A    between atoms: C_20  and  C_21
REMARK   10  A    between atoms: C_24  and  C_25
REMARK   11  A    between atoms: C_29  and  C_30
REMARK   12  A    between atoms: C_29  and  C_31
REMARK                            x       y       z     vdW  Elec       q    Type
REMARK                         _______ _______ _______ _____ _____    ______ ____
ROOT
ATOM      1  N   UNL     1       1.147   9.329  19.671  0.00  0.00    +0.000 N 
ATOM      2  C   UNL     1       1.877   8.585  18.740  0.00  0.00    +0.000 C 
ATOM      3  O   UNL     1       2.108   8.957  17.597  0.00  0.00    +0.000 OA
ATOM      4  N   UNL     1       2.138   7.348  19.278  0.00  0.00    +0.000 N 
ATOM      5  C   UNL     1       1.597   7.238  20.535  0.00  0.00    +0.000 C 
ATOM      6  O   UNL     1       1.585   6.257  21.272  0.00  0.00    +0.000 OA
ATOM      7  C   UNL     1       0.958   8.587  20.915  0.00  0.00    +0.000 C 
ATOM      8  C   UNL     1       1.742   9.196  22.078  0.00  0.00    +0.000 C 
ATOM      9  C   UNL     1      -0.502   8.338  21.295  0.00  0.00    +0.000 C 
ENDROOT
BRANCH   4  10
ATOM     10  C   UNL     1       2.610   6.287  18.513  0.00  0.00    +0.000 A 
ATOM     11  C   UNL     1       1.905   5.166  18.005  0.00  0.00    +0.000 A 
ATOM     12  N   UNL     1       2.707   4.261  17.437  0.00  0.00    +0.000 NA
ATOM     13  N   UNL     1       3.932   4.801  17.570  0.00  0.00    +0.000 N 
ATOM     14  C   UNL     1       3.915   6.041  18.145  0.00  0.00    +0.000 A 
BRANCH  13  15
ATOM     15  C   UNL     1       5.117   3.997  17.292  0.00  0.00    +0.000 C 
BRANCH  15  16
ATOM     16  C   UNL     1       6.108   4.751  16.496  0.00  0.00    +0.000 A 
ATOM     17  C   UNL     1       7.115   5.645  16.953  0.00  0.00    +0.000 A 
ATOM     18  C   UNL     1       7.447   6.055  18.338  0.00  0.00    +0.000 C 
ATOM     19  N   UNL     1       7.811   6.156  15.929  0.00  0.00    +0.000 NA
ATOM     20  O   UNL     1       7.273   5.599  14.788  0.00  0.00    +0.000 OA
ATOM     21  C   UNL     1       6.257   4.764  15.126  0.00  0.00    +0.000 A 
ATOM     22  C   UNL     1       5.561   4.092  14.010  0.00  0.00    +0.000 C 
ENDBRANCH  15  16
ENDBRANCH  13  15
ENDBRANCH   4  10
BRANCH   1  23
ATOM     23  C   UNL     1       0.313  10.442  19.228  0.00  0.00    +0.000 C 
BRANCH  23  28
ATOM     24  C   UNL     1       2.374  13.655  19.253  0.00  0.00    +0.000 A 
ATOM     25  C   UNL     1       1.906  14.261  20.425  0.00  0.00    +0.000 A 
ATOM     26  C   UNL     1       0.913  13.649  21.189  0.00  0.00    +0.000 A 
ATOM     27  C   UNL     1       0.394  12.413  20.804  0.00  0.00    +0.000 A 
ATOM     28  C   UNL     1       0.842  11.792  19.633  0.00  0.00    +0.000 A 
ATOM     29  C   UNL     1       1.811  12.439  18.849  0.00  0.00    +0.000 A 
BRANCH  24  30
ATOM     30  C   UNL     1       3.533  14.246  18.496  0.00  0.00    +0.000 C 
BRANCH  30  32
ATOM     31  C   UNL     1       4.596  16.355  18.493  0.00  0.00    +0.000 C 
ATOM     32  O   UNL     1       4.046  15.317  19.286  0.00  0.00    +0.000 OA
ENDBRANCH  30  32
ENDBRANCH  24  30
ENDBRANCH  23  28
ENDBRANCH   1  23
TORSDOF 7
ENDMDL
MODEL 4
REMARK VINA RESULT:      -7.6      2.524      3.715
REMARK  Name = 
REMARK  12 active torsions:
REMARK  status: ('A' for Active; 'I' for Inactive)
REMARK    1  A    between atoms: C_1  and  O_2
REMARK    2  A    between atoms: O_2  and  C_3
REMARK    3  A    between atoms: C_3  and  C_4
REMARK    4  A    between atoms: C_8  and  C_9
REMARK    5  A    between atoms: C_9  and  N_10
REMARK    6  A    between atoms: N_13  and  C_14
REMARK    7  A    between atoms: N_17  and  C_18
REMARK    8  A    between atoms: C_18  and  C_19
REMARK    9  A    between atoms: C_20  and  C_21
REMARK   10  A    between atoms: C_24  and  C_25
REMARK   11  A    between atoms: C_29  and  C_30
REMARK   12  A    between atoms: C_29  and  C_31
REMARK                            x       y       z     vdW  Elec       q    Type
REMARK                         _______ _______ _______ _____ _____    ______ ____
ROOT
ATOM      1  N   UNL     1       0.949  10.080  20.257  0.00  0.00    +0.000 N 
ATOM      2  C   UNL     1       1.397   8.793  20.568  0.00  0.00    +0.000 C 
ATOM      3  O   UNL     1       1.535   8.373  21.709  0.00  0.00    +0.000 OA
ATOM      4  N   UNL     1       1.784   8.173  19.404  0.00  0.00    +0.000 N 
ATOM      5  C   UNL     1       1.618   9.009  18.327  0.00  0.00    +0.000 C 
ATOM      6  O   UNL     1       1.920   8.803  17.155  0.00  0.00    +0.000 OA
ATOM      7  C   UNL     1       0.977  10.320  18.817  0.00  0.00    +0.000 C 
ATOM      8  C   UNL     1      -0.427  10.437  18.221  0.00  0.00    +0.000 C 
ATOM      9  C   UNL     1       1.867  11.484  18.381  0.00  0.00    +0.000 C 
ENDROOT
BRANCH   4  10
ATOM     10  C   UNL     1       2.519   6.993  19.397  0.00  0.00    +0.000 A 
ATOM     11  C   UNL     1       2.247   5.764  20.051  0.00  0.00    +0.000 A 
ATOM     12  N   UNL     1       3.249   4.887  19.948  0.00  0.00    +0.000 NA
ATOM     13  N   UNL     1       4.168   5.546  19.219  0.00  0.00    +0.000 N 
ATOM     14  C   UNL     1       3.748   6.781  18.811  0.00  0.00    +0.000 A 
BRANCH  13  15
ATOM     15  C   UNL     1       5.520   5.012  19.096  0.00  0.00    +0.000 C 
BRANCH  15  16
ATOM     16  C   UNL     1       6.158   5.439  17.834  0.00  0.00    +0.000 A 
ATOM     17  C   UNL     1       5.835   5.053  16.504  0.00  0.00    +0.000 A 
ATOM     18  C   UNL     1       4.776   4.132  16.025  0.00  0.00    +0.000 C 
ATOM     19  N   UNL     1       6.653   5.634  15.618  0.00  0.00    +0.000 NA
ATOM     20  O   UNL     1       7.520   6.414  16.354  0.00  0.00    +0.000 OA
ATOM     21  C   UNL     1       7.225   6.296  17.675  0.00  0.00    +0.000 A 
ATOM     22  C   UNL     1       8.075   7.064  18.607  0.00  0.00    +0.000 C 
ENDBRANCH  15  16
ENDBRANCH  13  15
ENDBRANCH   4  10
BRANCH   1  23
ATOM     23  C   UNL     1       0.953  11.123  21.278  0.00  0.00    +0.000 C 
BRANCH  23  28
ATOM     24  C   UNL     1      -2.418  12.910  21.407  0.00  0.00    +0.000 A 
ATOM     25  C   UNL     1      -2.947  12.391  22.595  0.00  0.00    +0.000 A 
ATOM     26  C   UNL     1      -2.232  11.451  23.336  0.00  0.00    +0.000 A 
ATOM     27  C   UNL     1      -0.970  11.037  22.912  0.00  0.00    +0.000 A 
ATOM     28  C   UNL     1      -0.423  11.537  21.725  0.00  0.00    +0.000 A 
ATOM     29  C   UNL     1      -1.172  12.450  20.965  0.00  0.00    +0.000 A 
BRANCH  24  30
ATOM     30  C   UNL     1      -3.125  14.017  20.673  0.00  0.00    +0.000 C 
BRANCH  30  32
ATOM     31  C   UNL     1      -4.054  16.077  21.358  0.00  0.00    +0.000 C 
ATOM     32  O   UNL     1      -3.948  14.690  21.625  0.00  0.00    +0.000 OA
ENDBRANCH  30  32
ENDBRANCH  24  30
ENDBRANCH  23  28
ENDBRANCH   1  23
TORSDOF 7
ENDMDL
MODEL 5
REMARK VINA RESULT:      -7.5      2.420      3.844
REMARK  Name = 
REMARK  12 active torsions:
REMARK  status: ('A' for Active; 'I' for Inactive)
REMARK    1  A    between atoms: C_1  and  O_2
REMARK    2  A    between atoms: O_2  and  C_3
REMARK    3  A    between atoms: C_3  and  C_4
REMARK    4  A    between atoms: C_8  and  C_9
REMARK    5  A    between atoms: C_9  and  N_10
REMARK    6  A    between atoms: N_13  and  C_14
REMARK    7  A    between atoms: N_17  and  C_18
REMARK    8  A    between atoms: C_18  and  C_19
REMARK    9  A    between atoms: C_20  and  C_21
REMARK   10  A    between atoms: C_24  and  C_25
REMARK   11  A    between atoms: C_29  and  C_30
REMARK   12  A    between atoms: C_29  and  C_31
REMARK                            x       y       z     vdW  Elec       q    Type
REMARK                         _______ _______ _______ _____ _____    ______ ____
ROOT
ATOM      1  N   UNL     1       0.898  10.042  20.447  0.00  0.00    +0.000 N 
ATOM      2  C   UNL     1       1.370   8.752  20.704  0.00  0.00    +0.000 C 
ATOM      3  O   UNL     1       1.545   8.298  21.827  0.00  0.00    +0.000 OA
ATOM      4  N   UNL     1       1.731   8.173  19.511  0.00  0.00    +0.000 N 
ATOM      5  C   UNL     1       1.525   9.039  18.466  0.00  0.00    +0.000 C 
ATOM      6  O   UNL     1       1.797   8.874  17.280  0.00  0.00    +0.000 OA
ATOM      7  C   UNL     1       0.882  10.327  19.014  0.00  0.00    +0.000 C 
ATOM      8  C   UNL     1      -0.539  10.445  18.462  0.00  0.00    +0.000 C 
ATOM      9  C   UNL     1       1.747  11.515  18.590  0.00  0.00    +0.000 C 
ENDROOT
BRANCH   4  10
ATOM     10  C   UNL     1       2.480   7.003  19.447  0.00  0.00    +0.000 A 
ATOM     11  C   UNL     1       2.198   5.728  20.000  0.00  0.00    +0.000 A 
ATOM     12  N   UNL     1       3.214   4.869  19.872  0.00  0.00    +0.000 NA
ATOM     13  N   UNL     1       4.152   5.588  19.228  0.00  0.00    +0.000 N 
ATOM     14  C   UNL     1       3.732   6.846  18.894  0.00  0.00    +0.000 A 
BRANCH  13  15
ATOM     15  C   UNL     1       5.513   5.077  19.118  0.00  0.00    +0.000 C 
BRANCH  15  16
ATOM     16  C   UNL     1       6.120   5.428  17.818  0.00  0.00    +0.000 A 
ATOM     17  C   UNL     1       7.186   6.332  17.553  0.00  0.00    +0.000 A 
ATOM     18  C   UNL     1       7.976   7.154  18.502  0.00  0.00    +0.000 C 
ATOM     19  N   UNL     1       7.447   6.405  16.243  0.00  0.00    +0.000 NA
ATOM     20  O   UNL     1       6.559   5.546  15.630  0.00  0.00    +0.000 OA
ATOM     21  C   UNL     1       5.768   4.966  16.569  0.00  0.00    +0.000 A 
ATOM     22  C   UNL     1       4.746   4.020  16.073  0.00  0.00    +0.000 C 
ENDBRANCH  15  16
ENDBRANCH  13  15
ENDBRANCH   4  10
BRANCH   1  23
ATOM     23  C   UNL     1       0.919  11.053  21.499  0.00  0.00    +0.000 C 
BRANCH  23  28
ATOM     24  C   UNL     1      -2.295  13.111  21.604  0.00  0.00    +0.000 A 
ATOM     25  C   UNL     1      -2.954  12.518  22.687  0.00  0.00    +0.000 A 
ATOM     26  C   UNL     1      -2.377  11.444  23.364  0.00  0.00    +0.000 A 
ATOM     27  C   UNL     1      -1.124  10.966  22.981  0.00  0.00    +0.000 A 
ATOM     28  C   UNL     1      -0.449  11.539  21.897  0.00  0.00    +0.000 A 
ATOM     29  C   UNL     1      -1.061  12.591  21.197  0.00  0.00    +0.000 A 
BRANCH  24  30
ATOM     30  C   UNL     1      -2.852  14.349  20.954  0.00  0.00    +0.000 C 
BRANCH  30  32
ATOM     31  C   UNL     1      -2.096  16.165  22.262  0.00  0.00    +0.000 C 
ATOM     32  O   UNL     1      -3.161  15.267  22.001  0.00  0.00    +0.000 OA
ENDBRANCH  30  32
ENDBRANCH  24  30
ENDBRANCH  23  28
ENDBRANCH   1  23
TORSDOF 7
ENDMDL
MODEL 6
REMARK VINA RESULT:      -7.5      1.011      1.060
REMARK  Name = 
REMARK  12 active torsions:
REMARK  status: ('A' for Active; 'I' for Inactive)
REMARK    1  A    between atoms: C_1  and  O_2
REMARK    2  A    between atoms: O_2  and  C_3
REMARK    3  A    between atoms: C_3  and  C_4
REMARK    4  A    between atoms: C_8  and  C_9
REMARK    5  A    between atoms: C_9  and  N_10
REMARK    6  A    between atoms: N_13  and  C_14
REMARK    7  A    between atoms: N_17  and  C_18
REMARK    8  A    between atoms: C_18  and  C_19
REMARK    9  A    between atoms: C_20  and  C_21
REMARK   10  A    between atoms: C_24  and  C_25
REMARK   11  A    between atoms: C_29  and  C_30
REMARK   12  A    between atoms: C_29  and  C_31
REMARK                            x       y       z     vdW  Elec       q    Type
REMARK                         _______ _______ _______ _____ _____    ______ ____
ROOT
ATOM      1  N   UNL     1       0.742   9.548  19.542  0.00  0.00    +0.000 N 
ATOM      2  C   UNL     1       1.541   8.836  18.643  0.00  0.00    +0.000 C 
ATOM      3  O   UNL     1       1.661   9.121  17.459  0.00  0.00    +0.000 OA
ATOM      4  N   UNL     1       2.020   7.715  19.278  0.00  0.00    +0.000 N 
ATOM      5  C   UNL     1       1.557   7.650  20.569  0.00  0.00    +0.000 C 
ATOM      6  O   UNL     1       1.734   6.758  21.393  0.00  0.00    +0.000 OA
ATOM      7  C   UNL     1       0.727   8.915  20.858  0.00  0.00    +0.000 C 
ATOM      8  C   UNL     1       1.453   9.753  21.912  0.00  0.00    +0.000 C 
ATOM      9  C   UNL     1      -0.657   8.482  21.344  0.00  0.00    +0.000 C 
ENDROOT
BRANCH   4  10
ATOM     10  C   UNL     1       2.622   6.668  18.589  0.00  0.00    +0.000 A 
ATOM     11  C   UNL     1       2.026   5.526  17.995  0.00  0.00    +0.000 A 
ATOM     12  N   UNL     1       2.923   4.645  17.545  0.00  0.00    +0.000 NA
ATOM     13  N   UNL     1       4.103   5.222  17.841  0.00  0.00    +0.000 N 
ATOM     14  C   UNL     1       3.971   6.461  18.403  0.00  0.00    +0.000 A 
BRANCH  13  15
ATOM     15  C   UNL     1       5.337   4.454  17.730  0.00  0.00    +0.000 C 
BRANCH  15  16
ATOM     16  C   UNL     1       6.288   5.088  16.793  0.00  0.00    +0.000 A 
ATOM     17  C   UNL     1       6.443   4.857  15.398  0.00  0.00    +0.000 A 
ATOM     18  C   UNL     1       5.696   3.933  14.511  0.00  0.00    +0.000 C 
ATOM     19  N   UNL     1       7.427   5.608  14.888  0.00  0.00    +0.000 NA
ATOM     20  O   UNL     1       7.928   6.345  15.941  0.00  0.00    +0.000 OA
ATOM     21  C   UNL     1       7.249   6.033  17.076  0.00  0.00    +0.000 A 
ATOM     22  C   UNL     1       7.673   6.732  18.306  0.00  0.00    +0.000 C 
ENDBRANCH  15  16
ENDBRANCH  13  15
ENDBRANCH   4  10
BRANCH   1  23
ATOM     23  C   UNL     1      -0.277  10.467  19.047  0.00  0.00    +0.000 C 
BRANCH  23  28
ATOM     24  C   UNL     1       1.920  13.574  19.344  0.00  0.00    +0.000 A 
ATOM     25  C   UNL     1       0.998  14.581  19.034  0.00  0.00    +0.000 A 
ATOM     26  C   UNL     1      -0.318  14.259  18.707  0.00  0.00    +0.000 A 
ATOM     27  C   UNL     1      -0.734  12.928  18.708  0.00  0.00    +0.000 A 
ATOM     28  C   UNL     1       0.172  11.904  19.008  0.00  0.00    +0.000 A 
ATOM     29  C   UNL     1       1.504  12.239  19.294  0.00  0.00    +0.000 A 
BRANCH  24  30
ATOM     30  C   UNL     1       3.303  13.924  19.823  0.00  0.00    +0.000 C 
BRANCH  30  32
ATOM     31  C   UNL     1       4.659  15.850  19.994  0.00  0.00    +0.000 C 
ATOM     32  O   UNL     1       3.626  15.201  19.274  0.00  0.00    +0.000 OA
ENDBRANCH  30  32
ENDBRANCH  24  30
ENDBRANCH  23  28
ENDBRANCH   1  23
TORSDOF 7
ENDMDL
MODEL 7
REMARK VINA RESULT:      -7.4      4.971     10.005
REMARK  Name = 
REMARK  12 active torsions:
REMARK  status: ('A' for Active; 'I' for Inactive)
REMARK    1  A    between atoms: C_1  and  O_2
REMARK    2  A    between atoms: O_2  and  C_3
REMARK    3  A    between atoms: C_3  and  C_4
REMARK    4  A    between atoms: C_8  and  C_9
REMARK    5  A    between atoms: C_9  and  N_10
REMARK    6  A    between atoms: N_13  and  C_14
REMARK    7  A    between atoms: N_17  and  C_18
REMARK    8  A    between atoms: C_18  and  C_19
REMARK    9  A    between atoms: C_20  and  C_21
REMARK   10  A    between atoms: C_24  and  C_25
REMARK   11  A    between atoms: C_29  and  C_30
REMARK   12  A    between atoms: C_29  and  C_31
REMARK                            x       y       z     vdW  Elec       q    Type
REMARK                         _______ _______ _______ _____ _____    ______ ____
ROOT
ATOM      1  N   UNL     1       0.223  10.702  18.748  0.00  0.00    +0.000 N 
ATOM      2  C   UNL     1      -1.015  10.304  18.236  0.00  0.00    +0.000 C 
ATOM      3  O   UNL     1      -1.170   9.352  17.483  0.00  0.00    +0.000 OA
ATOM      4  N   UNL     1      -1.958  11.235  18.599  0.00  0.00    +0.000 N 
ATOM      5  C   UNL     1      -1.387  12.249  19.329  0.00  0.00    +0.000 C 
ATOM      6  O   UNL     1      -1.921  13.268  19.756  0.00  0.00    +0.000 OA
ATOM      7  C   UNL     1       0.103  11.922  19.541  0.00  0.00    +0.000 C 
ATOM      8  C   UNL     1       0.347  11.672  21.031  0.00  0.00    +0.000 C 
ATOM      9  C   UNL     1       0.932  13.101  19.030  0.00  0.00    +0.000 C 
ENDROOT
BRANCH   4  10
ATOM     10  C   UNL     1      -3.226  11.273  18.031  0.00  0.00    +0.000 A 
ATOM     11  C   UNL     1      -3.596  11.507  16.682  0.00  0.00    +0.000 A 
ATOM     12  N   UNL     1      -4.917  11.622  16.517  0.00  0.00    +0.000 NA
ATOM     13  N   UNL     1      -5.403  11.455  17.760  0.00  0.00    +0.000 N 
ATOM     14  C   UNL     1      -4.435  11.176  18.684  0.00  0.00    +0.000 A 
BRANCH  13  15
ATOM     15  C   UNL     1      -6.801  11.757  18.042  0.00  0.00    +0.000 C 
BRANCH  15  16
ATOM     16  C   UNL     1      -7.119  11.564  19.472  0.00  0.00    +0.000 A 
ATOM     17  C   UNL     1      -7.288  10.345  20.186  0.00  0.00    +0.000 A 
ATOM     18  C   UNL     1      -7.183   8.949  19.695  0.00  0.00    +0.000 C 
ATOM     19  N   UNL     1      -7.592  10.572  21.469  0.00  0.00    +0.000 NA
ATOM     20  O   UNL     1      -7.622  11.943  21.617  0.00  0.00    +0.000 OA
ATOM     21  C   UNL     1      -7.342  12.533  20.426  0.00  0.00    +0.000 A 
ATOM     22  C   UNL     1      -7.347  14.010  20.409  0.00  0.00    +0.000 C 
ENDBRANCH  15  16
ENDBRANCH  13  15
ENDBRANCH   4  10
BRANCH   1  23
ATOM     23  C   UNL     1       1.457  10.223  18.135  0.00  0.00    +0.000 C 
BRANCH  23  28
ATOM     24  C   UNL     1       3.108   6.786  18.315  0.00  0.00    +0.000 A 
ATOM     25  C   UNL     1       2.692   6.359  19.582  0.00  0.00    +0.000 A 
ATOM     26  C   UNL     1       1.906   7.185  20.384  0.00  0.00    +0.000 A 
ATOM     27  C   UNL     1       1.506   8.437  19.920  0.00  0.00    +0.000 A 
ATOM     28  C   UNL     1       1.914   8.888  18.659  0.00  0.00    +0.000 A 
ATOM     29  C   UNL     1       2.742   8.065  17.879  0.00  0.00    +0.000 A 
BRANCH  24  30
ATOM     30  C   UNL     1       3.846   5.850  17.396  0.00  0.00    +0.000 C 
BRANCH  30  32
ATOM     31  C   UNL     1       5.989   6.067  16.428  0.00  0.00    +0.000 C 
ATOM     32  O   UNL     1       4.708   6.650  16.588  0.00  0.00    +0.000 OA
ENDBRANCH  30  32
ENDBRANCH  24  30
ENDBRANCH  23  28
ENDBRANCH   1  23
TORSDOF 7
ENDMDL
MODEL 8
REMARK VINA RESULT:      -7.4      1.071      2.164
REMARK  Name = 
REMARK  12 active torsions:
REMARK  status: ('A' for Active; 'I' for Inactive)
REMARK    1  A    between atoms: C_1  and  O_2
REMARK    2  A    between atoms: O_2  and  C_3
REMARK    3  A    between atoms: C_3  and  C_4
REMARK    4  A    between atoms: C_8  and  C_9
REMARK    5  A    between atoms: C_9  and  N_10
REMARK    6  A    between atoms: N_13  and  C_14
REMARK    7  A    between atoms: N_17  and  C_18
REMARK    8  A    between atoms: C_18  and  C_19
REMARK    9  A    between atoms: C_20  and  C_21
REMARK   10  A    between atoms: C_24  and  C_25
REMARK   11  A    between atoms: C_29  and  C_30
REMARK   12  A    between atoms: C_29  and  C_31
REMARK                            x       y       z     vdW  Elec       q    Type
REMARK                         _______ _______ _______ _____ _____    ______ ____
ROOT
ATOM      1  N   UNL     1       1.257   9.404  19.657  0.00  0.00    +0.000 N 
ATOM      2  C   UNL     1       1.983   8.641  18.739  0.00  0.00    +0.000 C 
ATOM      3  O   UNL     1       2.267   9.017  17.609  0.00  0.00    +0.000 OA
ATOM      4  N   UNL     1       2.174   7.386  19.266  0.00  0.00    +0.000 N 
ATOM      5  C   UNL     1       1.588   7.284  20.504  0.00  0.00    +0.000 C 
ATOM      6  O   UNL     1       1.511   6.294  21.226  0.00  0.00    +0.000 OA
ATOM      7  C   UNL     1       0.996   8.654  20.884  0.00  0.00    +0.000 C 
ATOM      8  C   UNL     1       1.768   9.213  22.080  0.00  0.00    +0.000 C 
ATOM      9  C   UNL     1      -0.485   8.464  21.214  0.00  0.00    +0.000 C 
ENDROOT
BRANCH   4  10
ATOM     10  C   UNL     1       2.623   6.317  18.501  0.00  0.00    +0.000 A 
ATOM     11  C   UNL     1       1.898   5.203  18.004  0.00  0.00    +0.000 A 
ATOM     12  N   UNL     1       2.682   4.285  17.432  0.00  0.00    +0.000 NA
ATOM     13  N   UNL     1       3.916   4.808  17.552  0.00  0.00    +0.000 N 
ATOM     14  C   UNL     1       3.921   6.051  18.123  0.00  0.00    +0.000 A 
BRANCH  13  15
ATOM     15  C   UNL     1       5.087   3.987  17.266  0.00  0.00    +0.000 C 
BRANCH  15  16
ATOM     16  C   UNL     1       6.081   4.724  16.458  0.00  0.00    +0.000 A 
ATOM     17  C   UNL     1       7.101   5.610  16.903  0.00  0.00    +0.000 A 
ATOM     18  C   UNL     1       7.447   6.026  18.283  0.00  0.00    +0.000 C 
ATOM     19  N   UNL     1       7.796   6.106  15.872  0.00  0.00    +0.000 NA
ATOM     20  O   UNL     1       7.244   5.548  14.737  0.00  0.00    +0.000 OA
ATOM     21  C   UNL     1       6.221   4.726  15.088  0.00  0.00    +0.000 A 
ATOM     22  C   UNL     1       5.511   4.054  13.981  0.00  0.00    +0.000 C 
ENDBRANCH  15  16
ENDBRANCH  13  15
ENDBRANCH   4  10
BRANCH   1  23
ATOM     23  C   UNL     1       0.487  10.557  19.205  0.00  0.00    +0.000 C 
BRANCH  23  28
ATOM     24  C   UNL     1       1.945  13.838  20.502  0.00  0.00    +0.000 A 
ATOM     25  C   UNL     1       2.586  14.315  19.353  0.00  0.00    +0.000 A 
ATOM     26  C   UNL     1       2.570  13.572  18.174  0.00  0.00    +0.000 A 
ATOM     27  C   UNL     1       1.893  12.354  18.122  0.00  0.00    +0.000 A 
ATOM     28  C   UNL     1       1.250  11.853  19.261  0.00  0.00    +0.000 A 
ATOM     29  C   UNL     1       1.311  12.591  20.453  0.00  0.00    +0.000 A 
BRANCH  24  30
ATOM     30  C   UNL     1       1.849  14.694  21.737  0.00  0.00    +0.000 C 
BRANCH  30  32
ATOM     31  C   UNL     1       4.081  14.904  22.478  0.00  0.00    +0.000 C 
ATOM     32  O   UNL     1       3.016  15.513  21.769  0.00  0.00    +0.000 OA
ENDBRANCH  30  32
ENDBRANCH  24  30
ENDBRANCH  23  28
ENDBRANCH   1  23
TORSDOF 7
ENDMDL
MODEL 9
REMARK VINA RESULT:      -7.4      1.724      2.902
REMARK  Name = 
REMARK  12 active torsions:
REMARK  status: ('A' for Active; 'I' for Inactive)
REMARK    1  A    between atoms: C_1  and  O_2
REMARK    2  A    between atoms: O_2  and  C_3
REMARK    3  A    between atoms: C_3  and  C_4
REMARK    4  A    between atoms: C_8  and  C_9
REMARK    5  A    between atoms: C_9  and  N_10
REMARK    6  A    between atoms: N_13  and  C_14
REMARK    7  A    between atoms: N_17  and  C_18
REMARK    8  A    between atoms: C_18  and  C_19
REMARK    9  A    between atoms: C_20  and  C_21
REMARK   10  A    between atoms: C_24  and  C_25
REMARK   11  A    between atoms: C_29  and  C_30
REMARK   12  A    between atoms: C_29  and  C_31
REMARK                            x       y       z     vdW  Elec       q    Type
REMARK                         _______ _______ _______ _____ _____    ______ ____
ROOT
ATOM      1  N   UNL     1       1.122   9.316  19.628  0.00  0.00    +0.000 N 
ATOM      2  C   UNL     1       1.865   8.570  18.710  0.00  0.00    +0.000 C 
ATOM      3  O   UNL     1       2.094   8.927  17.562  0.00  0.00    +0.000 OA
ATOM      4  N   UNL     1       2.145   7.345  19.267  0.00  0.00    +0.000 N 
ATOM      5  C   UNL     1       1.602   7.246  20.525  0.00  0.00    +0.000 C 
ATOM      6  O   UNL     1       1.604   6.276  21.277  0.00  0.00    +0.000 OA
ATOM      7  C   UNL     1       0.942   8.591  20.883  0.00  0.00    +0.000 C 
ATOM      8  C   UNL     1       1.714   9.230  22.038  0.00  0.00    +0.000 C 
ATOM      9  C   UNL     1      -0.515   8.325  21.263  0.00  0.00    +0.000 C 
ENDROOT
BRANCH   4  10
ATOM     10  C   UNL     1       2.634   6.280  18.520  0.00  0.00    +0.000 A 
ATOM     11  C   UNL     1       1.948   5.140  18.029  0.00  0.00    +0.000 A 
ATOM     12  N   UNL     1       2.765   4.239  17.476  0.00  0.00    +0.000 NA
ATOM     13  N   UNL     1       3.981   4.801  17.602  0.00  0.00    +0.000 N 
ATOM     14  C   UNL     1       3.944   6.049  18.158  0.00  0.00    +0.000 A 
BRANCH  13  15
ATOM     15  C   UNL     1       5.179   4.012  17.338  0.00  0.00    +0.000 C 
BRANCH  15  16
ATOM     16  C   UNL     1       6.161   4.769  16.535  0.00  0.00    +0.000 A 
ATOM     17  C   UNL     1       7.156   5.681  16.983  0.00  0.00    +0.000 A 
ATOM     18  C   UNL     1       7.482   6.110  18.365  0.00  0.00    +0.000 C 
ATOM     19  N   UNL     1       7.846   6.190  15.955  0.00  0.00    +0.000 NA
ATOM     20  O   UNL     1       7.316   5.615  14.819  0.00  0.00    +0.000 OA
ATOM     21  C   UNL     1       6.311   4.770  15.166  0.00  0.00    +0.000 A 
ATOM     22  C   UNL     1       5.625   4.077  14.056  0.00  0.00    +0.000 C 
ENDBRANCH  15  16
ENDBRANCH  13  15
ENDBRANCH   4  10
BRANCH   1  23
ATOM     23  C   UNL     1       0.272  10.409  19.166  0.00  0.00    +0.000 C 
BRANCH  23  28
ATOM     24  C   UNL     1      -0.750  13.188  21.575  0.00  0.00    +0.000 A 
ATOM     25  C   UNL     1       0.413  13.969  21.588  0.00  0.00    +0.000 A 
ATOM     26  C   UNL     1       1.529  13.587  20.843  0.00  0.00    +0.000 A 
ATOM     27  C   UNL     1       1.487  12.435  20.060  0.00  0.00    +0.000 A 
ATOM     28  C   UNL     1       0.338  11.635  20.037  0.00  0.00    +0.000 A 
ATOM     29  C   UNL     1      -0.763  12.007  20.824  0.00  0.00    +0.000 A 
BRANCH  24  30
ATOM     30  C   UNL     1      -1.997  13.662  22.272  0.00  0.00    +0.000 C 
BRANCH  30  32
ATOM     31  C   UNL     1      -2.782  15.448  23.604  0.00  0.00    +0.000 C 
ATOM     32  O   UNL     1      -1.682  14.908  22.891  0.00  0.00    +0.000 OA
ENDBRANCH  30  32
ENDBRANCH  24  30
ENDBRANCH  23  28
ENDBRANCH   1  23
TORSDOF 7
ENDMDL
