MODEL 1
REMARK VINA RESULT:      -6.4      0.000      0.000
REMARK  Name = 
REMARK  6 active torsions:
REMARK  status: ('A' for Active; 'I' for Inactive)
REMARK    1  A    between atoms: C_1  and  C_2
REMARK    2  A    between atoms: C_6  and  N_7
REMARK    3  A    between atoms: C_10  and  O_11
REMARK    4  A    between atoms: O_11  and  P_12
REMARK    5  A    between atoms: P_12  and  O_14
REMARK    6  A    between atoms: P_12  and  O_15
REMARK                            x       y       z     vdW  Elec       q    Type
REMARK                         _______ _______ _______ _____ _____    ______ ____
ROOT
ATOM      1  C   UNL     1       3.254   6.844  17.980  0.00  0.00    +0.000 C 
ATOM      2  C   UNL     1       2.949   5.417  18.351  0.00  0.00    +0.000 A 
ATOM      3  C   UNL     1       1.800   4.854  17.751  0.00  0.00    +0.000 A 
ATOM      4  C   UNL     1       1.353   3.573  18.074  0.00  0.00    +0.000 A 
ATOM      5  C   UNL     1       2.043   2.826  19.018  0.00  0.00    +0.000 A 
ATOM      6  C   UNL     1       3.202   3.364  19.597  0.00  0.00    +0.000 A 
ATOM      7  C   UNL     1       3.698   4.634  19.256  0.00  0.00    +0.000 A 
ENDROOT
BRANCH   6   8
ATOM      8  N   UNL     1       3.903   2.535  20.561  0.00  0.00    +0.000 N 
ATOM      9  O   UNL     1       3.365   2.382  21.666  0.00  0.00    +0.000 OA
ATOM     10  O   UNL     1       4.943   1.987  20.179  0.00  0.00    +0.000 OA
ENDBRANCH   6   8
BRANCH   7  11
ATOM     11  O   UNL     1       4.876   5.022  19.858  0.00  0.00    +0.000 OA
BRANCH  11  12
ATOM     12  P   UNL     1       6.263   5.332  18.871  0.00  0.00    +0.000 P 
ATOM     13  O   UNL     1       7.206   5.348  20.073  0.00  0.00    +0.000 OA
BRANCH  12  14
ATOM     14  O   UNL     1       6.242   3.807  18.306  0.00  0.00    +0.000 OA
ATOM     15  H   UNL     1       6.561   3.151  18.950  0.00  0.00    +0.000 HD
ENDBRANCH  12  14
BRANCH  12  16
ATOM     16  O   UNL     1       7.650   5.642  17.885  0.00  0.00    +0.000 OA
ATOM     17  H   UNL     1       7.927   6.523  18.216  0.00  0.00    +0.000 HD
ENDBRANCH  12  16
ENDBRANCH  11  12
ENDBRANCH   7  11
TORSDOF 5
ENDMDL
MODEL 2
REMARK VINA RESULT:      -6.0      1.729      1.970
REMARK  Name = 
REMARK  6 active torsions:
REMARK  status: ('A' for Active; 'I' for Inactive)
REMARK    1  A    between atoms: C_1  and  C_2
REMARK    2  A    between atoms: C_6  and  N_7
REMARK    3  A    between atoms: C_10  and  O_11
REMARK    4  A    between atoms: O_11  and  P_12
REMARK    5  A    between atoms: P_12  and  O_14
REMARK    6  A    between atoms: P_12  and  O_15
REMARK                            x       y       z     vdW  Elec       q    Type
REMARK                         _______ _______ _______ _____ _____    ______ ____
ROOT
ATOM      1  C   UNL     1       2.495   6.706  19.892  0.00  0.00    +0.000 C 
ATOM      2  C   UNL     1       2.363   5.207  19.949  0.00  0.00    +0.000 A 
ATOM      3  C   UNL     1       1.106   4.712  20.363  0.00  0.00    +0.000 A 
ATOM      4  C   UNL     1       0.875   3.349  20.544  0.00  0.00    +0.000 A 
ATOM      5  C   UNL     1       1.904   2.446  20.325  0.00  0.00    +0.000 A 
ATOM      6  C   UNL     1       3.147   2.924  19.885  0.00  0.00    +0.000 A 
ATOM      7  C   UNL     1       3.392   4.288  19.651  0.00  0.00    +0.000 A 
ENDROOT
BRANCH   6   8
ATOM      8  N   UNL     1       4.186   1.938  19.645  0.00  0.00    +0.000 N 
ATOM      9  O   UNL     1       5.058   1.820  20.516  0.00  0.00    +0.000 OA
ATOM     10  O   UNL     1       4.077   1.243  18.628  0.00  0.00    +0.000 OA
ENDBRANCH   6   8
BRANCH   7  11
ATOM     11  O   UNL     1       4.640   4.620  19.168  0.00  0.00    +0.000 OA
BRANCH  11  12
ATOM     12  P   UNL     1       4.811   5.044  17.499  0.00  0.00    +0.000 P 
ATOM     13  O   UNL     1       6.003   5.958  17.777  0.00  0.00    +0.000 OA
BRANCH  12  14
ATOM     14  O   UNL     1       5.413   3.573  17.154  0.00  0.00    +0.000 OA
ATOM     15  H   UNL     1       5.138   3.237  16.283  0.00  0.00    +0.000 HD
ENDBRANCH  12  14
BRANCH  12  16
ATOM     16  O   UNL     1       4.981   5.468  15.831  0.00  0.00    +0.000 OA
ATOM     17  H   UNL     1       5.593   6.234  15.889  0.00  0.00    +0.000 HD
ENDBRANCH  12  16
ENDBRANCH  11  12
ENDBRANCH   7  11
TORSDOF 5
ENDMDL
MODEL 3
REMARK VINA RESULT:      -6.0      1.487      1.882
REMARK  Name = 
REMARK  6 active torsions:
REMARK  status: ('A' for Active; 'I' for Inactive)
REMARK    1  A    between atoms: C_1  and  C_2
REMARK    2  A    between atoms: C_6  and  N_7
REMARK    3  A    between atoms: C_10  and  O_11
REMARK    4  A    between atoms: O_11  and  P_12
REMARK    5  A    between atoms: P_12  and  O_14
REMARK    6  A    between atoms: P_12  and  O_15
REMARK                            x       y       z     vdW  Elec       q    Type
REMARK                         _______ _______ _______ _____ _____    ______ ____
ROOT
ATOM      1  C   UNL     1       2.558   6.791  19.301  0.00  0.00    +0.000 C 
ATOM      2  C   UNL     1       2.439   5.333  19.655  0.00  0.00    +0.000 A 
ATOM      3  C   UNL     1       1.348   4.985  20.483  0.00  0.00    +0.000 A 
ATOM      4  C   UNL     1       1.169   3.686  20.959  0.00  0.00    +0.000 A 
ATOM      5  C   UNL     1       2.089   2.703  20.624  0.00  0.00    +0.000 A 
ATOM      6  C   UNL     1       3.159   3.031  19.779  0.00  0.00    +0.000 A 
ATOM      7  C   UNL     1       3.336   4.321  19.250  0.00  0.00    +0.000 A 
ENDROOT
BRANCH   6   8
ATOM      8  N   UNL     1       4.081   1.963  19.437  0.00  0.00    +0.000 N 
ATOM      9  O   UNL     1       5.022   1.764  20.217  0.00  0.00    +0.000 OA
ATOM     10  O   UNL     1       3.813   1.288  18.437  0.00  0.00    +0.000 OA
ENDBRANCH   6   8
BRANCH   7  11
ATOM     11  O   UNL     1       4.397   4.498  18.388  0.00  0.00    +0.000 OA
BRANCH  11  12
ATOM     12  P   UNL     1       5.902   5.081  19.015  0.00  0.00    +0.000 P 
ATOM     13  O   UNL     1       6.709   4.030  18.256  0.00  0.00    +0.000 OA
BRANCH  12  14
ATOM     14  O   UNL     1       5.825   6.397  18.063  0.00  0.00    +0.000 OA
ATOM     15  H   UNL     1       6.104   6.229  17.146  0.00  0.00    +0.000 HD
ENDBRANCH  12  14
BRANCH  12  16
ATOM     16  O   UNL     1       7.405   5.663  19.641  0.00  0.00    +0.000 OA
ATOM     17  H   UNL     1       7.981   4.879  19.517  0.00  0.00    +0.000 HD
ENDBRANCH  12  16
ENDBRANCH  11  12
ENDBRANCH   7  11
TORSDOF 5
ENDMDL
MODEL 4
REMARK VINA RESULT:      -5.9      1.458      1.811
REMARK  Name = 
REMARK  6 active torsions:
REMARK  status: ('A' for Active; 'I' for Inactive)
REMARK    1  A    between atoms: C_1  and  C_2
REMARK    2  A    between atoms: C_6  and  N_7
REMARK    3  A    between atoms: C_10  and  O_11
REMARK    4  A    between atoms: O_11  and  P_12
REMARK    5  A    between atoms: P_12  and  O_14
REMARK    6  A    between atoms: P_12  and  O_15
REMARK                            x       y       z     vdW  Elec       q    Type
REMARK                         _______ _______ _______ _____ _____    ______ ____
ROOT
ATOM      1  C   UNL     1       3.487   6.994  17.787  0.00  0.00    +0.000 C 
ATOM      2  C   UNL     1       3.173   5.829  18.688  0.00  0.00    +0.000 A 
ATOM      3  C   UNL     1       2.299   6.100  19.766  0.00  0.00    +0.000 A 
ATOM      4  C   UNL     1       1.994   5.136  20.726  0.00  0.00    +0.000 A 
ATOM      5  C   UNL     1       2.568   3.876  20.636  0.00  0.00    +0.000 A 
ATOM      6  C   UNL     1       3.412   3.588  19.554  0.00  0.00    +0.000 A 
ATOM      7  C   UNL     1       3.700   4.527  18.549  0.00  0.00    +0.000 A 
ENDROOT
BRANCH   6   8
ATOM      8  N   UNL     1       3.969   2.249  19.490  0.00  0.00    +0.000 N 
ATOM      9  O   UNL     1       4.910   1.995  20.254  0.00  0.00    +0.000 OA
ATOM     10  O   UNL     1       3.412   1.444  18.734  0.00  0.00    +0.000 OA
ENDBRANCH   6   8
BRANCH   7  11
ATOM     11  O   UNL     1       4.501   4.100  17.512  0.00  0.00    +0.000 OA
BRANCH  11  12
ATOM     12  P   UNL     1       6.054   4.833  17.291  0.00  0.00    +0.000 P 
ATOM     13  O   UNL     1       6.557   4.347  18.649  0.00  0.00    +0.000 OA
BRANCH  12  14
ATOM     14  O   UNL     1       6.469   3.700  16.201  0.00  0.00    +0.000 OA
ATOM     15  H   UNL     1       7.407   3.444  16.246  0.00  0.00    +0.000 HD
ENDBRANCH  12  14
BRANCH  12  16
ATOM     16  O   UNL     1       7.605   5.565  17.071  0.00  0.00    +0.000 OA
ATOM     17  H   UNL     1       7.460   6.077  16.247  0.00  0.00    +0.000 HD
ENDBRANCH  12  16
ENDBRANCH  11  12
ENDBRANCH   7  11
TORSDOF 5
ENDMDL
MODEL 5
REMARK VINA RESULT:      -5.9      3.040      4.029
REMARK  Name = 
REMARK  6 active torsions:
REMARK  status: ('A' for Active; 'I' for Inactive)
REMARK    1  A    between atoms: C_1  and  C_2
REMARK    2  A    between atoms: C_6  and  N_7
REMARK    3  A    between atoms: C_10  and  O_11
REMARK    4  A    between atoms: O_11  and  P_12
REMARK    5  A    between atoms: P_12  and  O_14
REMARK    6  A    between atoms: P_12  and  O_15
REMARK                            x       y       z     vdW  Elec       q    Type
REMARK                         _______ _______ _______ _____ _____    ______ ____
ROOT
ATOM      1  C   UNL     1       2.624   7.366  18.316  0.00  0.00    +0.000 C 
ATOM      2  C   UNL     1       3.312   6.101  17.877  0.00  0.00    +0.000 A 
ATOM      3  C   UNL     1       4.502   6.271  17.133  0.00  0.00    +0.000 A 
ATOM      4  C   UNL     1       5.191   5.187  16.590  0.00  0.00    +0.000 A 
ATOM      5  C   UNL     1       4.698   3.903  16.770  0.00  0.00    +0.000 A 
ATOM      6  C   UNL     1       3.535   3.721  17.532  0.00  0.00    +0.000 A 
ATOM      7  C   UNL     1       2.846   4.792  18.128  0.00  0.00    +0.000 A 
ENDROOT
BRANCH   6   8
ATOM      8  N   UNL     1       3.071   2.357  17.714  0.00  0.00    +0.000 N 
ATOM      9  O   UNL     1       3.771   1.616  18.418  0.00  0.00    +0.000 OA
ATOM     10  O   UNL     1       1.979   2.064  17.215  0.00  0.00    +0.000 OA
ENDBRANCH   6   8
BRANCH   7  11
ATOM     11  O   UNL     1       1.748   4.472  18.896  0.00  0.00    +0.000 OA
BRANCH  11  12
ATOM     12  P   UNL     1       1.985   3.969  20.535  0.00  0.00    +0.000 P 
ATOM     13  O   UNL     1       1.734   5.373  21.080  0.00  0.00    +0.000 OA
BRANCH  12  14
ATOM     14  O   UNL     1       0.554   3.197  20.539  0.00  0.00    +0.000 OA
ATOM     15  H   UNL     1       0.637   2.227  20.555  0.00  0.00    +0.000 HD
ENDBRANCH  12  14
BRANCH  12  16
ATOM     16  O   UNL     1       2.223   3.466  22.173  0.00  0.00    +0.000 OA
ATOM     17  H   UNL     1       3.187   3.616  22.282  0.00  0.00    +0.000 HD
ENDBRANCH  12  16
ENDBRANCH  11  12
ENDBRANCH   7  11
TORSDOF 5
ENDMDL
MODEL 6
REMARK VINA RESULT:      -5.8      1.379      1.668
REMARK  Name = 
REMARK  6 active torsions:
REMARK  status: ('A' for Active; 'I' for Inactive)
REMARK    1  A    between atoms: C_1  and  C_2
REMARK    2  A    between atoms: C_6  and  N_7
REMARK    3  A    between atoms: C_10  and  O_11
REMARK    4  A    between atoms: O_11  and  P_12
REMARK    5  A    between atoms: P_12  and  O_14
REMARK    6  A    between atoms: P_12  and  O_15
REMARK                            x       y       z     vdW  Elec       q    Type
REMARK                         _______ _______ _______ _____ _____    ______ ____
ROOT
ATOM      1  C   UNL     1       2.723   6.533  18.306  0.00  0.00    +0.000 C 
ATOM      2  C   UNL     1       2.617   5.234  19.059  0.00  0.00    +0.000 A 
ATOM      3  C   UNL     1       1.613   5.175  20.053  0.00  0.00    +0.000 A 
ATOM      4  C   UNL     1       1.463   4.065  20.883  0.00  0.00    +0.000 A 
ATOM      5  C   UNL     1       2.324   2.987  20.745  0.00  0.00    +0.000 A 
ATOM      6  C   UNL     1       3.304   3.022  19.742  0.00  0.00    +0.000 A 
ATOM      7  C   UNL     1       3.447   4.110  18.863  0.00  0.00    +0.000 A 
ENDROOT
BRANCH   6   8
ATOM      8  N   UNL     1       4.166   1.860  19.620  0.00  0.00    +0.000 N 
ATOM      9  O   UNL     1       3.928   1.080  18.687  0.00  0.00    +0.000 OA
ATOM     10  O   UNL     1       5.114   1.778  20.408  0.00  0.00    +0.000 OA
ENDBRANCH   6   8
BRANCH   7  11
ATOM     11  O   UNL     1       4.415   3.995  17.887  0.00  0.00    +0.000 OA
BRANCH  11  12
ATOM     12  P   UNL     1       5.795   5.039  17.944  0.00  0.00    +0.000 P 
ATOM     13  O   UNL     1       6.130   4.637  19.380  0.00  0.00    +0.000 OA
BRANCH  12  14
ATOM     14  O   UNL     1       6.629   4.042  16.967  0.00  0.00    +0.000 OA
ATOM     15  H   UNL     1       7.192   4.509  16.326  0.00  0.00    +0.000 HD
ENDBRANCH  12  14
BRANCH  12  16
ATOM     16  O   UNL     1       7.174   6.081  18.002  0.00  0.00    +0.000 OA
ATOM     17  H   UNL     1       7.439   5.996  18.943  0.00  0.00    +0.000 HD
ENDBRANCH  12  16
ENDBRANCH  11  12
ENDBRANCH   7  11
TORSDOF 5
ENDMDL
MODEL 7
REMARK VINA RESULT:      -5.8      1.316      1.641
REMARK  Name = 
REMARK  6 active torsions:
REMARK  status: ('A' for Active; 'I' for Inactive)
REMARK    1  A    between atoms: C_1  and  C_2
REMARK    2  A    between atoms: C_6  and  N_7
REMARK    3  A    between atoms: C_10  and  O_11
REMARK    4  A    between atoms: O_11  and  P_12
REMARK    5  A    between atoms: P_12  and  O_14
REMARK    6  A    between atoms: P_12  and  O_15
REMARK                            x       y       z     vdW  Elec       q    Type
REMARK                         _______ _______ _______ _____ _____    ______ ____
ROOT
ATOM      1  C   UNL     1       3.916   6.978  17.790  0.00  0.00    +0.000 C 
ATOM      2  C   UNL     1       3.382   5.586  18.002  0.00  0.00    +0.000 A 
ATOM      3  C   UNL     1       1.991   5.423  17.814  0.00  0.00    +0.000 A 
ATOM      4  C   UNL     1       1.352   4.209  18.063  0.00  0.00    +0.000 A 
ATOM      5  C   UNL     1       2.092   3.127  18.517  0.00  0.00    +0.000 A 
ATOM      6  C   UNL     1       3.478   3.270  18.678  0.00  0.00    +0.000 A 
ATOM      7  C   UNL     1       4.152   4.469  18.391  0.00  0.00    +0.000 A 
ENDROOT
BRANCH   6   8
ATOM      8  N   UNL     1       4.213   2.103  19.131  0.00  0.00    +0.000 N 
ATOM      9  O   UNL     1       4.227   1.121  18.377  0.00  0.00    +0.000 OA
ATOM     10  O   UNL     1       4.828   2.207  20.199  0.00  0.00    +0.000 OA
ENDBRANCH   6   8
BRANCH   7  11
ATOM     11  O   UNL     1       5.523   4.461  18.540  0.00  0.00    +0.000 OA
BRANCH  11  12
ATOM     12  P   UNL     1       6.522   4.673  17.142  0.00  0.00    +0.000 P 
ATOM     13  O   UNL     1       7.790   4.283  17.899  0.00  0.00    +0.000 OA
BRANCH  12  14
ATOM     14  O   UNL     1       5.932   3.312  16.474  0.00  0.00    +0.000 OA
ATOM     15  H   UNL     1       4.968   3.221  16.568  0.00  0.00    +0.000 HD
ENDBRANCH  12  14
BRANCH  12  16
ATOM     16  O   UNL     1       7.520   4.885  15.746  0.00  0.00    +0.000 OA
ATOM     17  H   UNL     1       7.434   4.008  15.314  0.00  0.00    +0.000 HD
ENDBRANCH  12  16
ENDBRANCH  11  12
ENDBRANCH   7  11
TORSDOF 5
ENDMDL
MODEL 8
REMARK VINA RESULT:      -5.8      2.040      2.615
REMARK  Name = 
REMARK  6 active torsions:
REMARK  status: ('A' for Active; 'I' for Inactive)
REMARK    1  A    between atoms: C_1  and  C_2
REMARK    2  A    between atoms: C_6  and  N_7
REMARK    3  A    between atoms: C_10  and  O_11
REMARK    4  A    between atoms: O_11  and  P_12
REMARK    5  A    between atoms: P_12  and  O_14
REMARK    6  A    between atoms: P_12  and  O_15
REMARK                            x       y       z     vdW  Elec       q    Type
REMARK                         _______ _______ _______ _____ _____    ______ ____
ROOT
ATOM      1  C   UNL     1       2.721   8.193  17.764  0.00  0.00    +0.000 C 
ATOM      2  C   UNL     1       2.721   6.923  18.572  0.00  0.00    +0.000 A 
ATOM      3  C   UNL     1       1.972   6.952  19.771  0.00  0.00    +0.000 A 
ATOM      4  C   UNL     1       1.958   5.875  20.657  0.00  0.00    +0.000 A 
ATOM      5  C   UNL     1       2.705   4.743  20.368  0.00  0.00    +0.000 A 
ATOM      6  C   UNL     1       3.428   4.692  19.167  0.00  0.00    +0.000 A 
ATOM      7  C   UNL     1       3.423   5.746  18.236  0.00  0.00    +0.000 A 
ENDROOT
BRANCH   6   8
ATOM      8  N   UNL     1       4.175   3.477  18.898  0.00  0.00    +0.000 N 
ATOM      9  O   UNL     1       5.283   3.368  19.440  0.00  0.00    +0.000 OA
ATOM     10  O   UNL     1       3.617   2.614  18.210  0.00  0.00    +0.000 OA
ENDBRANCH   6   8
BRANCH   7  11
ATOM     11  O   UNL     1       4.132   5.547  17.071  0.00  0.00    +0.000 OA
BRANCH  11  12
ATOM     12  P   UNL     1       5.694   6.273  16.902  0.00  0.00    +0.000 P 
ATOM     13  O   UNL     1       6.380   4.923  16.702  0.00  0.00    +0.000 OA
BRANCH  12  14
ATOM     14  O   UNL     1       5.310   6.833  15.425  0.00  0.00    +0.000 OA
ATOM     15  H   UNL     1       5.958   6.593  14.739  0.00  0.00    +0.000 HD
ENDBRANCH  12  14
BRANCH  12  16
ATOM     16  O   UNL     1       7.255   6.998  16.734  0.00  0.00    +0.000 OA
ATOM     17  H   UNL     1       7.672   6.757  17.589  0.00  0.00    +0.000 HD
ENDBRANCH  12  16
ENDBRANCH  11  12
ENDBRANCH   7  11
TORSDOF 5
ENDMDL
MODEL 9
REMARK VINA RESULT:      -5.8      1.976      4.061
REMARK  Name = 
REMARK  6 active torsions:
REMARK  status: ('A' for Active; 'I' for Inactive)
REMARK    1  A    between atoms: C_1  and  C_2
REMARK    2  A    between atoms: C_6  and  N_7
REMARK    3  A    between atoms: C_10  and  O_11
REMARK    4  A    between atoms: O_11  and  P_12
REMARK    5  A    between atoms: P_12  and  O_14
REMARK    6  A    between atoms: P_12  and  O_15
REMARK                            x       y       z     vdW  Elec       q    Type
REMARK                         _______ _______ _______ _____ _____    ______ ____
ROOT
ATOM      1  C   UNL     1       1.471   4.434  17.824  0.00  0.00    +0.000 C 
ATOM      2  C   UNL     1       2.801   5.140  17.829  0.00  0.00    +0.000 A 
ATOM      3  C   UNL     1       2.763   6.532  17.591  0.00  0.00    +0.000 A 
ATOM      4  C   UNL     1       3.927   7.292  17.480  0.00  0.00    +0.000 A 
ATOM      5  C   UNL     1       5.162   6.672  17.596  0.00  0.00    +0.000 A 
ATOM      6  C   UNL     1       5.211   5.296  17.863  0.00  0.00    +0.000 A 
ATOM      7  C   UNL     1       4.052   4.516  18.023  0.00  0.00    +0.000 A 
ENDROOT
BRANCH   6   8
ATOM      8  N   UNL     1       6.525   4.696  18.000  0.00  0.00    +0.000 N 
ATOM      9  O   UNL     1       7.082   4.320  16.959  0.00  0.00    +0.000 OA
ATOM     10  O   UNL     1       7.019   4.677  19.134  0.00  0.00    +0.000 OA
ENDBRANCH   6   8
BRANCH   7  11
ATOM     11  O   UNL     1       4.238   3.186  18.336  0.00  0.00    +0.000 OA
BRANCH  11  12
ATOM     12  P   UNL     1       3.902   2.646  19.946  0.00  0.00    +0.000 P 
ATOM     13  O   UNL     1       2.727   1.783  19.489  0.00  0.00    +0.000 OA
BRANCH  12  14
ATOM     14  O   UNL     1       5.220   1.694  19.935  0.00  0.00    +0.000 OA
ATOM     15  H   UNL     1       5.941   2.034  19.376  0.00  0.00    +0.000 HD
ENDBRANCH  12  14
BRANCH  12  16
ATOM     16  O   UNL     1       3.566   2.106  21.554  0.00  0.00    +0.000 OA
ATOM     17  H   UNL     1       2.586   2.154  21.571  0.00  0.00    +0.000 HD
ENDBRANCH  12  16
ENDBRANCH  11  12
ENDBRANCH   7  11
TORSDOF 5
ENDMDL
