MODEL 1
REMARK VINA RESULT:      -8.7      0.000      0.000
REMARK  Name = 
REMARK  9 active torsions:
REMARK  status: ('A' for Active; 'I' for Inactive)
REMARK    1  A    between atoms: C_1  and  C_2
REMARK    2  A    between atoms: C_2  and  C_3
REMARK    3  A    between atoms: C_2  and  S_4
REMARK    4  A    between atoms: S_4  and  N_7
REMARK    5  A    between atoms: N_7  and  C_8
REMARK    6  A    between atoms: C_13  and  C_14
REMARK    7  A    between atoms: C_14  and  N_15
REMARK    8  A    between atoms: C_17  and  C_18
REMARK    9  A    between atoms: C_23  and  C_24
REMARK                            x       y       z     vdW  Elec       q    Type
REMARK                         _______ _______ _______ _____ _____    ______ ____
ROOT
ATOM      1  C   UNL     1       0.840  10.523  18.188  0.00  0.00    +0.000 C 
ATOM      2  C   UNL     1       0.816  10.438  19.724  0.00  0.00    +0.000 C 
ATOM      3  C   UNL     1       1.176   9.008  19.962  0.00  0.00    +0.000 A 
ATOM      4  C   UNL     1       0.955   8.265  21.104  0.00  0.00    +0.000 A 
ATOM      5  C   UNL     1       1.492   6.979  21.171  0.00  0.00    +0.000 A 
ATOM      6  C   UNL     1       2.257   6.453  20.110  0.00  0.00    +0.000 A 
ATOM      7  C   UNL     1       2.438   7.217  18.938  0.00  0.00    +0.000 A 
ATOM      8  C   UNL     1       1.874   8.483  18.874  0.00  0.00    +0.000 A 
ATOM      9  C   UNL     1       1.940   9.494  17.762  0.00  0.00    +0.000 C 
ENDROOT
BRANCH   1  10
ATOM     10  N   UNL     1      -0.445  10.170  17.518  0.00  0.00    +0.000 NA
ATOM     11  H   UNL     1      -0.587   9.163  17.403  0.00  0.00    +0.000 HD
BRANCH  10  12
ATOM     12  S   UNL     1      -1.927  10.881  17.825  0.00  0.00    +0.000 S 
ATOM     13  O   UNL     1      -1.727  12.194  18.398  0.00  0.00    +0.000 OA
ATOM     14  O   UNL     1      -2.642   9.868  18.578  0.00  0.00    +0.000 OA
BRANCH  12  16
ATOM     15  C   UNL     1      -2.619   9.757  15.452  0.00  0.00    +0.000 C 
ATOM     16  C   UNL     1      -2.779  11.065  16.235  0.00  0.00    +0.000 C 
ATOM     17  C   UNL     1      -4.262  11.379  16.374  0.00  0.00    +0.000 C 
ENDBRANCH  12  16
ENDBRANCH  10  12
ENDBRANCH   1  10
BRANCH   6  18
ATOM     18  C   UNL     1       2.880   5.082  20.227  0.00  0.00    +0.000 C 
BRANCH  18  19
ATOM     19  N   UNL     1       3.846   4.837  19.160  0.00  0.00    +0.000 N 
ATOM     20  N   UNL     1       5.119   5.245  19.372  0.00  0.00    +0.000 NA
ATOM     21  C   UNL     1       5.771   4.977  18.225  0.00  0.00    +0.000 A 
ATOM     22  C   UNL     1       4.901   4.330  17.311  0.00  0.00    +0.000 A 
ATOM     23  C   UNL     1       3.679   4.225  17.944  0.00  0.00    +0.000 A 
BRANCH  21  24
ATOM     24  C   UNL     1       7.216   5.335  17.988  0.00  0.00    +0.000 C 
ATOM     25  F   UNL     1       7.386   6.389  17.149  0.00  0.00    +0.000 F 
ATOM     26  F   UNL     1       7.847   5.654  19.151  0.00  0.00    +0.000 F 
ATOM     27  F   UNL     1       7.905   4.290  17.453  0.00  0.00    +0.000 F 
ENDBRANCH  21  24
BRANCH  23  28
ATOM     28  C   UNL     1       2.425   3.623  17.445  0.00  0.00    +0.000 C 
ATOM     29  F   UNL     1       1.924   2.649  18.237  0.00  0.00    +0.000 F 
ATOM     30  F   UNL     1       1.450   4.555  17.307  0.00  0.00    +0.000 F 
ATOM     31  F   UNL     1       2.607   3.063  16.222  0.00  0.00    +0.000 F 
ENDBRANCH  23  28
ENDBRANCH  18  19
ENDBRANCH   6  18
TORSDOF 7
ENDMDL
MODEL 2
REMARK VINA RESULT:      -8.6      2.380      3.237
REMARK  Name = 
REMARK  9 active torsions:
REMARK  status: ('A' for Active; 'I' for Inactive)
REMARK    1  A    between atoms: C_1  and  C_2
REMARK    2  A    between atoms: C_2  and  C_3
REMARK    3  A    between atoms: C_2  and  S_4
REMARK    4  A    between atoms: S_4  and  N_7
REMARK    5  A    between atoms: N_7  and  C_8
REMARK    6  A    between atoms: C_13  and  C_14
REMARK    7  A    between atoms: C_14  and  N_15
REMARK    8  A    between atoms: C_17  and  C_18
REMARK    9  A    between atoms: C_23  and  C_24
REMARK                            x       y       z     vdW  Elec       q    Type
REMARK                         _______ _______ _______ _____ _____    ______ ____
ROOT
ATOM      1  C   UNL     1       0.269  11.102  20.439  0.00  0.00    +0.000 C 
ATOM      2  C   UNL     1       0.417  10.613  18.988  0.00  0.00    +0.000 C 
ATOM      3  C   UNL     1       1.213   9.362  19.161  0.00  0.00    +0.000 A 
ATOM      4  C   UNL     1       1.956   8.699  18.205  0.00  0.00    +0.000 A 
ATOM      5  C   UNL     1       2.518   7.467  18.540  0.00  0.00    +0.000 A 
ATOM      6  C   UNL     1       2.323   6.899  19.815  0.00  0.00    +0.000 A 
ATOM      7  C   UNL     1       1.591   7.613  20.788  0.00  0.00    +0.000 A 
ATOM      8  C   UNL     1       1.062   8.850  20.450  0.00  0.00    +0.000 A 
ATOM      9  C   UNL     1       0.235   9.787  21.287  0.00  0.00    +0.000 C 
ENDROOT
BRANCH   1  10
ATOM     10  N   UNL     1       1.378  11.970  20.928  0.00  0.00    +0.000 NA
ATOM     11  H   UNL     1       2.289  11.746  20.517  0.00  0.00    +0.000 HD
BRANCH  10  12
ATOM     12  S   UNL     1       1.291  13.626  21.145  0.00  0.00    +0.000 S 
ATOM     13  O   UNL     1       2.406  14.068  21.955  0.00  0.00    +0.000 OA
ATOM     14  O   UNL     1      -0.066  13.838  21.611  0.00  0.00    +0.000 OA
BRANCH  12  16
ATOM     15  C   UNL     1       2.476  13.629  18.703  0.00  0.00    +0.000 C 
ATOM     16  C   UNL     1       1.421  14.394  19.509  0.00  0.00    +0.000 C 
ATOM     17  C   UNL     1       0.110  14.395  18.733  0.00  0.00    +0.000 C 
ENDBRANCH  12  16
ENDBRANCH  10  12
ENDBRANCH   1  10
BRANCH   6  18
ATOM     18  C   UNL     1       2.890   5.538  20.138  0.00  0.00    +0.000 C 
BRANCH  18  19
ATOM     19  N   UNL     1       3.877   5.117  19.146  0.00  0.00    +0.000 N 
ATOM     20  N   UNL     1       5.155   5.520  19.338  0.00  0.00    +0.000 NA
ATOM     21  C   UNL     1       5.829   5.073  18.262  0.00  0.00    +0.000 A 
ATOM     22  C   UNL     1       4.966   4.323  17.422  0.00  0.00    +0.000 A 
ATOM     23  C   UNL     1       3.725   4.342  18.026  0.00  0.00    +0.000 A 
BRANCH  21  24
ATOM     24  C   UNL     1       7.290   5.358  18.020  0.00  0.00    +0.000 C 
ATOM     25  F   UNL     1       8.003   5.558  19.159  0.00  0.00    +0.000 F 
ATOM     26  F   UNL     1       7.893   4.334  17.355  0.00  0.00    +0.000 F 
ATOM     27  F   UNL     1       7.459   6.467  17.249  0.00  0.00    +0.000 F 
ENDBRANCH  21  24
BRANCH  23  28
ATOM     28  C   UNL     1       2.467   3.706  17.580  0.00  0.00    +0.000 C 
ATOM     29  F   UNL     1       2.568   3.037  16.410  0.00  0.00    +0.000 F 
ATOM     30  F   UNL     1       2.006   2.822  18.498  0.00  0.00    +0.000 F 
ATOM     31  F   UNL     1       1.490   4.632  17.405  0.00  0.00    +0.000 F 
ENDBRANCH  23  28
ENDBRANCH  18  19
ENDBRANCH   6  18
TORSDOF 7
ENDMDL
MODEL 3
REMARK VINA RESULT:      -8.6      2.476      3.224
REMARK  Name = 
REMARK  9 active torsions:
REMARK  status: ('A' for Active; 'I' for Inactive)
REMARK    1  A    between atoms: C_1  and  C_2
REMARK    2  A    between atoms: C_2  and  C_3
REMARK    3  A    between atoms: C_2  and  S_4
REMARK    4  A    between atoms: S_4  and  N_7
REMARK    5  A    between atoms: N_7  and  C_8
REMARK    6  A    between atoms: C_13  and  C_14
REMARK    7  A    between atoms: C_14  and  N_15
REMARK    8  A    between atoms: C_17  and  C_18
REMARK    9  A    between atoms: C_23  and  C_24
REMARK                            x       y       z     vdW  Elec       q    Type
REMARK                         _______ _______ _______ _____ _____    ______ ____
ROOT
ATOM      1  C   UNL     1       0.209  10.993  20.565  0.00  0.00    +0.000 C 
ATOM      2  C   UNL     1       0.398  10.554  19.103  0.00  0.00    +0.000 C 
ATOM      3  C   UNL     1       1.200   9.304  19.254  0.00  0.00    +0.000 A 
ATOM      4  C   UNL     1       1.973   8.680  18.295  0.00  0.00    +0.000 A 
ATOM      5  C   UNL     1       2.538   7.442  18.602  0.00  0.00    +0.000 A 
ATOM      6  C   UNL     1       2.316   6.830  19.853  0.00  0.00    +0.000 A 
ATOM      7  C   UNL     1       1.554   7.505  20.831  0.00  0.00    +0.000 A 
ATOM      8  C   UNL     1       1.023   8.748  20.521  0.00  0.00    +0.000 A 
ATOM      9  C   UNL     1       0.167   9.650  21.368  0.00  0.00    +0.000 C 
ENDROOT
BRANCH   1  10
ATOM     10  N   UNL     1       1.299  11.853  21.110  0.00  0.00    +0.000 NA
ATOM     11  H   UNL     1       2.202  11.377  21.184  0.00  0.00    +0.000 HD
BRANCH  10  12
ATOM     12  S   UNL     1       1.576  13.449  20.693  0.00  0.00    +0.000 S 
ATOM     13  O   UNL     1       2.488  13.506  19.571  0.00  0.00    +0.000 OA
ATOM     14  O   UNL     1       1.943  14.072  21.950  0.00  0.00    +0.000 OA
BRANCH  12  16
ATOM     15  C   UNL     1      -0.119  15.568  20.784  0.00  0.00    +0.000 C 
ATOM     16  C   UNL     1      -0.013  14.160  20.188  0.00  0.00    +0.000 C 
ATOM     17  C   UNL     1      -0.185  14.249  18.677  0.00  0.00    +0.000 C 
ENDBRANCH  12  16
ENDBRANCH  10  12
ENDBRANCH   1  10
BRANCH   6  18
ATOM     18  C   UNL     1       2.887   5.464  20.144  0.00  0.00    +0.000 C 
BRANCH  18  19
ATOM     19  N   UNL     1       3.863   5.062  19.134  0.00  0.00    +0.000 N 
ATOM     20  N   UNL     1       5.148   5.439  19.332  0.00  0.00    +0.000 NA
ATOM     21  C   UNL     1       5.810   5.019  18.238  0.00  0.00    +0.000 A 
ATOM     22  C   UNL     1       4.932   4.310  17.379  0.00  0.00    +0.000 A 
ATOM     23  C   UNL     1       3.694   4.327  17.989  0.00  0.00    +0.000 A 
BRANCH  21  24
ATOM     24  C   UNL     1       7.274   5.289  17.999  0.00  0.00    +0.000 C 
ATOM     25  F   UNL     1       7.509   6.395  17.247  0.00  0.00    +0.000 F 
ATOM     26  F   UNL     1       7.946   5.462  19.170  0.00  0.00    +0.000 F 
ATOM     27  F   UNL     1       7.874   4.246  17.364  0.00  0.00    +0.000 F 
ENDBRANCH  21  24
BRANCH  23  28
ATOM     28  C   UNL     1       2.425   3.725  17.529  0.00  0.00    +0.000 C 
ATOM     29  F   UNL     1       1.413   4.609  17.385  0.00  0.00    +0.000 F 
ATOM     30  F   UNL     1       2.577   3.105  16.333  0.00  0.00    +0.000 F 
ATOM     31  F   UNL     1       1.987   2.784  18.404  0.00  0.00    +0.000 F 
ENDBRANCH  23  28
ENDBRANCH  18  19
ENDBRANCH   6  18
TORSDOF 7
ENDMDL
MODEL 4
REMARK VINA RESULT:      -8.6      2.124      3.119
REMARK  Name = 
REMARK  9 active torsions:
REMARK  status: ('A' for Active; 'I' for Inactive)
REMARK    1  A    between atoms: C_1  and  C_2
REMARK    2  A    between atoms: C_2  and  C_3
REMARK    3  A    between atoms: C_2  and  S_4
REMARK    4  A    between atoms: S_4  and  N_7
REMARK    5  A    between atoms: N_7  and  C_8
REMARK    6  A    between atoms: C_13  and  C_14
REMARK    7  A    between atoms: C_14  and  N_15
REMARK    8  A    between atoms: C_17  and  C_18
REMARK    9  A    between atoms: C_23  and  C_24
REMARK                            x       y       z     vdW  Elec       q    Type
REMARK                         _______ _______ _______ _____ _____    ______ ____
ROOT
ATOM      1  C   UNL     1       0.097  10.826  19.866  0.00  0.00    +0.000 C 
ATOM      2  C   UNL     1       0.358  10.290  18.448  0.00  0.00    +0.000 C 
ATOM      3  C   UNL     1       1.295   9.158  18.711  0.00  0.00    +0.000 A 
ATOM      4  C   UNL     1       2.148   8.548  17.814  0.00  0.00    +0.000 A 
ATOM      5  C   UNL     1       2.846   7.413  18.230  0.00  0.00    +0.000 A 
ATOM      6  C   UNL     1       2.674   6.888  19.527  0.00  0.00    +0.000 A 
ATOM      7  C   UNL     1       1.825   7.551  20.438  0.00  0.00    +0.000 A 
ATOM      8  C   UNL     1       1.161   8.694  20.020  0.00  0.00    +0.000 A 
ATOM      9  C   UNL     1       0.194   9.560  20.780  0.00  0.00    +0.000 C 
ENDROOT
BRANCH   1  10
ATOM     10  N   UNL     1       1.072  11.849  20.343  0.00  0.00    +0.000 NA
ATOM     11  H   UNL     1       2.048  11.611  20.146  0.00  0.00    +0.000 HD
BRANCH  10  12
ATOM     12  S   UNL     1       0.892  13.505  20.194  0.00  0.00    +0.000 S 
ATOM     13  O   UNL     1       0.890  14.112  21.507  0.00  0.00    +0.000 OA
ATOM     14  O   UNL     1      -0.266  13.647  19.333  0.00  0.00    +0.000 OA
BRANCH  12  16
ATOM     15  C   UNL     1       2.613  13.147  18.125  0.00  0.00    +0.000 C 
ATOM     16  C   UNL     1       2.324  14.123  19.270  0.00  0.00    +0.000 C 
ATOM     17  C   UNL     1       2.117  15.516  18.691  0.00  0.00    +0.000 C 
ENDBRANCH  12  16
ENDBRANCH  10  12
ENDBRANCH   1  10
BRANCH   6  18
ATOM     18  C   UNL     1       3.392   5.625  19.937  0.00  0.00    +0.000 C 
BRANCH  18  19
ATOM     19  N   UNL     1       4.111   5.026  18.816  0.00  0.00    +0.000 N 
ATOM     20  N   UNL     1       5.423   5.334  18.686  0.00  0.00    +0.000 NA
ATOM     21  C   UNL     1       5.817   4.728  17.551  0.00  0.00    +0.000 A 
ATOM     22  C   UNL     1       4.747   3.975  17.004  0.00  0.00    +0.000 A 
ATOM     23  C   UNL     1       3.671   4.159  17.849  0.00  0.00    +0.000 A 
BRANCH  21  24
ATOM     24  C   UNL     1       7.205   4.860  16.978  0.00  0.00    +0.000 C 
ATOM     25  F   UNL     1       7.323   4.372  15.716  0.00  0.00    +0.000 F 
ATOM     26  F   UNL     1       7.603   6.161  16.933  0.00  0.00    +0.000 F 
ATOM     27  F   UNL     1       8.122   4.206  17.741  0.00  0.00    +0.000 F 
ENDBRANCH  21  24
BRANCH  23  28
ATOM     28  C   UNL     1       2.309   3.593  17.753  0.00  0.00    +0.000 C 
ATOM     29  F   UNL     1       1.831   3.096  18.916  0.00  0.00    +0.000 F 
ATOM     30  F   UNL     1       1.416   4.520  17.327  0.00  0.00    +0.000 F 
ATOM     31  F   UNL     1       2.269   2.572  16.858  0.00  0.00    +0.000 F 
ENDBRANCH  23  28
ENDBRANCH  18  19
ENDBRANCH   6  18
TORSDOF 7
ENDMDL
MODEL 5
REMARK VINA RESULT:      -8.5      2.182      3.272
REMARK  Name = 
REMARK  9 active torsions:
REMARK  status: ('A' for Active; 'I' for Inactive)
REMARK    1  A    between atoms: C_1  and  C_2
REMARK    2  A    between atoms: C_2  and  C_3
REMARK    3  A    between atoms: C_2  and  S_4
REMARK    4  A    between atoms: S_4  and  N_7
REMARK    5  A    between atoms: N_7  and  C_8
REMARK    6  A    between atoms: C_13  and  C_14
REMARK    7  A    between atoms: C_14  and  N_15
REMARK    8  A    between atoms: C_17  and  C_18
REMARK    9  A    between atoms: C_23  and  C_24
REMARK                            x       y       z     vdW  Elec       q    Type
REMARK                         _______ _______ _______ _____ _____    ______ ____
ROOT
ATOM      1  C   UNL     1       0.102  11.016  20.046  0.00  0.00    +0.000 C 
ATOM      2  C   UNL     1       0.316  10.494  18.616  0.00  0.00    +0.000 C 
ATOM      3  C   UNL     1       1.186   9.303  18.847  0.00  0.00    +0.000 A 
ATOM      4  C   UNL     1       1.993   8.661  17.928  0.00  0.00    +0.000 A 
ATOM      5  C   UNL     1       2.626   7.479  18.315  0.00  0.00    +0.000 A 
ATOM      6  C   UNL     1       2.438   6.940  19.604  0.00  0.00    +0.000 A 
ATOM      7  C   UNL     1       1.639   7.634  20.537  0.00  0.00    +0.000 A 
ATOM      8  C   UNL     1       1.039   8.822  20.148  0.00  0.00    +0.000 A 
ATOM      9  C   UNL     1       0.133   9.729  20.936  0.00  0.00    +0.000 C 
ENDROOT
BRANCH   1  10
ATOM     10  N   UNL     1       1.141  11.970  20.530  0.00  0.00    +0.000 NA
ATOM     11  H   UNL     1       2.085  11.752  20.202  0.00  0.00    +0.000 HD
BRANCH  10  12
ATOM     12  S   UNL     1       0.976  13.633  20.598  0.00  0.00    +0.000 S 
ATOM     13  O   UNL     1       1.783  14.157  21.678  0.00  0.00    +0.000 OA
ATOM     14  O   UNL     1      -0.460  13.834  20.609  0.00  0.00    +0.000 OA
BRANCH  12  16
ATOM     15  C   UNL     1       2.306  15.628  19.324  0.00  0.00    +0.000 C 
ATOM     16  C   UNL     1       1.597  14.302  19.031  0.00  0.00    +0.000 C 
ATOM     17  C   UNL     1       2.566  13.370  18.315  0.00  0.00    +0.000 C 
ENDBRANCH  12  16
ENDBRANCH  10  12
ENDBRANCH   1  10
BRANCH   6  18
ATOM     18  C   UNL     1       3.084   5.629  19.983  0.00  0.00    +0.000 C 
BRANCH  18  19
ATOM     19  N   UNL     1       3.985   5.152  18.937  0.00  0.00    +0.000 N 
ATOM     20  N   UNL     1       5.277   5.555  19.003  0.00  0.00    +0.000 NA
ATOM     21  C   UNL     1       5.859   5.050  17.900  0.00  0.00    +0.000 A 
ATOM     22  C   UNL     1       4.929   4.264  17.173  0.00  0.00    +0.000 A 
ATOM     23  C   UNL     1       3.741   4.321  17.874  0.00  0.00    +0.000 A 
BRANCH  21  24
ATOM     24  C   UNL     1       7.296   5.311  17.526  0.00  0.00    +0.000 C 
ATOM     25  F   UNL     1       7.441   6.032  16.385  0.00  0.00    +0.000 F 
ATOM     26  F   UNL     1       7.949   5.993  18.507  0.00  0.00    +0.000 F 
ATOM     27  F   UNL     1       7.982   4.148  17.348  0.00  0.00    +0.000 F 
ENDBRANCH  21  24
BRANCH  23  28
ATOM     28  C   UNL     1       2.449   3.673  17.565  0.00  0.00    +0.000 C 
ATOM     29  F   UNL     1       1.433   4.537  17.344  0.00  0.00    +0.000 F 
ATOM     30  F   UNL     1       2.541   2.886  16.465  0.00  0.00    +0.000 F 
ATOM     31  F   UNL     1       2.051   2.871  18.586  0.00  0.00    +0.000 F 
ENDBRANCH  23  28
ENDBRANCH  18  19
ENDBRANCH   6  18
TORSDOF 7
ENDMDL
MODEL 6
REMARK VINA RESULT:      -8.5      2.246      3.443
REMARK  Name = 
REMARK  9 active torsions:
REMARK  status: ('A' for Active; 'I' for Inactive)
REMARK    1  A    between atoms: C_1  and  C_2
REMARK    2  A    between atoms: C_2  and  C_3
REMARK    3  A    between atoms: C_2  and  S_4
REMARK    4  A    between atoms: S_4  and  N_7
REMARK    5  A    between atoms: N_7  and  C_8
REMARK    6  A    between atoms: C_13  and  C_14
REMARK    7  A    between atoms: C_14  and  N_15
REMARK    8  A    between atoms: C_17  and  C_18
REMARK    9  A    between atoms: C_23  and  C_24
REMARK                            x       y       z     vdW  Elec       q    Type
REMARK                         _______ _______ _______ _____ _____    ______ ____
ROOT
ATOM      1  C   UNL     1       0.094  11.121  20.240  0.00  0.00    +0.000 C 
ATOM      2  C   UNL     1       0.316  10.657  18.791  0.00  0.00    +0.000 C 
ATOM      3  C   UNL     1       1.167   9.445  18.979  0.00  0.00    +0.000 A 
ATOM      4  C   UNL     1       1.975   8.831  18.043  0.00  0.00    +0.000 A 
ATOM      5  C   UNL     1       2.588   7.626  18.386  0.00  0.00    +0.000 A 
ATOM      6  C   UNL     1       2.378   7.035  19.649  0.00  0.00    +0.000 A 
ATOM      7  C   UNL     1       1.579   7.701  20.602  0.00  0.00    +0.000 A 
ATOM      8  C   UNL     1       1.000   8.912  20.258  0.00  0.00    +0.000 A 
ATOM      9  C   UNL     1       0.098   9.798  21.074  0.00  0.00    +0.000 C 
ENDROOT
BRANCH   1  10
ATOM     10  N   UNL     1       1.140  12.039  20.774  0.00  0.00    +0.000 NA
ATOM     11  H   UNL     1       2.094  11.771  20.517  0.00  0.00    +0.000 HD
BRANCH  10  12
ATOM     12  S   UNL     1       1.049  13.709  20.794  0.00  0.00    +0.000 S 
ATOM     13  O   UNL     1       1.154  14.185  22.156  0.00  0.00    +0.000 OA
ATOM     14  O   UNL     1      -0.145  13.995  20.022  0.00  0.00    +0.000 OA
BRANCH  12  16
ATOM     15  C   UNL     1       3.666  14.434  20.790  0.00  0.00    +0.000 C 
ATOM     16  C   UNL     1       2.461  14.339  19.847  0.00  0.00    +0.000 C 
ATOM     17  C   UNL     1       2.833  13.464  18.657  0.00  0.00    +0.000 C 
ENDBRANCH  12  16
ENDBRANCH  10  12
ENDBRANCH   1  10
BRANCH   6  18
ATOM     18  C   UNL     1       3.002   5.701  19.978  0.00  0.00    +0.000 C 
BRANCH  18  19
ATOM     19  N   UNL     1       3.875   5.234  18.903  0.00  0.00    +0.000 N 
ATOM     20  N   UNL     1       5.166   5.640  18.934  0.00  0.00    +0.000 NA
ATOM     21  C   UNL     1       5.718   5.145  17.811  0.00  0.00    +0.000 A 
ATOM     22  C   UNL     1       4.768   4.364  17.104  0.00  0.00    +0.000 A 
ATOM     23  C   UNL     1       3.601   4.412  17.840  0.00  0.00    +0.000 A 
BRANCH  21  24
ATOM     24  C   UNL     1       7.142   5.413  17.398  0.00  0.00    +0.000 C 
ATOM     25  F   UNL     1       7.710   6.465  18.044  0.00  0.00    +0.000 F 
ATOM     26  F   UNL     1       7.940   4.335  17.630  0.00  0.00    +0.000 F 
ATOM     27  F   UNL     1       7.232   5.675  16.065  0.00  0.00    +0.000 F 
ENDBRANCH  21  24
BRANCH  23  28
ATOM     28  C   UNL     1       2.303   3.763  17.563  0.00  0.00    +0.000 C 
ATOM     29  F   UNL     1       1.825   3.019  18.585  0.00  0.00    +0.000 F 
ATOM     30  F   UNL     1       1.347   4.676  17.263  0.00  0.00    +0.000 F 
ATOM     31  F   UNL     1       2.394   2.929  16.496  0.00  0.00    +0.000 F 
ENDBRANCH  23  28
ENDBRANCH  18  19
ENDBRANCH   6  18
TORSDOF 7
ENDMDL
MODEL 7
REMARK VINA RESULT:      -8.4      2.205      3.431
REMARK  Name = 
REMARK  9 active torsions:
REMARK  status: ('A' for Active; 'I' for Inactive)
REMARK    1  A    between atoms: C_1  and  C_2
REMARK    2  A    between atoms: C_2  and  C_3
REMARK    3  A    between atoms: C_2  and  S_4
REMARK    4  A    between atoms: S_4  and  N_7
REMARK    5  A    between atoms: N_7  and  C_8
REMARK    6  A    between atoms: C_13  and  C_14
REMARK    7  A    between atoms: C_14  and  N_15
REMARK    8  A    between atoms: C_17  and  C_18
REMARK    9  A    between atoms: C_23  and  C_24
REMARK                            x       y       z     vdW  Elec       q    Type
REMARK                         _______ _______ _______ _____ _____    ______ ____
ROOT
ATOM      1  C   UNL     1       0.196  10.994  19.691  0.00  0.00    +0.000 C 
ATOM      2  C   UNL     1       0.346  10.352  18.301  0.00  0.00    +0.000 C 
ATOM      3  C   UNL     1       1.253   9.202  18.586  0.00  0.00    +0.000 A 
ATOM      4  C   UNL     1       2.024   8.496  17.683  0.00  0.00    +0.000 A 
ATOM      5  C   UNL     1       2.703   7.364  18.135  0.00  0.00    +0.000 A 
ATOM      6  C   UNL     1       2.594   6.936  19.475  0.00  0.00    +0.000 A 
ATOM      7  C   UNL     1       1.831   7.695  20.386  0.00  0.00    +0.000 A 
ATOM      8  C   UNL     1       1.186   8.834  19.930  0.00  0.00    +0.000 A 
ATOM      9  C   UNL     1       0.303   9.790  20.685  0.00  0.00    +0.000 C 
ENDROOT
BRANCH   1  10
ATOM     10  N   UNL     1       1.238  12.004  20.033  0.00  0.00    +0.000 NA
ATOM     11  H   UNL     1       2.052  11.984  19.413  0.00  0.00    +0.000 HD
BRANCH  10  12
ATOM     12  S   UNL     1       0.945  13.593  20.466  0.00  0.00    +0.000 S 
ATOM     13  O   UNL     1       0.815  13.688  21.904  0.00  0.00    +0.000 OA
ATOM     14  O   UNL     1      -0.164  13.979  19.616  0.00  0.00    +0.000 OA
BRANCH  12  16
ATOM     15  C   UNL     1       3.037  13.860  18.756  0.00  0.00    +0.000 C 
ATOM     16  C   UNL     1       2.382  14.569  19.947  0.00  0.00    +0.000 C 
ATOM     17  C   UNL     1       2.032  15.995  19.541  0.00  0.00    +0.000 C 
ENDBRANCH  12  16
ENDBRANCH  10  12
ENDBRANCH   1  10
BRANCH   6  18
ATOM     18  C   UNL     1       3.288   5.674  19.929  0.00  0.00    +0.000 C 
BRANCH  18  19
ATOM     19  N   UNL     1       4.054   5.062  18.846  0.00  0.00    +0.000 N 
ATOM     20  N   UNL     1       5.369   5.378  18.764  0.00  0.00    +0.000 NA
ATOM     21  C   UNL     1       5.811   4.755  17.655  0.00  0.00    +0.000 A 
ATOM     22  C   UNL     1       4.768   3.986  17.079  0.00  0.00    +0.000 A 
ATOM     23  C   UNL     1       3.658   4.176  17.878  0.00  0.00    +0.000 A 
BRANCH  21  24
ATOM     24  C   UNL     1       7.219   4.889  17.134  0.00  0.00    +0.000 C 
ATOM     25  F   UNL     1       8.146   4.254  17.897  0.00  0.00    +0.000 F 
ATOM     26  F   UNL     1       7.334   4.383  15.875  0.00  0.00    +0.000 F 
ATOM     27  F   UNL     1       7.598   6.194  17.057  0.00  0.00    +0.000 F 
ENDBRANCH  21  24
BRANCH  23  28
ATOM     28  C   UNL     1       2.305   3.598  17.738  0.00  0.00    +0.000 C 
ATOM     29  F   UNL     1       1.365   4.479  17.327  0.00  0.00    +0.000 F 
ATOM     30  F   UNL     1       2.294   2.572  16.853  0.00  0.00    +0.000 F 
ATOM     31  F   UNL     1       1.865   3.098  18.921  0.00  0.00    +0.000 F 
ENDBRANCH  23  28
ENDBRANCH  18  19
ENDBRANCH   6  18
TORSDOF 7
ENDMDL
MODEL 8
REMARK VINA RESULT:      -8.4      2.357      3.251
REMARK  Name = 
REMARK  9 active torsions:
REMARK  status: ('A' for Active; 'I' for Inactive)
REMARK    1  A    between atoms: C_1  and  C_2
REMARK    2  A    between atoms: C_2  and  C_3
REMARK    3  A    between atoms: C_2  and  S_4
REMARK    4  A    between atoms: S_4  and  N_7
REMARK    5  A    between atoms: N_7  and  C_8
REMARK    6  A    between atoms: C_13  and  C_14
REMARK    7  A    between atoms: C_14  and  N_15
REMARK    8  A    between atoms: C_17  and  C_18
REMARK    9  A    between atoms: C_23  and  C_24
REMARK                            x       y       z     vdW  Elec       q    Type
REMARK                         _______ _______ _______ _____ _____    ______ ____
ROOT
ATOM      1  C   UNL     1       0.300  11.161  19.996  0.00  0.00    +0.000 C 
ATOM      2  C   UNL     1       0.465  10.591  18.577  0.00  0.00    +0.000 C 
ATOM      3  C   UNL     1       1.271   9.359  18.829  0.00  0.00    +0.000 A 
ATOM      4  C   UNL     1       2.028   8.650  17.918  0.00  0.00    +0.000 A 
ATOM      5  C   UNL     1       2.600   7.445  18.328  0.00  0.00    +0.000 A 
ATOM      6  C   UNL     1       2.398   6.950  19.633  0.00  0.00    +0.000 A 
ATOM      7  C   UNL     1       1.652   7.712  20.557  0.00  0.00    +0.000 A 
ATOM      8  C   UNL     1       1.115   8.921  20.144  0.00  0.00    +0.000 A 
ATOM      9  C   UNL     1       0.272   9.898  20.919  0.00  0.00    +0.000 C 
ENDROOT
BRANCH   1  10
ATOM     10  N   UNL     1       1.397  12.067  20.442  0.00  0.00    +0.000 NA
ATOM     11  H   UNL     1       2.247  11.996  19.876  0.00  0.00    +0.000 HD
BRANCH  10  12
ATOM     12  S   UNL     1       1.210  13.662  20.912  0.00  0.00    +0.000 S 
ATOM     13  O   UNL     1       2.322  14.054  21.750  0.00  0.00    +0.000 OA
ATOM     14  O   UNL     1      -0.140  13.704  21.441  0.00  0.00    +0.000 OA
BRANCH  12  16
ATOM     15  C   UNL     1      -0.193  14.701  18.833  0.00  0.00    +0.000 C 
ATOM     16  C   UNL     1       1.227  14.674  19.409  0.00  0.00    +0.000 C 
ATOM     17  C   UNL     1       1.691  16.105  19.647  0.00  0.00    +0.000 C 
ENDBRANCH  12  16
ENDBRANCH  10  12
ENDBRANCH   1  10
BRANCH   6  18
ATOM     18  C   UNL     1       2.975   5.615  20.038  0.00  0.00    +0.000 C 
BRANCH  18  19
ATOM     19  N   UNL     1       3.906   5.104  19.035  0.00  0.00    +0.000 N 
ATOM     20  N   UNL     1       5.204   5.475  19.149  0.00  0.00    +0.000 NA
ATOM     21  C   UNL     1       5.817   4.944  18.076  0.00  0.00    +0.000 A 
ATOM     22  C   UNL     1       4.897   4.174  17.319  0.00  0.00    +0.000 A 
ATOM     23  C   UNL     1       3.684   4.269  17.971  0.00  0.00    +0.000 A 
BRANCH  21  24
ATOM     24  C   UNL     1       7.274   5.165  17.759  0.00  0.00    +0.000 C 
ATOM     25  F   UNL     1       8.084   5.120  18.848  0.00  0.00    +0.000 F 
ATOM     26  F   UNL     1       7.741   4.231  16.885  0.00  0.00    +0.000 F 
ATOM     27  F   UNL     1       7.476   6.375  17.169  0.00  0.00    +0.000 F 
ENDBRANCH  21  24
BRANCH  23  28
ATOM     28  C   UNL     1       2.390   3.650  17.616  0.00  0.00    +0.000 C 
ATOM     29  F   UNL     1       1.871   2.856  18.580  0.00  0.00    +0.000 F 
ATOM     30  F   UNL     1       1.453   4.588  17.335  0.00  0.00    +0.000 F 
ATOM     31  F   UNL     1       2.510   2.873  16.508  0.00  0.00    +0.000 F 
ENDBRANCH  23  28
ENDBRANCH  18  19
ENDBRANCH   6  18
TORSDOF 7
ENDMDL
MODEL 9
REMARK VINA RESULT:      -8.4      2.243      3.561
REMARK  Name = 
REMARK  9 active torsions:
REMARK  status: ('A' for Active; 'I' for Inactive)
REMARK    1  A    between atoms: C_1  and  C_2
REMARK    2  A    between atoms: C_2  and  C_3
REMARK    3  A    between atoms: C_2  and  S_4
REMARK    4  A    between atoms: S_4  and  N_7
REMARK    5  A    between atoms: N_7  and  C_8
REMARK    6  A    between atoms: C_13  and  C_14
REMARK    7  A    between atoms: C_14  and  N_15
REMARK    8  A    between atoms: C_17  and  C_18
REMARK    9  A    between atoms: C_23  and  C_24
REMARK                            x       y       z     vdW  Elec       q    Type
REMARK                         _______ _______ _______ _____ _____    ______ ____
ROOT
ATOM      1  C   UNL     1       0.333  11.082  19.769  0.00  0.00    +0.000 C 
ATOM      2  C   UNL     1       0.355  10.391  18.396  0.00  0.00    +0.000 C 
ATOM      3  C   UNL     1       1.229   9.209  18.656  0.00  0.00    +0.000 A 
ATOM      4  C   UNL     1       1.902   8.440  17.727  0.00  0.00    +0.000 A 
ATOM      5  C   UNL     1       2.560   7.293  18.170  0.00  0.00    +0.000 A 
ATOM      6  C   UNL     1       2.529   6.912  19.527  0.00  0.00    +0.000 A 
ATOM      7  C   UNL     1       1.866   7.734  20.463  0.00  0.00    +0.000 A 
ATOM      8  C   UNL     1       1.241   8.887  20.014  0.00  0.00    +0.000 A 
ATOM      9  C   UNL     1       0.457   9.907  20.795  0.00  0.00    +0.000 C 
ENDROOT
BRANCH   1  10
ATOM     10  N   UNL     1       1.440  12.053  20.003  0.00  0.00    +0.000 NA
ATOM     11  H   UNL     1       2.276  11.633  20.418  0.00  0.00    +0.000 HD
BRANCH  10  12
ATOM     12  S   UNL     1       1.923  13.250  18.940  0.00  0.00    +0.000 S 
ATOM     13  O   UNL     1       0.759  13.906  18.387  0.00  0.00    +0.000 OA
ATOM     14  O   UNL     1       2.852  12.569  18.058  0.00  0.00    +0.000 OA
BRANCH  12  16
ATOM     15  C   UNL     1       3.262  13.829  21.230  0.00  0.00    +0.000 C 
ATOM     16  C   UNL     1       2.879  14.464  19.888  0.00  0.00    +0.000 C 
ATOM     17  C   UNL     1       4.146  14.926  19.180  0.00  0.00    +0.000 C 
ENDBRANCH  12  16
ENDBRANCH  10  12
ENDBRANCH   1  10
BRANCH   6  18
ATOM     18  C   UNL     1       3.197   5.635  19.976  0.00  0.00    +0.000 C 
BRANCH  18  19
ATOM     19  N   UNL     1       3.996   5.042  18.907  0.00  0.00    +0.000 N 
ATOM     20  N   UNL     1       5.295   5.416  18.825  0.00  0.00    +0.000 NA
ATOM     21  C   UNL     1       5.771   4.798  17.728  0.00  0.00    +0.000 A 
ATOM     22  C   UNL     1       4.768   3.973  17.159  0.00  0.00    +0.000 A 
ATOM     23  C   UNL     1       3.646   4.124  17.950  0.00  0.00    +0.000 A 
BRANCH  21  24
ATOM     24  C   UNL     1       7.174   4.988  17.212  0.00  0.00    +0.000 C 
ATOM     25  F   UNL     1       7.571   6.286  17.172  0.00  0.00    +0.000 F 
ATOM     26  F   UNL     1       8.082   4.324  17.980  0.00  0.00    +0.000 F 
ATOM     27  F   UNL     1       7.310   4.496  15.950  0.00  0.00    +0.000 F 
ENDBRANCH  21  24
BRANCH  23  28
ATOM     28  C   UNL     1       2.322   3.483  17.813  0.00  0.00    +0.000 C 
ATOM     29  F   UNL     1       2.305   2.416  16.983  0.00  0.00    +0.000 F 
ATOM     30  F   UNL     1       1.853   3.054  19.010  0.00  0.00    +0.000 F 
ATOM     31  F   UNL     1       1.406   4.359  17.326  0.00  0.00    +0.000 F 
ENDBRANCH  23  28
ENDBRANCH  18  19
ENDBRANCH   6  18
TORSDOF 7
ENDMDL
