MODEL 1
REMARK VINA RESULT:      -7.0      0.000      0.000
REMARK  Name = 
REMARK  2 active torsions:
REMARK  status: ('A' for Active; 'I' for Inactive)
REMARK    1  A    between atoms: N_3  and  C_4
REMARK    2  A    between atoms: C_14  and  C_15
REMARK                            x       y       z     vdW  Elec       q    Type
REMARK                         _______ _______ _______ _____ _____    ______ ____
ROOT
ATOM      1  O   UNL     1       1.963   5.349  17.831  0.00  0.00    +0.000 OA
ATOM      2  C   UNL     1       3.027   5.965  17.900  0.00  0.00    +0.000 C 
ATOM      3  N   UNL     1       3.168   7.273  18.279  0.00  0.00    +0.000 N 
ATOM      4  N   UNL     1       4.163   5.289  17.563  0.00  0.00    +0.000 N 
ATOM      5  C   UNL     1       5.428   5.794  17.585  0.00  0.00    +0.000 A 
ATOM      6  N   UNL     1       5.784   7.027  17.849  0.00  0.00    +0.000 NA
ATOM      7  C   UNL     1       7.162   7.111  17.777  0.00  0.00    +0.000 A 
ATOM      8  C   UNL     1       7.817   5.936  17.460  0.00  0.00    +0.000 A 
ATOM      9  S   UNL     1       6.665   4.681  17.234  0.00  0.00    +0.000 S 
ATOM     10  H   UNL     1       4.102   7.658  18.148  0.00  0.00    +0.000 HD
ATOM     11  H   UNL     1       4.035   4.324  17.297  0.00  0.00    +0.000 HD
ENDROOT
BRANCH   7  12
ATOM     12  C   UNL     1       7.878   8.386  18.046  0.00  0.00    +0.000 A 
ATOM     13  C   UNL     1       7.706   9.562  17.342  0.00  0.00    +0.000 A 
ATOM     14  C   UNL     1       8.525  10.538  17.964  0.00  0.00    +0.000 A 
ATOM     15  C   UNL     1       8.780  11.907  17.776  0.00  0.00    +0.000 A 
ATOM     16  C   UNL     1       9.690  12.543  18.632  0.00  0.00    +0.000 A 
ATOM     17  C   UNL     1      10.341  11.837  19.648  0.00  0.00    +0.000 A 
ATOM     18  C   UNL     1      10.098  10.475  19.851  0.00  0.00    +0.000 A 
ATOM     19  C   UNL     1       9.181   9.874  18.993  0.00  0.00    +0.000 A 
ATOM     20  O   UNL     1       8.792   8.572  19.044  0.00  0.00    +0.000 OA
ENDBRANCH   7  12
BRANCH   3  21
ATOM     21  C   UNL     1       2.160   8.168  18.677  0.00  0.00    +0.000 A 
ATOM     22  C   UNL     1       1.540   9.066  17.805  0.00  0.00    +0.000 A 
ATOM     23  C   UNL     1       0.570   9.958  18.276  0.00  0.00    +0.000 A 
ATOM     24  C   UNL     1       0.224   9.954  19.623  0.00  0.00    +0.000 A 
ATOM     25 BR   UNL     1      -1.057  11.187  20.264  0.00  0.00    +0.000 Br
ATOM     26  C   UNL     1       0.817   9.051  20.501  0.00  0.00    +0.000 A 
ATOM     27  C   UNL     1       1.774   8.149  20.023  0.00  0.00    +0.000 A 
ENDBRANCH   3  21
TORSDOF 2
ENDMDL
MODEL 2
REMARK VINA RESULT:      -6.9      5.128      7.591
REMARK  Name = 
REMARK  2 active torsions:
REMARK  status: ('A' for Active; 'I' for Inactive)
REMARK    1  A    between atoms: N_3  and  C_4
REMARK    2  A    between atoms: C_14  and  C_15
REMARK                            x       y       z     vdW  Elec       q    Type
REMARK                         _______ _______ _______ _____ _____    ______ ____
ROOT
ATOM      1  O   UNL     1       9.611  14.401  22.805  0.00  0.00    +0.000 OA
ATOM      2  C   UNL     1       9.390  13.456  22.047  0.00  0.00    +0.000 C 
ATOM      3  N   UNL     1       8.583  12.384  22.321  0.00  0.00    +0.000 N 
ATOM      4  N   UNL     1      10.008  13.473  20.830  0.00  0.00    +0.000 N 
ATOM      5  C   UNL     1       9.881  12.528  19.858  0.00  0.00    +0.000 A 
ATOM      6  N   UNL     1       9.220  11.399  19.931  0.00  0.00    +0.000 NA
ATOM      7  C   UNL     1       9.337  10.742  18.720  0.00  0.00    +0.000 A 
ATOM      8  C   UNL     1      10.084  11.392  17.756  0.00  0.00    +0.000 A 
ATOM      9  S   UNL     1      10.672  12.876  18.393  0.00  0.00    +0.000 S 
ATOM     10  H   UNL     1       8.623  11.632  21.636  0.00  0.00    +0.000 HD
ATOM     11  H   UNL     1      10.589  14.277  20.647  0.00  0.00    +0.000 HD
ENDROOT
BRANCH   7  12
ATOM     12  C   UNL     1       8.676   9.432  18.481  0.00  0.00    +0.000 A 
ATOM     13  C   UNL     1       7.753   9.174  17.485  0.00  0.00    +0.000 A 
ATOM     14  C   UNL     1       7.430   7.796  17.571  0.00  0.00    +0.000 A 
ATOM     15  C   UNL     1       6.612   6.908  16.852  0.00  0.00    +0.000 A 
ATOM     16  C   UNL     1       6.558   5.567  17.261  0.00  0.00    +0.000 A 
ATOM     17  C   UNL     1       7.291   5.118  18.363  0.00  0.00    +0.000 A 
ATOM     18  C   UNL     1       8.112   5.988  19.088  0.00  0.00    +0.000 A 
ATOM     19  C   UNL     1       8.155   7.309  18.651  0.00  0.00    +0.000 A 
ATOM     20  O   UNL     1       8.908   8.297  19.204  0.00  0.00    +0.000 OA
ENDBRANCH   7  12
BRANCH   3  21
ATOM     21  C   UNL     1       7.839  12.143  23.489  0.00  0.00    +0.000 A 
ATOM     22  C   UNL     1       8.386  12.187  24.773  0.00  0.00    +0.000 A 
ATOM     23  C   UNL     1       7.597  11.898  25.891  0.00  0.00    +0.000 A 
ATOM     24  C   UNL     1       6.258  11.560  25.724  0.00  0.00    +0.000 A 
ATOM     25 BR   UNL     1       5.204  11.132  27.233  0.00  0.00    +0.000 Br
ATOM     26  C   UNL     1       5.692  11.533  24.452  0.00  0.00    +0.000 A 
ATOM     27  C   UNL     1       6.479  11.839  23.338  0.00  0.00    +0.000 A 
ENDBRANCH   3  21
TORSDOF 2
ENDMDL
MODEL 3
REMARK VINA RESULT:      -6.8      0.898      1.412
REMARK  Name = 
REMARK  2 active torsions:
REMARK  status: ('A' for Active; 'I' for Inactive)
REMARK    1  A    between atoms: N_3  and  C_4
REMARK    2  A    between atoms: C_14  and  C_15
REMARK                            x       y       z     vdW  Elec       q    Type
REMARK                         _______ _______ _______ _____ _____    ______ ____
ROOT
ATOM      1  O   UNL     1       1.759   5.249  18.011  0.00  0.00    +0.000 OA
ATOM      2  C   UNL     1       2.818   5.878  18.012  0.00  0.00    +0.000 C 
ATOM      3  N   UNL     1       3.025   7.093  18.609  0.00  0.00    +0.000 N 
ATOM      4  N   UNL     1       3.876   5.320  17.354  0.00  0.00    +0.000 N 
ATOM      5  C   UNL     1       5.123   5.857  17.252  0.00  0.00    +0.000 A 
ATOM      6  N   UNL     1       5.521   7.027  17.687  0.00  0.00    +0.000 NA
ATOM      7  C   UNL     1       6.864   7.172  17.390  0.00  0.00    +0.000 A 
ATOM      8  C   UNL     1       7.452   6.105  16.739  0.00  0.00    +0.000 A 
ATOM      9  S   UNL     1       6.278   4.877  16.478  0.00  0.00    +0.000 S 
ATOM     10  H   UNL     1       3.919   7.528  18.394  0.00  0.00    +0.000 HD
ATOM     11  H   UNL     1       3.702   4.421  16.931  0.00  0.00    +0.000 HD
ENDROOT
BRANCH   7  12
ATOM     12  C   UNL     1       7.615   8.396  17.775  0.00  0.00    +0.000 A 
ATOM     13  C   UNL     1       8.623   8.450  18.719  0.00  0.00    +0.000 A 
ATOM     14  C   UNL     1       9.108   9.782  18.727  0.00  0.00    +0.000 A 
ATOM     15  C   UNL     1      10.123  10.479  19.405  0.00  0.00    +0.000 A 
ATOM     16  C   UNL     1      10.299  11.843  19.127  0.00  0.00    +0.000 A 
ATOM     17  C   UNL     1       9.483  12.503  18.204  0.00  0.00    +0.000 A 
ATOM     18  C   UNL     1       8.470  11.825  17.519  0.00  0.00    +0.000 A 
ATOM     19  C   UNL     1       8.327  10.470  17.807  0.00  0.00    +0.000 A 
ATOM     20  O   UNL     1       7.423   9.634  17.232  0.00  0.00    +0.000 OA
ENDBRANCH   7  12
BRANCH   3  21
ATOM     21  C   UNL     1       2.103   7.858  19.345  0.00  0.00    +0.000 A 
ATOM     22  C   UNL     1       1.484   9.005  18.847  0.00  0.00    +0.000 A 
ATOM     23  C   UNL     1       0.606   9.743  19.649  0.00  0.00    +0.000 A 
ATOM     24  C   UNL     1       0.352   9.334  20.953  0.00  0.00    +0.000 A 
ATOM     25 BR   UNL     1      -0.803  10.354  22.047  0.00  0.00    +0.000 Br
ATOM     26  C   UNL     1       0.945   8.180  21.458  0.00  0.00    +0.000 A 
ATOM     27  C   UNL     1       1.808   7.435  20.648  0.00  0.00    +0.000 A 
ENDBRANCH   3  21
TORSDOF 2
ENDMDL
MODEL 4
REMARK VINA RESULT:      -6.8      5.279      8.275
REMARK  Name = 
REMARK  2 active torsions:
REMARK  status: ('A' for Active; 'I' for Inactive)
REMARK    1  A    between atoms: N_3  and  C_4
REMARK    2  A    between atoms: C_14  and  C_15
REMARK                            x       y       z     vdW  Elec       q    Type
REMARK                         _______ _______ _______ _____ _____    ______ ____
ROOT
ATOM      1  O   UNL     1       1.259  15.954  19.474  0.00  0.00    +0.000 OA
ATOM      2  C   UNL     1       1.338  14.730  19.370  0.00  0.00    +0.000 C 
ATOM      3  N   UNL     1       2.499  14.012  19.252  0.00  0.00    +0.000 N 
ATOM      4  N   UNL     1       0.169  14.026  19.364  0.00  0.00    +0.000 N 
ATOM      5  C   UNL     1       0.053  12.673  19.267  0.00  0.00    +0.000 A 
ATOM      6  N   UNL     1       1.018  11.806  19.082  0.00  0.00    +0.000 NA
ATOM      7  C   UNL     1       0.469  10.537  19.057  0.00  0.00    +0.000 A 
ATOM      8  C   UNL     1      -0.901  10.474  19.226  0.00  0.00    +0.000 A 
ATOM      9  S   UNL     1      -1.528  12.063  19.412  0.00  0.00    +0.000 S 
ATOM     10  H   UNL     1       2.371  13.024  19.040  0.00  0.00    +0.000 HD
ATOM     11  H   UNL     1      -0.672  14.576  19.462  0.00  0.00    +0.000 HD
ENDROOT
BRANCH   7  12
ATOM     12  C   UNL     1       1.316   9.328  18.881  0.00  0.00    +0.000 A 
ATOM     13  C   UNL     1       2.140   9.082  17.799  0.00  0.00    +0.000 A 
ATOM     14  C   UNL     1       2.810   7.860  18.061  0.00  0.00    +0.000 A 
ATOM     15  C   UNL     1       3.783   7.085  17.408  0.00  0.00    +0.000 A 
ATOM     16  C   UNL     1       4.207   5.893  18.013  0.00  0.00    +0.000 A 
ATOM     17  C   UNL     1       3.672   5.473  19.235  0.00  0.00    +0.000 A 
ATOM     18  C   UNL     1       2.705   6.233  19.900  0.00  0.00    +0.000 A 
ATOM     19  C   UNL     1       2.313   7.416  19.281  0.00  0.00    +0.000 A 
ATOM     20  O   UNL     1       1.409   8.302  19.777  0.00  0.00    +0.000 OA
ENDBRANCH   7  12
BRANCH   3  21
ATOM     21  C   UNL     1       3.816  14.501  19.242  0.00  0.00    +0.000 A 
ATOM     22  C   UNL     1       4.487  14.929  20.389  0.00  0.00    +0.000 A 
ATOM     23  C   UNL     1       5.785  15.443  20.302  0.00  0.00    +0.000 A 
ATOM     24  C   UNL     1       6.411  15.534  19.064  0.00  0.00    +0.000 A 
ATOM     25 BR   UNL     1       8.150  16.266  18.944  0.00  0.00    +0.000 Br
ATOM     26  C   UNL     1       5.764  15.091  17.913  0.00  0.00    +0.000 A 
ATOM     27  C   UNL     1       4.473  14.562  18.006  0.00  0.00    +0.000 A 
ENDBRANCH   3  21
TORSDOF 2
ENDMDL
MODEL 5
REMARK VINA RESULT:      -6.8      0.664      1.556
REMARK  Name = 
REMARK  2 active torsions:
REMARK  status: ('A' for Active; 'I' for Inactive)
REMARK    1  A    between atoms: N_3  and  C_4
REMARK    2  A    between atoms: C_14  and  C_15
REMARK                            x       y       z     vdW  Elec       q    Type
REMARK                         _______ _______ _______ _____ _____    ______ ____
ROOT
ATOM      1  O   UNL     1       1.973   5.474  17.805  0.00  0.00    +0.000 OA
ATOM      2  C   UNL     1       3.021   6.120  17.854  0.00  0.00    +0.000 C 
ATOM      3  N   UNL     1       3.142   7.413  18.289  0.00  0.00    +0.000 N 
ATOM      4  N   UNL     1       4.160   5.497  17.433  0.00  0.00    +0.000 N 
ATOM      5  C   UNL     1       5.408   6.040  17.421  0.00  0.00    +0.000 A 
ATOM      6  N   UNL     1       5.740   7.270  17.728  0.00  0.00    +0.000 NA
ATOM      7  C   UNL     1       7.110   7.401  17.595  0.00  0.00    +0.000 A 
ATOM      8  C   UNL     1       7.784   6.264  17.193  0.00  0.00    +0.000 A 
ATOM      9  S   UNL     1       6.660   4.985  16.959  0.00  0.00    +0.000 S 
ATOM     10  H   UNL     1       4.056   7.833  18.134  0.00  0.00    +0.000 HD
ATOM     11  H   UNL     1       4.047   4.542  17.127  0.00  0.00    +0.000 HD
ENDROOT
BRANCH   7  12
ATOM     12  C   UNL     1       7.800   8.683  17.893  0.00  0.00    +0.000 A 
ATOM     13  C   UNL     1       8.843   8.840  18.786  0.00  0.00    +0.000 A 
ATOM     14  C   UNL     1       9.244  10.198  18.717  0.00  0.00    +0.000 A 
ATOM     15  C   UNL     1      10.242  10.986  19.316  0.00  0.00    +0.000 A 
ATOM     16  C   UNL     1      10.320  12.343  18.974  0.00  0.00    +0.000 A 
ATOM     17  C   UNL     1       9.424  12.911  18.064  0.00  0.00    +0.000 A 
ATOM     18  C   UNL     1       8.427  12.143  17.455  0.00  0.00    +0.000 A 
ATOM     19  C   UNL     1       8.381  10.796  17.806  0.00  0.00    +0.000 A 
ATOM     20  O   UNL     1       7.507   9.882  17.308  0.00  0.00    +0.000 OA
ENDBRANCH   7  12
BRANCH   3  21
ATOM     21  C   UNL     1       2.127   8.256  18.775  0.00  0.00    +0.000 A 
ATOM     22  C   UNL     1       1.684   8.240  20.099  0.00  0.00    +0.000 A 
ATOM     23  C   UNL     1       0.641   9.079  20.507  0.00  0.00    +0.000 A 
ATOM     24  C   UNL     1       0.038   9.931  19.588  0.00  0.00    +0.000 A 
ATOM     25 BR   UNL     1      -1.396  11.035  20.133  0.00  0.00    +0.000 Br
ATOM     26  C   UNL     1       0.484   9.974  18.269  0.00  0.00    +0.000 A 
ATOM     27  C   UNL     1       1.538   9.147  17.869  0.00  0.00    +0.000 A 
ENDBRANCH   3  21
TORSDOF 2
ENDMDL
MODEL 6
REMARK VINA RESULT:      -6.7      5.728      7.350
REMARK  Name = 
REMARK  2 active torsions:
REMARK  status: ('A' for Active; 'I' for Inactive)
REMARK    1  A    between atoms: N_3  and  C_4
REMARK    2  A    between atoms: C_14  and  C_15
REMARK                            x       y       z     vdW  Elec       q    Type
REMARK                         _______ _______ _______ _____ _____    ______ ____
ROOT
ATOM      1  O   UNL     1      -1.780  11.707  19.504  0.00  0.00    +0.000 OA
ATOM      2  C   UNL     1      -0.763  12.381  19.339  0.00  0.00    +0.000 C 
ATOM      3  N   UNL     1       0.517  11.895  19.288  0.00  0.00    +0.000 N 
ATOM      4  N   UNL     1      -0.921  13.730  19.205  0.00  0.00    +0.000 N 
ATOM      5  C   UNL     1       0.078  14.634  19.007  0.00  0.00    +0.000 A 
ATOM      6  N   UNL     1       1.367  14.400  18.991  0.00  0.00    +0.000 NA
ATOM      7  C   UNL     1       2.026  15.591  18.746  0.00  0.00    +0.000 A 
ATOM      8  C   UNL     1       1.218  16.699  18.580  0.00  0.00    +0.000 A 
ATOM      9  S   UNL     1      -0.429  16.237  18.749  0.00  0.00    +0.000 S 
ATOM     10  H   UNL     1       1.245  12.607  19.282  0.00  0.00    +0.000 HD
ATOM     11  H   UNL     1      -1.873  14.063  19.236  0.00  0.00    +0.000 HD
ENDROOT
BRANCH   7  12
ATOM     12  C   UNL     1       3.508  15.652  18.648  0.00  0.00    +0.000 A 
ATOM     13  C   UNL     1       4.308  14.699  18.047  0.00  0.00    +0.000 A 
ATOM     14  C   UNL     1       5.641  15.176  18.118  0.00  0.00    +0.000 A 
ATOM     15  C   UNL     1       6.897  14.726  17.675  0.00  0.00    +0.000 A 
ATOM     16  C   UNL     1       8.025  15.513  17.949  0.00  0.00    +0.000 A 
ATOM     17  C   UNL     1       7.914  16.715  18.653  0.00  0.00    +0.000 A 
ATOM     18  C   UNL     1       6.673  17.180  19.099  0.00  0.00    +0.000 A 
ATOM     19  C   UNL     1       5.570  16.383  18.802  0.00  0.00    +0.000 A 
ATOM     20  O   UNL     1       4.281  16.672  19.125  0.00  0.00    +0.000 OA
ENDBRANCH   7  12
BRANCH   3  21
ATOM     21  C   UNL     1       0.934  10.557  19.391  0.00  0.00    +0.000 A 
ATOM     22  C   UNL     1       0.845   9.812  20.568  0.00  0.00    +0.000 A 
ATOM     23  C   UNL     1       1.316   8.495  20.613  0.00  0.00    +0.000 A 
ATOM     24  C   UNL     1       1.882   7.925  19.477  0.00  0.00    +0.000 A 
ATOM     25 BR   UNL     1       2.554   6.160  19.551  0.00  0.00    +0.000 Br
ATOM     26  C   UNL     1       1.959   8.647  18.289  0.00  0.00    +0.000 A 
ATOM     27  C   UNL     1       1.471   9.957  18.244  0.00  0.00    +0.000 A 
ENDBRANCH   3  21
TORSDOF 2
ENDMDL
MODEL 7
REMARK VINA RESULT:      -6.6      5.239      8.226
REMARK  Name = 
REMARK  2 active torsions:
REMARK  status: ('A' for Active; 'I' for Inactive)
REMARK    1  A    between atoms: N_3  and  C_4
REMARK    2  A    between atoms: C_14  and  C_15
REMARK                            x       y       z     vdW  Elec       q    Type
REMARK                         _______ _______ _______ _____ _____    ______ ____
ROOT
ATOM      1  O   UNL     1       1.222  15.914  18.831  0.00  0.00    +0.000 OA
ATOM      2  C   UNL     1       1.334  14.688  18.801  0.00  0.00    +0.000 C 
ATOM      3  N   UNL     1       2.508  13.991  18.913  0.00  0.00    +0.000 N 
ATOM      4  N   UNL     1       0.192  13.960  18.635  0.00  0.00    +0.000 N 
ATOM      5  C   UNL     1       0.113  12.601  18.586  0.00  0.00    +0.000 A 
ATOM      6  N   UNL     1       1.107  11.748  18.606  0.00  0.00    +0.000 NA
ATOM      7  C   UNL     1       0.588  10.468  18.552  0.00  0.00    +0.000 A 
ATOM      8  C   UNL     1      -0.790  10.382  18.494  0.00  0.00    +0.000 A 
ATOM      9  S   UNL     1      -1.462  11.964  18.496  0.00  0.00    +0.000 S 
ATOM     10  H   UNL     1       2.431  12.993  18.731  0.00  0.00    +0.000 HD
ATOM     11  H   UNL     1      -0.661  14.495  18.564  0.00  0.00    +0.000 HD
ENDROOT
BRANCH   7  12
ATOM     12  C   UNL     1       1.470   9.271  18.578  0.00  0.00    +0.000 A 
ATOM     13  C   UNL     1       1.498   8.323  19.583  0.00  0.00    +0.000 A 
ATOM     14  C   UNL     1       2.425   7.327  19.183  0.00  0.00    +0.000 A 
ATOM     15  C   UNL     1       2.882   6.107  19.710  0.00  0.00    +0.000 A 
ATOM     16  C   UNL     1       3.840   5.382  18.987  0.00  0.00    +0.000 A 
ATOM     17  C   UNL     1       4.342   5.859  17.772  0.00  0.00    +0.000 A 
ATOM     18  C   UNL     1       3.896   7.069  17.231  0.00  0.00    +0.000 A 
ATOM     19  C   UNL     1       2.936   7.760  17.966  0.00  0.00    +0.000 A 
ATOM     20  O   UNL     1       2.361   8.936  17.600  0.00  0.00    +0.000 OA
ENDBRANCH   7  12
BRANCH   3  21
ATOM     21  C   UNL     1       3.802  14.508  19.098  0.00  0.00    +0.000 A 
ATOM     22  C   UNL     1       4.283  14.954  20.330  0.00  0.00    +0.000 A 
ATOM     23  C   UNL     1       5.569  15.495  20.436  0.00  0.00    +0.000 A 
ATOM     24  C   UNL     1       6.372  15.595  19.306  0.00  0.00    +0.000 A 
ATOM     25 BR   UNL     1       8.094  16.363  19.444  0.00  0.00    +0.000 Br
ATOM     26  C   UNL     1       5.915  15.136  18.073  0.00  0.00    +0.000 A 
ATOM     27  C   UNL     1       4.636  14.579  17.974  0.00  0.00    +0.000 A 
ENDBRANCH   3  21
TORSDOF 2
ENDMDL
MODEL 8
REMARK VINA RESULT:      -6.6      5.587      7.142
REMARK  Name = 
REMARK  2 active torsions:
REMARK  status: ('A' for Active; 'I' for Inactive)
REMARK    1  A    between atoms: N_3  and  C_4
REMARK    2  A    between atoms: C_14  and  C_15
REMARK                            x       y       z     vdW  Elec       q    Type
REMARK                         _______ _______ _______ _____ _____    ______ ____
ROOT
ATOM      1  O   UNL     1      -1.550  11.260  19.172  0.00  0.00    +0.000 OA
ATOM      2  C   UNL     1      -0.567  11.993  19.056  0.00  0.00    +0.000 C 
ATOM      3  N   UNL     1       0.736  11.577  18.989  0.00  0.00    +0.000 N 
ATOM      4  N   UNL     1      -0.794  13.338  18.996  0.00  0.00    +0.000 N 
ATOM      5  C   UNL     1       0.158  14.301  18.860  0.00  0.00    +0.000 A 
ATOM      6  N   UNL     1       1.458  14.135  18.843  0.00  0.00    +0.000 NA
ATOM      7  C   UNL     1       2.056  15.370  18.672  0.00  0.00    +0.000 A 
ATOM      8  C   UNL     1       1.193  16.443  18.562  0.00  0.00    +0.000 A 
ATOM      9  S   UNL     1      -0.429  15.888  18.688  0.00  0.00    +0.000 S 
ATOM     10  H   UNL     1       1.426  12.324  19.031  0.00  0.00    +0.000 HD
ATOM     11  H   UNL     1      -1.762  13.619  19.038  0.00  0.00    +0.000 HD
ENDROOT
BRANCH   7  12
ATOM     12  C   UNL     1       3.533  15.512  18.592  0.00  0.00    +0.000 A 
ATOM     13  C   UNL     1       4.399  14.569  18.072  0.00  0.00    +0.000 A 
ATOM     14  C   UNL     1       5.700  15.128  18.128  0.00  0.00    +0.000 A 
ATOM     15  C   UNL     1       6.988  14.724  17.737  0.00  0.00    +0.000 A 
ATOM     16  C   UNL     1       8.063  15.594  17.971  0.00  0.00    +0.000 A 
ATOM     17  C   UNL     1       7.869  16.834  18.586  0.00  0.00    +0.000 A 
ATOM     18  C   UNL     1       6.594  17.254  18.980  0.00  0.00    +0.000 A 
ATOM     19  C   UNL     1       5.546  16.374  18.724  0.00  0.00    +0.000 A 
ATOM     20  O   UNL     1       4.236  16.607  19.006  0.00  0.00    +0.000 OA
ENDBRANCH   7  12
BRANCH   3  21
ATOM     21  C   UNL     1       1.221  10.258  19.020  0.00  0.00    +0.000 A 
ATOM     22  C   UNL     1       1.771   9.614  17.911  0.00  0.00    +0.000 A 
ATOM     23  C   UNL     1       2.199   8.285  18.001  0.00  0.00    +0.000 A 
ATOM     24  C   UNL     1       2.070   7.597  19.203  0.00  0.00    +0.000 A 
ATOM     25 BR   UNL     1       2.612   5.790  19.312  0.00  0.00    +0.000 Br
ATOM     26  C   UNL     1       1.544   8.232  20.325  0.00  0.00    +0.000 A 
ATOM     27  C   UNL     1       1.134   9.566  20.236  0.00  0.00    +0.000 A 
ENDBRANCH   3  21
TORSDOF 2
ENDMDL
MODEL 9
REMARK VINA RESULT:      -6.6      5.372      8.674
REMARK  Name = 
REMARK  2 active torsions:
REMARK  status: ('A' for Active; 'I' for Inactive)
REMARK    1  A    between atoms: N_3  and  C_4
REMARK    2  A    between atoms: C_14  and  C_15
REMARK                            x       y       z     vdW  Elec       q    Type
REMARK                         _______ _______ _______ _____ _____    ______ ____
ROOT
ATOM      1  O   UNL     1       2.567  16.703  19.128  0.00  0.00    +0.000 OA
ATOM      2  C   UNL     1       2.394  15.484  19.104  0.00  0.00    +0.000 C 
ATOM      3  N   UNL     1       3.380  14.539  19.014  0.00  0.00    +0.000 N 
ATOM      4  N   UNL     1       1.106  15.035  19.164  0.00  0.00    +0.000 N 
ATOM      5  C   UNL     1       0.716  13.730  19.158  0.00  0.00    +0.000 A 
ATOM      6  N   UNL     1       1.480  12.675  19.015  0.00  0.00    +0.000 NA
ATOM      7  C   UNL     1       0.685  11.546  19.083  0.00  0.00    +0.000 A 
ATOM      8  C   UNL     1      -0.664  11.774  19.279  0.00  0.00    +0.000 A 
ATOM      9  S   UNL     1      -0.951  13.466  19.370  0.00  0.00    +0.000 S 
ATOM     10  H   UNL     1       3.050  13.587  18.870  0.00  0.00    +0.000 HD
ATOM     11  H   UNL     1       0.397  15.749  19.239  0.00  0.00    +0.000 HD
ENDROOT
BRANCH   7  12
ATOM     12  C   UNL     1       1.264  10.181  18.973  0.00  0.00    +0.000 A 
ATOM     13  C   UNL     1       1.984   9.704  17.894  0.00  0.00    +0.000 A 
ATOM     14  C   UNL     1       2.402   8.391  18.227  0.00  0.00    +0.000 A 
ATOM     15  C   UNL     1       3.176   7.394  17.608  0.00  0.00    +0.000 A 
ATOM     16  C   UNL     1       3.371   6.181  18.285  0.00  0.00    +0.000 A 
ATOM     17  C   UNL     1       2.805   5.957  19.544  0.00  0.00    +0.000 A 
ATOM     18  C   UNL     1       2.035   6.938  20.175  0.00  0.00    +0.000 A 
ATOM     19  C   UNL     1       1.868   8.136  19.484  0.00  0.00    +0.000 A 
ATOM     20  O   UNL     1       1.179   9.216  19.936  0.00  0.00    +0.000 OA
ENDBRANCH   7  12
BRANCH   3  21
ATOM     21  C   UNL     1       4.769  14.748  18.949  0.00  0.00    +0.000 A 
ATOM     22  C   UNL     1       5.503  14.676  17.764  0.00  0.00    +0.000 A 
ATOM     23  C   UNL     1       6.891  14.856  17.777  0.00  0.00    +0.000 A 
ATOM     24  C   UNL     1       7.545  15.102  18.979  0.00  0.00    +0.000 A 
ATOM     25 BR   UNL     1       9.424  15.305  18.999  0.00  0.00    +0.000 Br
ATOM     26  C   UNL     1       6.824  15.198  20.167  0.00  0.00    +0.000 A 
ATOM     27  C   UNL     1       5.436  15.036  20.148  0.00  0.00    +0.000 A 
ENDBRANCH   3  21
TORSDOF 2
ENDMDL
