MODEL 1
REMARK VINA RESULT:      -7.4      0.000      0.000
REMARK  Name = 
REMARK  14 active torsions:
REMARK  status: ('A' for Active; 'I' for Inactive)
REMARK    1  A    between atoms: C_1  and  C_2
REMARK    2  A    between atoms: C_2  and  O_3
REMARK    3  A    between atoms: O_3  and  C_4
REMARK    4  A    between atoms: C_4  and  C_6
REMARK    5  A    between atoms: C_9  and  O_10
REMARK    6  A    between atoms: O_10  and  C_11
REMARK    7  A    between atoms: C_11  and  C_12
REMARK    8  A    between atoms: C_12  and  C_13
REMARK    9  A    between atoms: C_13  and  C_14
REMARK   10  A    between atoms: C_14  and  C_15
REMARK   11  A    between atoms: C_15  and  C_17
REMARK   12  A    between atoms: C_19  and  C_20
REMARK   13  A    between atoms: N_21  and  C_22
REMARK   14  A    between atoms: C_23  and  C_24
REMARK                            x       y       z     vdW  Elec       q    Type
REMARK                         _______ _______ _______ _____ _____    ______ ____
ROOT
ATOM      1  C   UNL     1       1.201   2.495  19.244  0.00  0.00    +0.000 C 
ENDROOT
BRANCH   1   2
ATOM      2  O   UNL     1       2.551   2.024  19.207  0.00  0.00    +0.000 OA
BRANCH   2   6
ATOM      3  C   UNL     1       5.485   4.441  17.488  0.00  0.00    +0.000 A 
ATOM      4  C   UNL     1       5.559   4.024  18.822  0.00  0.00    +0.000 A 
ATOM      5  C   UNL     1       4.555   3.215  19.359  0.00  0.00    +0.000 A 
ATOM      6  C   UNL     1       3.454   2.842  18.584  0.00  0.00    +0.000 A 
ATOM      7  C   UNL     1       3.373   3.268  17.258  0.00  0.00    +0.000 A 
ATOM      8  C   UNL     1       4.379   4.077  16.713  0.00  0.00    +0.000 A 
BRANCH   3   9
ATOM      9  C   UNL     1       6.605   5.252  16.945  0.00  0.00    +0.000 C 
ATOM     10  O   UNL     1       7.527   4.777  16.317  0.00  0.00    +0.000 OA
BRANCH   9  11
ATOM     11  O   UNL     1       6.501   6.543  17.364  0.00  0.00    +0.000 OA
BRANCH  11  13
ATOM     12  C   UNL     1       7.909   8.451  17.645  0.00  0.00    +0.000 C 
ATOM     13  C   UNL     1       7.648   7.018  18.077  0.00  0.00    +0.000 C 
ENDBRANCH  11  13
ENDBRANCH   9  11
ENDBRANCH   3   9
ENDBRANCH   2   6
ENDBRANCH   1   2
BRANCH   1  14
ATOM     14  C   UNL     1       0.973   3.272  20.546  0.00  0.00    +0.000 C 
BRANCH  14  15
ATOM     15  C   UNL     1       0.903   4.772  20.269  0.00  0.00    +0.000 C 
BRANCH  15  16
ATOM     16  C   UNL     1       2.157   5.521  20.710  0.00  0.00    +0.000 C 
BRANCH  16  17
ATOM     17  C   UNL     1       2.391   6.742  19.834  0.00  0.00    +0.000 C 
ATOM     18  O   UNL     1       3.152   6.691  18.866  0.00  0.00    +0.000 OA
BRANCH  17  19
ATOM     19  C   UNL     1       1.667   7.973  20.168  0.00  0.00    +0.000 A 
ATOM     20  C   UNL     1       1.098   8.360  21.412  0.00  0.00    +0.000 A 
ATOM     21  C   UNL     1       0.527   9.608  21.261  0.00  0.00    +0.000 A 
ATOM     22  C   UNL     1      -0.159  10.450  22.276  0.00  0.00    +0.000 C 
ATOM     23  N   UNL     1       0.706   9.986  19.946  0.00  0.00    +0.000 N 
ATOM     24  C   UNL     1       0.253  11.225  19.347  0.00  0.00    +0.000 C 
ATOM     25  C   UNL     1       1.397   9.000  19.272  0.00  0.00    +0.000 A 
ATOM     26  C   UNL     1       1.755   9.073  17.822  0.00  0.00    +0.000 C 
ENDBRANCH  17  19
ENDBRANCH  16  17
ENDBRANCH  15  16
ENDBRANCH  14  15
ENDBRANCH   1  14
TORSDOF 10
ENDMDL
MODEL 2
REMARK VINA RESULT:      -6.8      2.666      7.263
REMARK  Name = 
REMARK  14 active torsions:
REMARK  status: ('A' for Active; 'I' for Inactive)
REMARK    1  A    between atoms: C_1  and  C_2
REMARK    2  A    between atoms: C_2  and  O_3
REMARK    3  A    between atoms: O_3  and  C_4
REMARK    4  A    between atoms: C_4  and  C_6
REMARK    5  A    between atoms: C_9  and  O_10
REMARK    6  A    between atoms: O_10  and  C_11
REMARK    7  A    between atoms: C_11  and  C_12
REMARK    8  A    between atoms: C_12  and  C_13
REMARK    9  A    between atoms: C_13  and  C_14
REMARK   10  A    between atoms: C_14  and  C_15
REMARK   11  A    between atoms: C_15  and  C_17
REMARK   12  A    between atoms: C_19  and  C_20
REMARK   13  A    between atoms: N_21  and  C_22
REMARK   14  A    between atoms: C_23  and  C_24
REMARK                            x       y       z     vdW  Elec       q    Type
REMARK                         _______ _______ _______ _____ _____    ______ ____
ROOT
ATOM      1  C   UNL     1       2.098   5.216  20.872  0.00  0.00    +0.000 C 
ENDROOT
BRANCH   1   2
ATOM      2  O   UNL     1       2.756   6.131  19.990  0.00  0.00    +0.000 OA
BRANCH   2   6
ATOM      3  C   UNL     1       0.843   9.745  19.164  0.00  0.00    +0.000 A 
ATOM      4  C   UNL     1       1.542   9.037  18.180  0.00  0.00    +0.000 A 
ATOM      5  C   UNL     1       2.170   7.830  18.499  0.00  0.00    +0.000 A 
ATOM      6  C   UNL     1       2.133   7.336  19.805  0.00  0.00    +0.000 A 
ATOM      7  C   UNL     1       1.447   8.047  20.789  0.00  0.00    +0.000 A 
ATOM      8  C   UNL     1       0.813   9.257  20.474  0.00  0.00    +0.000 A 
BRANCH   3   9
ATOM      9  C   UNL     1       0.144  10.993  18.765  0.00  0.00    +0.000 C 
ATOM     10  O   UNL     1       0.319  12.060  19.315  0.00  0.00    +0.000 OA
BRANCH   9  11
ATOM     11  O   UNL     1      -0.789  10.728  17.809  0.00  0.00    +0.000 OA
BRANCH  11  13
ATOM     12  C   UNL     1      -2.919   9.856  17.176  0.00  0.00    +0.000 C 
ATOM     13  C   UNL     1      -2.070  10.360  18.330  0.00  0.00    +0.000 C 
ENDBRANCH  11  13
ENDBRANCH   9  11
ENDBRANCH   3   9
ENDBRANCH   2   6
ENDBRANCH   1   2
BRANCH   1  14
ATOM     14  C   UNL     1       1.031   4.441  20.089  0.00  0.00    +0.000 C 
BRANCH  14  15
ATOM     15  C   UNL     1       1.648   3.229  19.396  0.00  0.00    +0.000 C 
BRANCH  15  16
ATOM     16  C   UNL     1       2.145   3.536  17.986  0.00  0.00    +0.000 C 
BRANCH  16  17
ATOM     17  C   UNL     1       3.462   2.825  17.714  0.00  0.00    +0.000 C 
ATOM     18  O   UNL     1       3.598   1.626  17.963  0.00  0.00    +0.000 OA
BRANCH  17  19
ATOM     19  C   UNL     1       4.555   3.609  17.129  0.00  0.00    +0.000 A 
ATOM     20  C   UNL     1       4.963   3.688  15.769  0.00  0.00    +0.000 A 
ATOM     21  C   UNL     1       6.029   4.562  15.684  0.00  0.00    +0.000 A 
ATOM     22  C   UNL     1       6.781   5.002  14.479  0.00  0.00    +0.000 C 
ATOM     23  N   UNL     1       6.305   5.000  16.962  0.00  0.00    +0.000 N 
ATOM     24  C   UNL     1       7.356   5.923  17.337  0.00  0.00    +0.000 C 
ATOM     25  C   UNL     1       5.417   4.427  17.849  0.00  0.00    +0.000 A 
ATOM     26  C   UNL     1       5.433   4.672  19.324  0.00  0.00    +0.000 C 
ENDBRANCH  17  19
ENDBRANCH  16  17
ENDBRANCH  15  16
ENDBRANCH  14  15
ENDBRANCH   1  14
TORSDOF 10
ENDMDL
MODEL 3
REMARK VINA RESULT:      -6.7      2.453      6.542
REMARK  Name = 
REMARK  14 active torsions:
REMARK  status: ('A' for Active; 'I' for Inactive)
REMARK    1  A    between atoms: C_1  and  C_2
REMARK    2  A    between atoms: C_2  and  O_3
REMARK    3  A    between atoms: O_3  and  C_4
REMARK    4  A    between atoms: C_4  and  C_6
REMARK    5  A    between atoms: C_9  and  O_10
REMARK    6  A    between atoms: O_10  and  C_11
REMARK    7  A    between atoms: C_11  and  C_12
REMARK    8  A    between atoms: C_12  and  C_13
REMARK    9  A    between atoms: C_13  and  C_14
REMARK   10  A    between atoms: C_14  and  C_15
REMARK   11  A    between atoms: C_15  and  C_17
REMARK   12  A    between atoms: C_19  and  C_20
REMARK   13  A    between atoms: N_21  and  C_22
REMARK   14  A    between atoms: C_23  and  C_24
REMARK                            x       y       z     vdW  Elec       q    Type
REMARK                         _______ _______ _______ _____ _____    ______ ____
ROOT
ATOM      1  C   UNL     1       1.536   4.683  20.853  0.00  0.00    +0.000 C 
ENDROOT
BRANCH   1   2
ATOM      2  O   UNL     1       2.626   5.303  20.165  0.00  0.00    +0.000 OA
BRANCH   2   6
ATOM      3  C   UNL     1       1.805   9.123  18.701  0.00  0.00    +0.000 A 
ATOM      4  C   UNL     1       1.437   8.731  19.993  0.00  0.00    +0.000 A 
ATOM      5  C   UNL     1       1.730   7.442  20.444  0.00  0.00    +0.000 A 
ATOM      6  C   UNL     1       2.362   6.523  19.603  0.00  0.00    +0.000 A 
ATOM      7  C   UNL     1       2.719   6.909  18.311  0.00  0.00    +0.000 A 
ATOM      8  C   UNL     1       2.430   8.202  17.854  0.00  0.00    +0.000 A 
BRANCH   3   9
ATOM      9  C   UNL     1       1.524  10.521  18.285  0.00  0.00    +0.000 C 
ATOM     10  O   UNL     1       2.392  11.310  17.974  0.00  0.00    +0.000 OA
BRANCH   9  11
ATOM     11  O   UNL     1       0.201  10.802  18.435  0.00  0.00    +0.000 OA
BRANCH  11  13
ATOM     12  C   UNL     1      -0.620  13.044  18.409  0.00  0.00    +0.000 C 
ATOM     13  C   UNL     1      -0.064  11.928  19.278  0.00  0.00    +0.000 C 
ENDBRANCH  11  13
ENDBRANCH   9  11
ENDBRANCH   3   9
ENDBRANCH   2   6
ENDBRANCH   1   2
BRANCH   1  14
ATOM     14  C   UNL     1       1.274   3.301  20.242  0.00  0.00    +0.000 C 
BRANCH  14  15
ATOM     15  C   UNL     1       1.723   3.265  18.783  0.00  0.00    +0.000 C 
BRANCH  15  16
ATOM     16  C   UNL     1       2.812   2.229  18.518  0.00  0.00    +0.000 C 
BRANCH  16  17
ATOM     17  C   UNL     1       4.185   2.796  18.845  0.00  0.00    +0.000 C 
ATOM     18  O   UNL     1       4.741   2.535  19.913  0.00  0.00    +0.000 OA
BRANCH  17  19
ATOM     19  C   UNL     1       4.831   3.648  17.840  0.00  0.00    +0.000 A 
ATOM     20  C   UNL     1       4.777   3.548  16.423  0.00  0.00    +0.000 A 
ATOM     21  C   UNL     1       5.529   4.574  15.885  0.00  0.00    +0.000 A 
ATOM     22  C   UNL     1       5.754   4.915  14.455  0.00  0.00    +0.000 C 
ATOM     23  N   UNL     1       6.066   5.286  16.936  0.00  0.00    +0.000 N 
ATOM     24  C   UNL     1       6.931   6.443  16.828  0.00  0.00    +0.000 C 
ATOM     25  C   UNL     1       5.650   4.732  18.130  0.00  0.00    +0.000 A 
ATOM     26  C   UNL     1       6.053   5.246  19.475  0.00  0.00    +0.000 C 
ENDBRANCH  17  19
ENDBRANCH  16  17
ENDBRANCH  15  16
ENDBRANCH  14  15
ENDBRANCH   1  14
TORSDOF 10
ENDMDL
MODEL 4
REMARK VINA RESULT:      -6.7      1.157      2.040
REMARK  Name = 
REMARK  14 active torsions:
REMARK  status: ('A' for Active; 'I' for Inactive)
REMARK    1  A    between atoms: C_1  and  C_2
REMARK    2  A    between atoms: C_2  and  O_3
REMARK    3  A    between atoms: O_3  and  C_4
REMARK    4  A    between atoms: C_4  and  C_6
REMARK    5  A    between atoms: C_9  and  O_10
REMARK    6  A    between atoms: O_10  and  C_11
REMARK    7  A    between atoms: C_11  and  C_12
REMARK    8  A    between atoms: C_12  and  C_13
REMARK    9  A    between atoms: C_13  and  C_14
REMARK   10  A    between atoms: C_14  and  C_15
REMARK   11  A    between atoms: C_15  and  C_17
REMARK   12  A    between atoms: C_19  and  C_20
REMARK   13  A    between atoms: N_21  and  C_22
REMARK   14  A    between atoms: C_23  and  C_24
REMARK                            x       y       z     vdW  Elec       q    Type
REMARK                         _______ _______ _______ _____ _____    ______ ____
ROOT
ATOM      1  C   UNL     1       1.929   2.587  20.850  0.00  0.00    +0.000 C 
ENDROOT
BRANCH   1   2
ATOM      2  O   UNL     1       2.552   1.935  19.740  0.00  0.00    +0.000 OA
BRANCH   2   6
ATOM      3  C   UNL     1       5.236   4.192  17.480  0.00  0.00    +0.000 A 
ATOM      4  C   UNL     1       4.189   3.476  16.887  0.00  0.00    +0.000 A 
ATOM      5  C   UNL     1       3.313   2.732  17.680  0.00  0.00    +0.000 A 
ATOM      6  C   UNL     1       3.490   2.668  19.064  0.00  0.00    +0.000 A 
ATOM      7  C   UNL     1       4.539   3.372  19.655  0.00  0.00    +0.000 A 
ATOM      8  C   UNL     1       5.420   4.122  18.864  0.00  0.00    +0.000 A 
BRANCH   3   9
ATOM      9  C   UNL     1       6.107   5.015  16.602  0.00  0.00    +0.000 C 
ATOM     10  O   UNL     1       6.199   6.221  16.697  0.00  0.00    +0.000 OA
BRANCH   9  11
ATOM     11  O   UNL     1       6.658   4.244  15.625  0.00  0.00    +0.000 OA
BRANCH  11  13
ATOM     12  C   UNL     1       6.236   3.763  13.325  0.00  0.00    +0.000 C 
ATOM     13  C   UNL     1       6.625   4.839  14.324  0.00  0.00    +0.000 C 
ENDBRANCH  11  13
ENDBRANCH   9  11
ENDBRANCH   3   9
ENDBRANCH   2   6
ENDBRANCH   1   2
BRANCH   1  14
ATOM     14  C   UNL     1       0.839   3.533  20.332  0.00  0.00    +0.000 C 
BRANCH  14  15
ATOM     15  C   UNL     1       1.279   4.988  20.476  0.00  0.00    +0.000 C 
BRANCH  15  16
ATOM     16  C   UNL     1       1.672   5.627  19.147  0.00  0.00    +0.000 C 
BRANCH  16  17
ATOM     17  C   UNL     1       2.422   6.929  19.378  0.00  0.00    +0.000 C 
ATOM     18  O   UNL     1       3.603   7.048  19.047  0.00  0.00    +0.000 OA
BRANCH  17  19
ATOM     19  C   UNL     1       1.690   8.043  19.989  0.00  0.00    +0.000 A 
ATOM     20  C   UNL     1       1.192   8.159  21.316  0.00  0.00    +0.000 A 
ATOM     21  C   UNL     1       0.580   9.390  21.447  0.00  0.00    +0.000 A 
ATOM     22  C   UNL     1      -0.060   9.991  22.647  0.00  0.00    +0.000 C 
ATOM     23  N   UNL     1       0.664  10.023  20.225  0.00  0.00    +0.000 N 
ATOM     24  C   UNL     1       0.141  11.337  19.909  0.00  0.00    +0.000 C 
ATOM     25  C   UNL     1       1.335   9.214  19.331  0.00  0.00    +0.000 A 
ATOM     26  C   UNL     1       1.598   9.582  17.905  0.00  0.00    +0.000 C 
ENDBRANCH  17  19
ENDBRANCH  16  17
ENDBRANCH  15  16
ENDBRANCH  14  15
ENDBRANCH   1  14
TORSDOF 10
ENDMDL
MODEL 5
REMARK VINA RESULT:      -6.6      1.640      2.140
REMARK  Name = 
REMARK  14 active torsions:
REMARK  status: ('A' for Active; 'I' for Inactive)
REMARK    1  A    between atoms: C_1  and  C_2
REMARK    2  A    between atoms: C_2  and  O_3
REMARK    3  A    between atoms: O_3  and  C_4
REMARK    4  A    between atoms: C_4  and  C_6
REMARK    5  A    between atoms: C_9  and  O_10
REMARK    6  A    between atoms: O_10  and  C_11
REMARK    7  A    between atoms: C_11  and  C_12
REMARK    8  A    between atoms: C_12  and  C_13
REMARK    9  A    between atoms: C_13  and  C_14
REMARK   10  A    between atoms: C_14  and  C_15
REMARK   11  A    between atoms: C_15  and  C_17
REMARK   12  A    between atoms: C_19  and  C_20
REMARK   13  A    between atoms: N_21  and  C_22
REMARK   14  A    between atoms: C_23  and  C_24
REMARK                            x       y       z     vdW  Elec       q    Type
REMARK                         _______ _______ _______ _____ _____    ______ ____
ROOT
ATOM      1  C   UNL     1       0.447   2.781  19.923  0.00  0.00    +0.000 C 
ENDROOT
BRANCH   1   2
ATOM      2  O   UNL     1       0.826   2.158  18.692  0.00  0.00    +0.000 OA
BRANCH   2   6
ATOM      3  C   UNL     1       4.389   3.627  17.094  0.00  0.00    +0.000 A 
ATOM      4  C   UNL     1       3.192   4.349  17.021  0.00  0.00    +0.000 A 
ATOM      5  C   UNL     1       2.021   3.820  17.568  0.00  0.00    +0.000 A 
ATOM      6  C   UNL     1       2.024   2.557  18.163  0.00  0.00    +0.000 A 
ATOM      7  C   UNL     1       3.213   1.831  18.226  0.00  0.00    +0.000 A 
ATOM      8  C   UNL     1       4.392   2.358  17.681  0.00  0.00    +0.000 A 
BRANCH   3   9
ATOM      9  C   UNL     1       5.620   4.254  16.549  0.00  0.00    +0.000 C 
ATOM     10  O   UNL     1       6.070   5.303  16.959  0.00  0.00    +0.000 OA
BRANCH   9  11
ATOM     11  O   UNL     1       6.067   3.558  15.468  0.00  0.00    +0.000 OA
BRANCH  11  13
ATOM     12  C   UNL     1       7.100   4.829  13.731  0.00  0.00    +0.000 C 
ATOM     13  C   UNL     1       5.806   4.196  14.214  0.00  0.00    +0.000 C 
ENDBRANCH  11  13
ENDBRANCH   9  11
ENDBRANCH   3   9
ENDBRANCH   2   6
ENDBRANCH   1   2
BRANCH   1  14
ATOM     14  C   UNL     1       1.598   2.652  20.929  0.00  0.00    +0.000 C 
BRANCH  14  15
ATOM     15  C   UNL     1       2.085   4.032  21.365  0.00  0.00    +0.000 C 
BRANCH  15  16
ATOM     16  C   UNL     1       1.315   5.173  20.706  0.00  0.00    +0.000 C 
BRANCH  16  17
ATOM     17  C   UNL     1       2.264   6.277  20.264  0.00  0.00    +0.000 C 
ATOM     18  O   UNL     1       3.418   6.019  19.918  0.00  0.00    +0.000 OA
BRANCH  17  19
ATOM     19  C   UNL     1       1.755   7.652  20.246  0.00  0.00    +0.000 A 
ATOM     20  C   UNL     1       1.144   8.388  21.298  0.00  0.00    +0.000 A 
ATOM     21  C   UNL     1       0.837   9.649  20.826  0.00  0.00    +0.000 A 
ATOM     22  C   UNL     1       0.221  10.792  21.551  0.00  0.00    +0.000 C 
ATOM     23  N   UNL     1       1.218   9.698  19.502  0.00  0.00    +0.000 N 
ATOM     24  C   UNL     1       1.071  10.833  18.614  0.00  0.00    +0.000 C 
ATOM     25  C   UNL     1       1.776   8.490  19.137  0.00  0.00    +0.000 A 
ATOM     26  C   UNL     1       2.289   8.186  17.766  0.00  0.00    +0.000 C 
ENDBRANCH  17  19
ENDBRANCH  16  17
ENDBRANCH  15  16
ENDBRANCH  14  15
ENDBRANCH   1  14
TORSDOF 10
ENDMDL
MODEL 6
REMARK VINA RESULT:      -6.6      1.243      2.381
REMARK  Name = 
REMARK  14 active torsions:
REMARK  status: ('A' for Active; 'I' for Inactive)
REMARK    1  A    between atoms: C_1  and  C_2
REMARK    2  A    between atoms: C_2  and  O_3
REMARK    3  A    between atoms: O_3  and  C_4
REMARK    4  A    between atoms: C_4  and  C_6
REMARK    5  A    between atoms: C_9  and  O_10
REMARK    6  A    between atoms: O_10  and  C_11
REMARK    7  A    between atoms: C_11  and  C_12
REMARK    8  A    between atoms: C_12  and  C_13
REMARK    9  A    between atoms: C_13  and  C_14
REMARK   10  A    between atoms: C_14  and  C_15
REMARK   11  A    between atoms: C_15  and  C_17
REMARK   12  A    between atoms: C_19  and  C_20
REMARK   13  A    between atoms: N_21  and  C_22
REMARK   14  A    between atoms: C_23  and  C_24
REMARK                            x       y       z     vdW  Elec       q    Type
REMARK                         _______ _______ _______ _____ _____    ______ ____
ROOT
ATOM      1  C   UNL     1       2.050   2.269  18.409  0.00  0.00    +0.000 C 
ENDROOT
BRANCH   1   2
ATOM      2  O   UNL     1       3.376   2.237  18.943  0.00  0.00    +0.000 OA
BRANCH   2   6
ATOM      3  C   UNL     1       5.843   5.163  17.281  0.00  0.00    +0.000 A 
ATOM      4  C   UNL     1       5.012   4.360  16.491  0.00  0.00    +0.000 A 
ATOM      5  C   UNL     1       4.202   3.391  17.087  0.00  0.00    +0.000 A 
ATOM      6  C   UNL     1       4.235   3.191  18.469  0.00  0.00    +0.000 A 
ATOM      7  C   UNL     1       5.071   3.983  19.257  0.00  0.00    +0.000 A 
ATOM      8  C   UNL     1       5.885   4.959  18.664  0.00  0.00    +0.000 A 
BRANCH   3   9
ATOM      9  C   UNL     1       6.643   6.218  16.609  0.00  0.00    +0.000 C 
ATOM     10  O   UNL     1       7.411   5.993  15.697  0.00  0.00    +0.000 OA
BRANCH   9  11
ATOM     11  O   UNL     1       6.483   7.411  17.245  0.00  0.00    +0.000 OA
BRANCH  11  13
ATOM     12  C   UNL     1       8.364   7.864  18.645  0.00  0.00    +0.000 C 
ATOM     13  C   UNL     1       7.679   8.193  17.329  0.00  0.00    +0.000 C 
ENDBRANCH  11  13
ENDBRANCH   9  11
ENDBRANCH   3   9
ENDBRANCH   2   6
ENDBRANCH   1   2
BRANCH   1  14
ATOM     14  C   UNL     1       1.055   1.864  19.503  0.00  0.00    +0.000 C 
BRANCH  14  15
ATOM     15  C   UNL     1       1.137   2.827  20.686  0.00  0.00    +0.000 C 
BRANCH  15  16
ATOM     16  C   UNL     1       0.768   4.261  20.315  0.00  0.00    +0.000 C 
BRANCH  16  17
ATOM     17  C   UNL     1       1.905   5.213  20.654  0.00  0.00    +0.000 C 
ATOM     18  O   UNL     1       2.785   4.889  21.453  0.00  0.00    +0.000 OA
BRANCH  17  19
ATOM     19  C   UNL     1       1.928   6.518  19.985  0.00  0.00    +0.000 A 
ATOM     20  C   UNL     1       2.544   6.875  18.754  0.00  0.00    +0.000 A 
ATOM     21  C   UNL     1       2.293   8.211  18.513  0.00  0.00    +0.000 A 
ATOM     22  C   UNL     1       2.693   9.040  17.345  0.00  0.00    +0.000 C 
ATOM     23  N   UNL     1       1.562   8.692  19.579  0.00  0.00    +0.000 N 
ATOM     24  C   UNL     1       1.090  10.052  19.744  0.00  0.00    +0.000 C 
ATOM     25  C   UNL     1       1.335   7.672  20.481  0.00  0.00    +0.000 A 
ATOM     26  C   UNL     1       0.583   7.841  21.762  0.00  0.00    +0.000 C 
ENDBRANCH  17  19
ENDBRANCH  16  17
ENDBRANCH  15  16
ENDBRANCH  14  15
ENDBRANCH   1  14
TORSDOF 10
ENDMDL
MODEL 7
REMARK VINA RESULT:      -6.5      4.450      8.086
REMARK  Name = 
REMARK  14 active torsions:
REMARK  status: ('A' for Active; 'I' for Inactive)
REMARK    1  A    between atoms: C_1  and  C_2
REMARK    2  A    between atoms: C_2  and  O_3
REMARK    3  A    between atoms: O_3  and  C_4
REMARK    4  A    between atoms: C_4  and  C_6
REMARK    5  A    between atoms: C_9  and  O_10
REMARK    6  A    between atoms: O_10  and  C_11
REMARK    7  A    between atoms: C_11  and  C_12
REMARK    8  A    between atoms: C_12  and  C_13
REMARK    9  A    between atoms: C_13  and  C_14
REMARK   10  A    between atoms: C_14  and  C_15
REMARK   11  A    between atoms: C_15  and  C_17
REMARK   12  A    between atoms: C_19  and  C_20
REMARK   13  A    between atoms: N_21  and  C_22
REMARK   14  A    between atoms: C_23  and  C_24
REMARK                            x       y       z     vdW  Elec       q    Type
REMARK                         _______ _______ _______ _____ _____    ______ ____
ROOT
ATOM      1  C   UNL     1       7.994   8.296  17.614  0.00  0.00    +0.000 C 
ENDROOT
BRANCH   1   2
ATOM      2  O   UNL     1       8.716   8.767  18.755  0.00  0.00    +0.000 OA
BRANCH   2   6
ATOM      3  C   UNL     1       9.766  12.797  18.990  0.00  0.00    +0.000 A 
ATOM      4  C   UNL     1      10.091  11.888  20.003  0.00  0.00    +0.000 A 
ATOM      5  C   UNL     1       9.720  10.547  19.886  0.00  0.00    +0.000 A 
ATOM      6  C   UNL     1       8.995  10.106  18.776  0.00  0.00    +0.000 A 
ATOM      7  C   UNL     1       8.661  11.014  17.771  0.00  0.00    +0.000 A 
ATOM      8  C   UNL     1       9.033  12.361  17.882  0.00  0.00    +0.000 A 
BRANCH   3   9
ATOM      9  C   UNL     1      10.232  14.200  19.132  0.00  0.00    +0.000 C 
ATOM     10  O   UNL     1       9.924  15.086  18.362  0.00  0.00    +0.000 OA
BRANCH   9  11
ATOM     11  O   UNL     1      11.133  14.299  20.147  0.00  0.00    +0.000 OA
BRANCH  11  13
ATOM     12  C   UNL     1       9.852  15.088  22.002  0.00  0.00    +0.000 C 
ATOM     13  C   UNL     1      10.935  15.436  20.994  0.00  0.00    +0.000 C 
ENDBRANCH  11  13
ENDBRANCH   9  11
ENDBRANCH   3   9
ENDBRANCH   2   6
ENDBRANCH   1   2
BRANCH   1  14
ATOM     14  C   UNL     1       7.023   7.192  18.051  0.00  0.00    +0.000 C 
BRANCH  14  15
ATOM     15  C   UNL     1       7.480   5.835  17.523  0.00  0.00    +0.000 C 
BRANCH  15  16
ATOM     16  C   UNL     1       6.979   5.544  16.111  0.00  0.00    +0.000 C 
BRANCH  16  17
ATOM     17  C   UNL     1       5.496   5.857  15.991  0.00  0.00    +0.000 C 
ATOM     18  O   UNL     1       5.097   6.769  15.265  0.00  0.00    +0.000 OA
BRANCH  17  19
ATOM     19  C   UNL     1       4.557   5.026  16.753  0.00  0.00    +0.000 A 
ATOM     20  C   UNL     1       4.423   3.611  16.757  0.00  0.00    +0.000 A 
ATOM     21  C   UNL     1       3.415   3.271  17.638  0.00  0.00    +0.000 A 
ATOM     22  C   UNL     1       2.922   1.920  18.016  0.00  0.00    +0.000 C 
ATOM     23  N   UNL     1       2.907   4.444  18.155  0.00  0.00    +0.000 N 
ATOM     24  C   UNL     1       1.826   4.555  19.113  0.00  0.00    +0.000 C 
ATOM     25  C   UNL     1       3.592   5.518  17.624  0.00  0.00    +0.000 A 
ATOM     26  C   UNL     1       3.296   6.945  17.957  0.00  0.00    +0.000 C 
ENDBRANCH  17  19
ENDBRANCH  16  17
ENDBRANCH  15  16
ENDBRANCH  14  15
ENDBRANCH   1  14
TORSDOF 10
ENDMDL
MODEL 8
REMARK VINA RESULT:      -6.4      3.019      7.821
REMARK  Name = 
REMARK  14 active torsions:
REMARK  status: ('A' for Active; 'I' for Inactive)
REMARK    1  A    between atoms: C_1  and  C_2
REMARK    2  A    between atoms: C_2  and  O_3
REMARK    3  A    between atoms: O_3  and  C_4
REMARK    4  A    between atoms: C_4  and  C_6
REMARK    5  A    between atoms: C_9  and  O_10
REMARK    6  A    between atoms: O_10  and  C_11
REMARK    7  A    between atoms: C_11  and  C_12
REMARK    8  A    between atoms: C_12  and  C_13
REMARK    9  A    between atoms: C_13  and  C_14
REMARK   10  A    between atoms: C_14  and  C_15
REMARK   11  A    between atoms: C_15  and  C_17
REMARK   12  A    between atoms: C_19  and  C_20
REMARK   13  A    between atoms: N_21  and  C_22
REMARK   14  A    between atoms: C_23  and  C_24
REMARK                            x       y       z     vdW  Elec       q    Type
REMARK                         _______ _______ _______ _____ _____    ______ ____
ROOT
ATOM      1  C   UNL     1       2.181   6.197  19.396  0.00  0.00    +0.000 C 
ENDROOT
BRANCH   1   2
ATOM      2  O   UNL     1       2.421   7.423  20.092  0.00  0.00    +0.000 OA
BRANCH   2   6
ATOM      3  C   UNL     1      -0.338  10.414  19.170  0.00  0.00    +0.000 A 
ATOM      4  C   UNL     1       0.574   9.931  18.224  0.00  0.00    +0.000 A 
ATOM      5  C   UNL     1       1.482   8.929  18.574  0.00  0.00    +0.000 A 
ATOM      6  C   UNL     1       1.512   8.423  19.875  0.00  0.00    +0.000 A 
ATOM      7  C   UNL     1       0.612   8.912  20.823  0.00  0.00    +0.000 A 
ATOM      8  C   UNL     1      -0.303   9.915  20.476  0.00  0.00    +0.000 A 
BRANCH   3   9
ATOM      9  C   UNL     1      -1.322  11.438  18.736  0.00  0.00    +0.000 C 
ATOM     10  O   UNL     1      -1.695  12.347  19.448  0.00  0.00    +0.000 OA
BRANCH   9  11
ATOM     11  O   UNL     1      -1.819  11.126  17.508  0.00  0.00    +0.000 OA
BRANCH  11  13
ATOM     12  C   UNL     1      -4.087  11.142  16.761  0.00  0.00    +0.000 C 
ATOM     13  C   UNL     1      -3.036  10.374  17.545  0.00  0.00    +0.000 C 
ENDBRANCH  11  13
ENDBRANCH   9  11
ENDBRANCH   3   9
ENDBRANCH   2   6
ENDBRANCH   1   2
BRANCH   1  14
ATOM     14  C   UNL     1       1.685   5.140  20.391  0.00  0.00    +0.000 C 
BRANCH  14  15
ATOM     15  C   UNL     1       1.742   3.748  19.767  0.00  0.00    +0.000 C 
BRANCH  15  16
ATOM     16  C   UNL     1       2.145   3.769  18.295  0.00  0.00    +0.000 C 
BRANCH  16  17
ATOM     17  C   UNL     1       3.482   3.072  18.094  0.00  0.00    +0.000 C 
ATOM     18  O   UNL     1       3.669   1.927  18.510  0.00  0.00    +0.000 OA
BRANCH  17  19
ATOM     19  C   UNL     1       4.532   3.799  17.374  0.00  0.00    +0.000 A 
ATOM     20  C   UNL     1       4.865   3.744  15.993  0.00  0.00    +0.000 A 
ATOM     21  C   UNL     1       5.914   4.611  15.762  0.00  0.00    +0.000 A 
ATOM     22  C   UNL     1       6.595   4.933  14.479  0.00  0.00    +0.000 C 
ATOM     23  N   UNL     1       6.254   5.178  16.972  0.00  0.00    +0.000 N 
ATOM     24  C   UNL     1       7.313   6.141  17.194  0.00  0.00    +0.000 C 
ATOM     25  C   UNL     1       5.422   4.692  17.959  0.00  0.00    +0.000 A 
ATOM     26  C   UNL     1       5.515   5.084  19.399  0.00  0.00    +0.000 C 
ENDBRANCH  17  19
ENDBRANCH  16  17
ENDBRANCH  15  16
ENDBRANCH  14  15
ENDBRANCH   1  14
TORSDOF 10
ENDMDL
MODEL 9
REMARK VINA RESULT:      -6.4      2.492      6.885
REMARK  Name = 
REMARK  14 active torsions:
REMARK  status: ('A' for Active; 'I' for Inactive)
REMARK    1  A    between atoms: C_1  and  C_2
REMARK    2  A    between atoms: C_2  and  O_3
REMARK    3  A    between atoms: O_3  and  C_4
REMARK    4  A    between atoms: C_4  and  C_6
REMARK    5  A    between atoms: C_9  and  O_10
REMARK    6  A    between atoms: O_10  and  C_11
REMARK    7  A    between atoms: C_11  and  C_12
REMARK    8  A    between atoms: C_12  and  C_13
REMARK    9  A    between atoms: C_13  and  C_14
REMARK   10  A    between atoms: C_14  and  C_15
REMARK   11  A    between atoms: C_15  and  C_17
REMARK   12  A    between atoms: C_19  and  C_20
REMARK   13  A    between atoms: N_21  and  C_22
REMARK   14  A    between atoms: C_23  and  C_24
REMARK                            x       y       z     vdW  Elec       q    Type
REMARK                         _______ _______ _______ _____ _____    ______ ____
ROOT
ATOM      1  C   UNL     1       2.085   5.168  21.031  0.00  0.00    +0.000 C 
ENDROOT
BRANCH   1   2
ATOM      2  O   UNL     1       2.765   5.993  20.081  0.00  0.00    +0.000 OA
BRANCH   2   6
ATOM      3  C   UNL     1       0.943   9.692  19.450  0.00  0.00    +0.000 A 
ATOM      4  C   UNL     1       0.884   9.040  20.687  0.00  0.00    +0.000 A 
ATOM      5  C   UNL     1       1.507   7.801  20.856  0.00  0.00    +0.000 A 
ATOM      6  C   UNL     1       2.166   7.188  19.789  0.00  0.00    +0.000 A 
ATOM      7  C   UNL     1       2.216   7.832  18.552  0.00  0.00    +0.000 A 
ATOM      8  C   UNL     1       1.594   9.076  18.378  0.00  0.00    +0.000 A 
BRANCH   3   9
ATOM      9  C   UNL     1       0.315  11.033  19.335  0.00  0.00    +0.000 C 
ATOM     10  O   UNL     1       0.732  11.903  18.599  0.00  0.00    +0.000 OA
BRANCH   9  11
ATOM     11  O   UNL     1      -0.683  11.169  20.251  0.00  0.00    +0.000 OA
BRANCH  11  13
ATOM     12  C   UNL     1      -2.638  12.478  19.842  0.00  0.00    +0.000 C 
ATOM     13  C   UNL     1      -1.206  12.497  20.351  0.00  0.00    +0.000 C 
ENDBRANCH  11  13
ENDBRANCH   9  11
ENDBRANCH   3   9
ENDBRANCH   2   6
ENDBRANCH   1   2
BRANCH   1  14
ATOM     14  C   UNL     1       0.843   4.557  20.371  0.00  0.00    +0.000 C 
BRANCH  14  15
ATOM     15  C   UNL     1       1.188   3.226  19.708  0.00  0.00    +0.000 C 
BRANCH  15  16
ATOM     16  C   UNL     1       1.295   3.325  18.189  0.00  0.00    +0.000 C 
BRANCH  16  17
ATOM     17  C   UNL     1       2.673   2.889  17.717  0.00  0.00    +0.000 C 
ATOM     18  O   UNL     1       2.860   1.757  17.266  0.00  0.00    +0.000 OA
BRANCH  17  19
ATOM     19  C   UNL     1       3.766   3.864  17.800  0.00  0.00    +0.000 A 
ATOM     20  C   UNL     1       4.055   4.950  16.930  0.00  0.00    +0.000 A 
ATOM     21  C   UNL     1       5.173   5.606  17.408  0.00  0.00    +0.000 A 
ATOM     22  C   UNL     1       5.846   6.818  16.870  0.00  0.00    +0.000 C 
ATOM     23  N   UNL     1       5.595   4.932  18.535  0.00  0.00    +0.000 N 
ATOM     24  C   UNL     1       6.743   5.272  19.351  0.00  0.00    +0.000 C 
ATOM     25  C   UNL     1       4.748   3.871  18.782  0.00  0.00    +0.000 A 
ATOM     26  C   UNL     1       4.915   2.917  19.922  0.00  0.00    +0.000 C 
ENDBRANCH  17  19
ENDBRANCH  16  17
ENDBRANCH  15  16
ENDBRANCH  14  15
ENDBRANCH   1  14
TORSDOF 10
ENDMDL
