MODEL 1
REMARK VINA RESULT:      -6.6      0.000      0.000
REMARK  Name = 
REMARK  14 active torsions:
REMARK  status: ('A' for Active; 'I' for Inactive)
REMARK    1  A    between atoms: C_1  and  C_2
REMARK    2  A    between atoms: C_2  and  C_3
REMARK    3  A    between atoms: C_2  and  O_17
REMARK    4  A    between atoms: C_3  and  C_4
REMARK    5  A    between atoms: C_6  and  C_7
REMARK    6  A    between atoms: C_7  and  O_8
REMARK    7  A    between atoms: C_7  and  C_9
REMARK    8  A    between atoms: C_9  and  O_10
REMARK    9  A    between atoms: C_11  and  O_12
REMARK   10  A    between atoms: C_13  and  O_14
REMARK   11  A    between atoms: C_15  and  O_16
REMARK   12  A    between atoms: O_17  and  P_18
REMARK   13  A    between atoms: P_18  and  O_20
REMARK   14  A    between atoms: P_18  and  O_21
REMARK                            x       y       z     vdW  Elec       q    Type
REMARK                         _______ _______ _______ _____ _____    ______ ____
ROOT
ATOM      1  C   UNL     1       4.320   5.464  17.843  0.00  0.00    +0.000 C 
ATOM      2  O   UNL     1       4.046   4.068  18.104  0.00  0.00    +0.000 OA
ATOM      3  C   UNL     1       3.935   3.721  19.505  0.00  0.00    +0.000 C 
ATOM      4  C   UNL     1       2.766   4.467  20.161  0.00  0.00    +0.000 C 
ATOM      5  C   UNL     1       3.016   5.976  19.980  0.00  0.00    +0.000 C 
ATOM      6  C   UNL     1       3.225   6.331  18.501  0.00  0.00    +0.000 C 
ENDROOT
BRANCH   4   7
ATOM      7  O   UNL     1       2.667   4.111  21.540  0.00  0.00    +0.000 OA
ATOM      8  H   UNL     1       3.550   3.904  21.894  0.00  0.00    +0.000 HD
ENDBRANCH   4   7
BRANCH   5   9
ATOM      9  O   UNL     1       1.946   6.764  20.505  0.00  0.00    +0.000 OA
ATOM     10  H   UNL     1       1.333   6.130  20.936  0.00  0.00    +0.000 HD
ENDBRANCH   5   9
BRANCH   6  11
ATOM     11  O   UNL     1       1.953   6.127  17.844  0.00  0.00    +0.000 OA
ATOM     12  H   UNL     1       2.068   5.430  17.170  0.00  0.00    +0.000 HD
ENDBRANCH   6  11
BRANCH   1  13
ATOM     13  C   UNL     1       5.786   5.762  18.204  0.00  0.00    +0.000 C 
BRANCH  13  15
ATOM     14  C   UNL     1       7.547   7.503  17.606  0.00  0.00    +0.000 C 
ATOM     15  C   UNL     1       6.673   6.365  17.107  0.00  0.00    +0.000 C 
BRANCH  15  16
ATOM     16  O   UNL     1       7.482   5.354  16.494  0.00  0.00    +0.000 OA
BRANCH  16  17
ATOM     17  P   UNL     1       6.816   4.779  15.004  0.00  0.00    +0.000 P 
ATOM     18  O   UNL     1       5.748   5.868  14.966  0.00  0.00    +0.000 OA
BRANCH  17  19
ATOM     19  O   UNL     1       8.093   5.343  14.182  0.00  0.00    +0.000 OA
ATOM     20  H   UNL     1       7.876   5.627  13.271  0.00  0.00    +0.000 HD
ENDBRANCH  17  19
BRANCH  17  21
ATOM     21  O   UNL     1       6.151   4.204  13.513  0.00  0.00    +0.000 OA
ATOM     22  H   UNL     1       5.911   5.045  13.066  0.00  0.00    +0.000 HD
ENDBRANCH  17  21
ENDBRANCH  16  17
ENDBRANCH  15  16
ENDBRANCH  13  15
ENDBRANCH   1  13
BRANCH   3  23
ATOM     23  C   UNL     1       3.864   2.192  19.633  0.00  0.00    +0.000 C 
BRANCH  23  24
ATOM     24  O   UNL     1       5.142   1.720  20.120  0.00  0.00    +0.000 OA
ATOM     25  H   UNL     1       4.946   1.174  20.907  0.00  0.00    +0.000 HD
ENDBRANCH  23  24
BRANCH  23  26
ATOM     26  C   UNL     1       3.586   1.471  18.315  0.00  0.00    +0.000 C 
BRANCH  26  27
ATOM     27  O   UNL     1       2.248   1.745  17.899  0.00  0.00    +0.000 OA
ATOM     28  H   UNL     1       2.128   1.261  17.056  0.00  0.00    +0.000 HD
ENDBRANCH  26  27
ENDBRANCH  23  26
ENDBRANCH   3  23
TORSDOF 13
ENDMDL
MODEL 2
REMARK VINA RESULT:      -6.5      3.139      6.027
REMARK  Name = 
REMARK  14 active torsions:
REMARK  status: ('A' for Active; 'I' for Inactive)
REMARK    1  A    between atoms: C_1  and  C_2
REMARK    2  A    between atoms: C_2  and  C_3
REMARK    3  A    between atoms: C_2  and  O_17
REMARK    4  A    between atoms: C_3  and  C_4
REMARK    5  A    between atoms: C_6  and  C_7
REMARK    6  A    between atoms: C_7  and  O_8
REMARK    7  A    between atoms: C_7  and  C_9
REMARK    8  A    between atoms: C_9  and  O_10
REMARK    9  A    between atoms: C_11  and  O_12
REMARK   10  A    between atoms: C_13  and  O_14
REMARK   11  A    between atoms: C_15  and  O_16
REMARK   12  A    between atoms: O_17  and  P_18
REMARK   13  A    between atoms: P_18  and  O_20
REMARK   14  A    between atoms: P_18  and  O_21
REMARK                            x       y       z     vdW  Elec       q    Type
REMARK                         _______ _______ _______ _____ _____    ______ ____
ROOT
ATOM      1  C   UNL     1       3.571   5.554  19.424  0.00  0.00    +0.000 C 
ATOM      2  O   UNL     1       2.861   4.503  20.120  0.00  0.00    +0.000 OA
ATOM      3  C   UNL     1       2.269   3.499  19.263  0.00  0.00    +0.000 C 
ATOM      4  C   UNL     1       3.348   2.761  18.460  0.00  0.00    +0.000 C 
ATOM      5  C   UNL     1       4.115   3.812  17.636  0.00  0.00    +0.000 C 
ATOM      6  C   UNL     1       4.666   4.928  18.535  0.00  0.00    +0.000 C 
ENDROOT
BRANCH   4   7
ATOM      7  O   UNL     1       2.749   1.771  17.624  0.00  0.00    +0.000 OA
ATOM      8  H   UNL     1       2.439   1.023  18.164  0.00  0.00    +0.000 HD
ENDBRANCH   4   7
BRANCH   5   9
ATOM      9  O   UNL     1       5.190   3.233  16.895  0.00  0.00    +0.000 OA
ATOM     10  H   UNL     1       6.012   3.509  17.355  0.00  0.00    +0.000 HD
ENDBRANCH   5   9
BRANCH   6  11
ATOM     11  O   UNL     1       5.700   4.330  19.350  0.00  0.00    +0.000 OA
ATOM     12  H   UNL     1       6.162   5.045  19.828  0.00  0.00    +0.000 HD
ENDBRANCH   6  11
BRANCH   1  13
ATOM     13  C   UNL     1       2.548   6.490  18.754  0.00  0.00    +0.000 C 
BRANCH  13  15
ATOM     14  C   UNL     1       1.582   8.834  18.513  0.00  0.00    +0.000 C 
ATOM     15  C   UNL     1       2.289   7.846  19.424  0.00  0.00    +0.000 C 
BRANCH  15  16
ATOM     16  O   UNL     1       1.551   7.680  20.640  0.00  0.00    +0.000 OA
BRANCH  16  17
ATOM     17  P   UNL     1       0.982   9.180  21.286  0.00  0.00    +0.000 P 
ATOM     18  O   UNL     1      -0.353   8.583  21.718  0.00  0.00    +0.000 OA
BRANCH  17  19
ATOM     19  O   UNL     1       1.988   9.052  22.549  0.00  0.00    +0.000 OA
ATOM     20  H   UNL     1       2.933   9.059  22.296  0.00  0.00    +0.000 HD
ENDBRANCH  17  19
BRANCH  17  21
ATOM     21  O   UNL     1       0.413  10.682  21.932  0.00  0.00    +0.000 OA
ATOM     22  H   UNL     1       0.891  10.721  22.789  0.00  0.00    +0.000 HD
ENDBRANCH  17  21
ENDBRANCH  16  17
ENDBRANCH  15  16
ENDBRANCH  13  15
ENDBRANCH   1  13
BRANCH   3  23
ATOM     23  C   UNL     1       1.376   2.584  20.115  0.00  0.00    +0.000 C 
BRANCH  23  24
ATOM     24  O   UNL     1      -0.003   2.844  19.764  0.00  0.00    +0.000 OA
ATOM     25  H   UNL     1       0.022   3.443  18.992  0.00  0.00    +0.000 HD
ENDBRANCH  23  24
BRANCH  23  26
ATOM     26  C   UNL     1       1.512   2.811  21.620  0.00  0.00    +0.000 C 
BRANCH  26  27
ATOM     27  O   UNL     1       2.816   2.414  22.043  0.00  0.00    +0.000 OA
ATOM     28  H   UNL     1       3.311   2.210  21.223  0.00  0.00    +0.000 HD
ENDBRANCH  26  27
ENDBRANCH  23  26
ENDBRANCH   3  23
TORSDOF 13
ENDMDL
MODEL 3
REMARK VINA RESULT:      -6.5      1.368      1.873
REMARK  Name = 
REMARK  14 active torsions:
REMARK  status: ('A' for Active; 'I' for Inactive)
REMARK    1  A    between atoms: C_1  and  C_2
REMARK    2  A    between atoms: C_2  and  C_3
REMARK    3  A    between atoms: C_2  and  O_17
REMARK    4  A    between atoms: C_3  and  C_4
REMARK    5  A    between atoms: C_6  and  C_7
REMARK    6  A    between atoms: C_7  and  O_8
REMARK    7  A    between atoms: C_7  and  C_9
REMARK    8  A    between atoms: C_9  and  O_10
REMARK    9  A    between atoms: C_11  and  O_12
REMARK   10  A    between atoms: C_13  and  O_14
REMARK   11  A    between atoms: C_15  and  O_16
REMARK   12  A    between atoms: O_17  and  P_18
REMARK   13  A    between atoms: P_18  and  O_20
REMARK   14  A    between atoms: P_18  and  O_21
REMARK                            x       y       z     vdW  Elec       q    Type
REMARK                         _______ _______ _______ _____ _____    ______ ____
ROOT
ATOM      1  C   UNL     1       4.151   6.520  17.489  0.00  0.00    +0.000 C 
ATOM      2  O   UNL     1       3.469   5.310  17.086  0.00  0.00    +0.000 OA
ATOM      3  C   UNL     1       3.128   4.414  18.170  0.00  0.00    +0.000 C 
ATOM      4  C   UNL     1       2.160   5.087  19.152  0.00  0.00    +0.000 C 
ATOM      5  C   UNL     1       2.845   6.363  19.678  0.00  0.00    +0.000 C 
ATOM      6  C   UNL     1       3.288   7.272  18.524  0.00  0.00    +0.000 C 
ENDROOT
BRANCH   4   7
ATOM      7  O   UNL     1       1.831   4.190  20.212  0.00  0.00    +0.000 OA
ATOM      8  H   UNL     1       1.205   4.614  20.825  0.00  0.00    +0.000 HD
ENDBRANCH   4   7
BRANCH   5   9
ATOM      9  O   UNL     1       1.996   7.102  20.559  0.00  0.00    +0.000 OA
ATOM     10  H   UNL     1       2.074   8.040  20.282  0.00  0.00    +0.000 HD
ENDBRANCH   5   9
BRANCH   6  11
ATOM     11  O   UNL     1       2.081   7.776  17.908  0.00  0.00    +0.000 OA
ATOM     12  H   UNL     1       1.713   8.471  18.486  0.00  0.00    +0.000 HD
ENDBRANCH   6  11
BRANCH   1  13
ATOM     13  C   UNL     1       5.600   6.172  17.877  0.00  0.00    +0.000 C 
BRANCH  13  15
ATOM     14  C   UNL     1       7.815   7.395  18.162  0.00  0.00    +0.000 C 
ATOM     15  C   UNL     1       6.722   6.969  17.198  0.00  0.00    +0.000 C 
BRANCH  15  16
ATOM     16  O   UNL     1       7.285   6.227  16.110  0.00  0.00    +0.000 OA
BRANCH  16  17
ATOM     17  P   UNL     1       6.691   4.604  16.030  0.00  0.00    +0.000 P 
ATOM     18  O   UNL     1       7.029   4.466  14.549  0.00  0.00    +0.000 OA
BRANCH  17  19
ATOM     19  O   UNL     1       7.974   4.062  16.859  0.00  0.00    +0.000 OA
ATOM     20  H   UNL     1       8.326   3.214  16.521  0.00  0.00    +0.000 HD
ENDBRANCH  17  19
BRANCH  17  21
ATOM     21  O   UNL     1       6.097   2.980  15.950  0.00  0.00    +0.000 OA
ATOM     22  H   UNL     1       5.680   2.966  15.061  0.00  0.00    +0.000 HD
ENDBRANCH  17  21
ENDBRANCH  16  17
ENDBRANCH  15  16
ENDBRANCH  13  15
ENDBRANCH   1  13
BRANCH   3  23
ATOM     23  C   UNL     1       2.615   3.092  17.579  0.00  0.00    +0.000 C 
BRANCH  23  24
ATOM     24  O   UNL     1       1.206   2.978  17.884  0.00  0.00    +0.000 OA
ATOM     25  H   UNL     1       1.104   3.277  18.808  0.00  0.00    +0.000 HD
ENDBRANCH  23  24
BRANCH  23  26
ATOM     26  C   UNL     1       3.304   1.851  18.143  0.00  0.00    +0.000 C 
BRANCH  26  27
ATOM     27  O   UNL     1       4.593   2.211  18.642  0.00  0.00    +0.000 OA
ATOM     28  H   UNL     1       5.094   2.544  17.869  0.00  0.00    +0.000 HD
ENDBRANCH  26  27
ENDBRANCH  23  26
ENDBRANCH   3  23
TORSDOF 13
ENDMDL
MODEL 4
REMARK VINA RESULT:      -6.5      2.004      3.995
REMARK  Name = 
REMARK  14 active torsions:
REMARK  status: ('A' for Active; 'I' for Inactive)
REMARK    1  A    between atoms: C_1  and  C_2
REMARK    2  A    between atoms: C_2  and  C_3
REMARK    3  A    between atoms: C_2  and  O_17
REMARK    4  A    between atoms: C_3  and  C_4
REMARK    5  A    between atoms: C_6  and  C_7
REMARK    6  A    between atoms: C_7  and  O_8
REMARK    7  A    between atoms: C_7  and  C_9
REMARK    8  A    between atoms: C_9  and  O_10
REMARK    9  A    between atoms: C_11  and  O_12
REMARK   10  A    between atoms: C_13  and  O_14
REMARK   11  A    between atoms: C_15  and  O_16
REMARK   12  A    between atoms: O_17  and  P_18
REMARK   13  A    between atoms: P_18  and  O_20
REMARK   14  A    between atoms: P_18  and  O_21
REMARK                            x       y       z     vdW  Elec       q    Type
REMARK                         _______ _______ _______ _____ _____    ______ ____
ROOT
ATOM      1  C   UNL     1       4.628   3.435  17.798  0.00  0.00    +0.000 C 
ATOM      2  O   UNL     1       4.428   4.341  18.907  0.00  0.00    +0.000 OA
ATOM      3  C   UNL     1       3.064   4.785  19.093  0.00  0.00    +0.000 C 
ATOM      4  C   UNL     1       2.141   3.598  19.400  0.00  0.00    +0.000 C 
ATOM      5  C   UNL     1       2.249   2.608  18.225  0.00  0.00    +0.000 C 
ATOM      6  C   UNL     1       3.708   2.208  17.969  0.00  0.00    +0.000 C 
ENDROOT
BRANCH   4   7
ATOM      7  O   UNL     1       0.800   4.053  19.585  0.00  0.00    +0.000 OA
ATOM      8  H   UNL     1       0.212   3.624  18.939  0.00  0.00    +0.000 HD
ENDBRANCH   4   7
BRANCH   5   9
ATOM      9  O   UNL     1       1.469   1.431  18.443  0.00  0.00    +0.000 OA
ATOM     10  H   UNL     1       2.112   0.719  18.654  0.00  0.00    +0.000 HD
ENDBRANCH   5   9
BRANCH   6  11
ATOM     11  O   UNL     1       4.125   1.417  19.106  0.00  0.00    +0.000 OA
ATOM     12  H   UNL     1       3.714   1.796  19.907  0.00  0.00    +0.000 HD
ENDBRANCH   6  11
BRANCH   1  13
ATOM     13  C   UNL     1       4.531   4.228  16.481  0.00  0.00    +0.000 C 
BRANCH  13  15
ATOM     14  C   UNL     1       5.910   4.448  14.351  0.00  0.00    +0.000 C 
ATOM     15  C   UNL     1       5.845   4.703  15.847  0.00  0.00    +0.000 C 
BRANCH  15  16
ATOM     16  O   UNL     1       6.069   6.091  16.122  0.00  0.00    +0.000 OA
BRANCH  16  17
ATOM     17  P   UNL     1       7.086   6.343  17.499  0.00  0.00    +0.000 P 
ATOM     18  O   UNL     1       7.811   5.014  17.310  0.00  0.00    +0.000 OA
BRANCH  17  19
ATOM     19  O   UNL     1       7.940   7.464  16.699  0.00  0.00    +0.000 OA
ATOM     20  H   UNL     1       7.419   8.259  16.469  0.00  0.00    +0.000 HD
ENDBRANCH  17  19
BRANCH  17  21
ATOM     21  O   UNL     1       8.103   6.596  18.876  0.00  0.00    +0.000 OA
ATOM     22  H   UNL     1       8.139   5.694  19.263  0.00  0.00    +0.000 HD
ENDBRANCH  17  21
ENDBRANCH  16  17
ENDBRANCH  15  16
ENDBRANCH  13  15
ENDBRANCH   1  13
BRANCH   3  23
ATOM     23  C   UNL     1       3.043   5.896  20.153  0.00  0.00    +0.000 C 
BRANCH  23  24
ATOM     24  O   UNL     1       2.421   5.370  21.348  0.00  0.00    +0.000 OA
ATOM     25  H   UNL     1       1.546   5.035  21.073  0.00  0.00    +0.000 HD
ENDBRANCH  23  24
BRANCH  23  26
ATOM     26  C   UNL     1       2.251   7.135  19.738  0.00  0.00    +0.000 C 
BRANCH  26  27
ATOM     27  O   UNL     1       1.875   7.869  20.903  0.00  0.00    +0.000 OA
ATOM     28  H   UNL     1       2.632   7.795  21.520  0.00  0.00    +0.000 HD
ENDBRANCH  26  27
ENDBRANCH  23  26
ENDBRANCH   3  23
TORSDOF 13
ENDMDL
MODEL 5
REMARK VINA RESULT:      -6.4      0.832      1.477
REMARK  Name = 
REMARK  14 active torsions:
REMARK  status: ('A' for Active; 'I' for Inactive)
REMARK    1  A    between atoms: C_1  and  C_2
REMARK    2  A    between atoms: C_2  and  C_3
REMARK    3  A    between atoms: C_2  and  O_17
REMARK    4  A    between atoms: C_3  and  C_4
REMARK    5  A    between atoms: C_6  and  C_7
REMARK    6  A    between atoms: C_7  and  O_8
REMARK    7  A    between atoms: C_7  and  C_9
REMARK    8  A    between atoms: C_9  and  O_10
REMARK    9  A    between atoms: C_11  and  O_12
REMARK   10  A    between atoms: C_13  and  O_14
REMARK   11  A    between atoms: C_15  and  O_16
REMARK   12  A    between atoms: O_17  and  P_18
REMARK   13  A    between atoms: P_18  and  O_20
REMARK   14  A    between atoms: P_18  and  O_21
REMARK                            x       y       z     vdW  Elec       q    Type
REMARK                         _______ _______ _______ _____ _____    ______ ____
ROOT
ATOM      1  C   UNL     1       4.153   5.883  17.730  0.00  0.00    +0.000 C 
ATOM      2  O   UNL     1       3.662   4.568  17.381  0.00  0.00    +0.000 OA
ATOM      3  C   UNL     1       3.489   3.666  18.500  0.00  0.00    +0.000 C 
ATOM      4  C   UNL     1       2.447   4.212  19.484  0.00  0.00    +0.000 C 
ATOM      5  C   UNL     1       2.931   5.596  19.955  0.00  0.00    +0.000 C 
ATOM      6  C   UNL     1       3.203   6.524  18.763  0.00  0.00    +0.000 C 
ENDROOT
BRANCH   4   7
ATOM      7  O   UNL     1       2.285   3.310  20.579  0.00  0.00    +0.000 OA
ATOM      8  H   UNL     1       1.521   3.577  21.120  0.00  0.00    +0.000 HD
ENDBRANCH   4   7
BRANCH   5   9
ATOM      9  O   UNL     1       1.994   6.222  20.834  0.00  0.00    +0.000 OA
ATOM     10  H   UNL     1       2.486   6.406  21.663  0.00  0.00    +0.000 HD
ENDBRANCH   5   9
BRANCH   6  11
ATOM     11  O   UNL     1       1.919   6.811  18.162  0.00  0.00    +0.000 OA
ATOM     12  H   UNL     1       1.239   6.296  18.637  0.00  0.00    +0.000 HD
ENDBRANCH   6  11
BRANCH   1  13
ATOM     13  C   UNL     1       5.646   5.780  18.092  0.00  0.00    +0.000 C 
BRANCH  13  15
ATOM     14  C   UNL     1       7.582   7.346  17.560  0.00  0.00    +0.000 C 
ATOM     15  C   UNL     1       6.659   6.256  17.043  0.00  0.00    +0.000 C 
BRANCH  15  16
ATOM     16  O   UNL     1       7.427   5.156  16.543  0.00  0.00    +0.000 OA
BRANCH  16  17
ATOM     17  P   UNL     1       6.896   4.624  14.984  0.00  0.00    +0.000 P 
ATOM     18  O   UNL     1       6.042   3.503  15.567  0.00  0.00    +0.000 OA
BRANCH  17  19
ATOM     19  O   UNL     1       5.935   5.921  14.837  0.00  0.00    +0.000 OA
ATOM     20  H   UNL     1       5.786   6.393  15.682  0.00  0.00    +0.000 HD
ENDBRANCH  17  19
BRANCH  17  21
ATOM     21  O   UNL     1       6.364   4.094  13.425  0.00  0.00    +0.000 OA
ATOM     22  H   UNL     1       5.407   3.940  13.585  0.00  0.00    +0.000 HD
ENDBRANCH  17  21
ENDBRANCH  16  17
ENDBRANCH  15  16
ENDBRANCH  13  15
ENDBRANCH   1  13
BRANCH   3  23
ATOM     23  C   UNL     1       3.180   2.261  17.962  0.00  0.00    +0.000 C 
BRANCH  23  24
ATOM     24  O   UNL     1       1.787   1.973  18.226  0.00  0.00    +0.000 OA
ATOM     25  H   UNL     1       1.273   2.566  17.645  0.00  0.00    +0.000 HD
ENDBRANCH  23  24
BRANCH  23  26
ATOM     26  C   UNL     1       4.005   1.152  18.612  0.00  0.00    +0.000 C 
BRANCH  26  27
ATOM     27  O   UNL     1       4.835   1.714  19.628  0.00  0.00    +0.000 OA
ATOM     28  H   UNL     1       4.285   1.737  20.438  0.00  0.00    +0.000 HD
ENDBRANCH  26  27
ENDBRANCH  23  26
ENDBRANCH   3  23
TORSDOF 13
ENDMDL
MODEL 6
REMARK VINA RESULT:      -6.3      1.519      3.309
REMARK  Name = 
REMARK  14 active torsions:
REMARK  status: ('A' for Active; 'I' for Inactive)
REMARK    1  A    between atoms: C_1  and  C_2
REMARK    2  A    between atoms: C_2  and  C_3
REMARK    3  A    between atoms: C_2  and  O_17
REMARK    4  A    between atoms: C_3  and  C_4
REMARK    5  A    between atoms: C_6  and  C_7
REMARK    6  A    between atoms: C_7  and  O_8
REMARK    7  A    between atoms: C_7  and  C_9
REMARK    8  A    between atoms: C_9  and  O_10
REMARK    9  A    between atoms: C_11  and  O_12
REMARK   10  A    between atoms: C_13  and  O_14
REMARK   11  A    between atoms: C_15  and  O_16
REMARK   12  A    between atoms: O_17  and  P_18
REMARK   13  A    between atoms: P_18  and  O_20
REMARK   14  A    between atoms: P_18  and  O_21
REMARK                            x       y       z     vdW  Elec       q    Type
REMARK                         _______ _______ _______ _____ _____    ______ ____
ROOT
ATOM      1  C   UNL     1       5.335   5.009  18.824  0.00  0.00    +0.000 C 
ATOM      2  O   UNL     1       4.150   5.394  19.559  0.00  0.00    +0.000 OA
ATOM      3  C   UNL     1       2.901   5.151  18.870  0.00  0.00    +0.000 C 
ATOM      4  C   UNL     1       2.709   3.653  18.600  0.00  0.00    +0.000 C 
ATOM      5  C   UNL     1       3.910   3.174  17.761  0.00  0.00    +0.000 C 
ATOM      6  C   UNL     1       5.239   3.515  18.449  0.00  0.00    +0.000 C 
ENDROOT
BRANCH   4   7
ATOM      7  O   UNL     1       1.472   3.429  17.925  0.00  0.00    +0.000 OA
ATOM      8  H   UNL     1       1.124   4.271  17.580  0.00  0.00    +0.000 HD
ENDBRANCH   4   7
BRANCH   5   9
ATOM      9  O   UNL     1       3.859   1.770  17.506  0.00  0.00    +0.000 OA
ATOM     10  H   UNL     1       4.600   1.582  16.890  0.00  0.00    +0.000 HD
ENDBRANCH   5   9
BRANCH   6  11
ATOM     11  O   UNL     1       5.314   2.688  19.634  0.00  0.00    +0.000 OA
ATOM     12  H   UNL     1       5.503   3.268  20.396  0.00  0.00    +0.000 HD
ENDBRANCH   6  11
BRANCH   1  13
ATOM     13  C   UNL     1       5.571   6.022  17.689  0.00  0.00    +0.000 C 
BRANCH  13  15
ATOM     14  C   UNL     1       7.849   6.325  18.787  0.00  0.00    +0.000 C 
ATOM     15  C   UNL     1       6.947   6.699  17.625  0.00  0.00    +0.000 C 
BRANCH  15  16
ATOM     16  O   UNL     1       7.598   6.409  16.382  0.00  0.00    +0.000 OA
BRANCH  16  17
ATOM     17  P   UNL     1       6.945   5.013  15.596  0.00  0.00    +0.000 P 
ATOM     18  O   UNL     1       7.656   5.319  14.282  0.00  0.00    +0.000 OA
BRANCH  17  19
ATOM     19  O   UNL     1       7.923   4.041  16.446  0.00  0.00    +0.000 OA
ATOM     20  H   UNL     1       8.590   4.524  16.974  0.00  0.00    +0.000 HD
ENDBRANCH  17  19
BRANCH  17  21
ATOM     21  O   UNL     1       6.292   3.616  14.810  0.00  0.00    +0.000 OA
ATOM     22  H   UNL     1       6.663   3.707  13.905  0.00  0.00    +0.000 HD
ENDBRANCH  17  21
ENDBRANCH  16  17
ENDBRANCH  15  16
ENDBRANCH  13  15
ENDBRANCH   1  13
BRANCH   3  23
ATOM     23  C   UNL     1       1.760   5.803  19.666  0.00  0.00    +0.000 C 
BRANCH  23  24
ATOM     24  O   UNL     1       2.222   7.086  20.150  0.00  0.00    +0.000 OA
ATOM     25  H   UNL     1       2.046   7.725  19.432  0.00  0.00    +0.000 HD
ENDBRANCH  23  24
BRANCH  23  26
ATOM     26  C   UNL     1       1.311   4.994  20.882  0.00  0.00    +0.000 C 
BRANCH  26  27
ATOM     27  O   UNL     1       0.370   4.003  20.469  0.00  0.00    +0.000 OA
ATOM     28  H   UNL     1       0.447   3.953  19.494  0.00  0.00    +0.000 HD
ENDBRANCH  26  27
ENDBRANCH  23  26
ENDBRANCH   3  23
TORSDOF 13
ENDMDL
MODEL 7
REMARK VINA RESULT:      -6.3      1.956      4.002
REMARK  Name = 
REMARK  14 active torsions:
REMARK  status: ('A' for Active; 'I' for Inactive)
REMARK    1  A    between atoms: C_1  and  C_2
REMARK    2  A    between atoms: C_2  and  C_3
REMARK    3  A    between atoms: C_2  and  O_17
REMARK    4  A    between atoms: C_3  and  C_4
REMARK    5  A    between atoms: C_6  and  C_7
REMARK    6  A    between atoms: C_7  and  O_8
REMARK    7  A    between atoms: C_7  and  C_9
REMARK    8  A    between atoms: C_9  and  O_10
REMARK    9  A    between atoms: C_11  and  O_12
REMARK   10  A    between atoms: C_13  and  O_14
REMARK   11  A    between atoms: C_15  and  O_16
REMARK   12  A    between atoms: O_17  and  P_18
REMARK   13  A    between atoms: P_18  and  O_20
REMARK   14  A    between atoms: P_18  and  O_21
REMARK                            x       y       z     vdW  Elec       q    Type
REMARK                         _______ _______ _______ _____ _____    ______ ____
ROOT
ATOM      1  C   UNL     1       4.719   3.419  17.742  0.00  0.00    +0.000 C 
ATOM      2  O   UNL     1       4.501   4.384  18.797  0.00  0.00    +0.000 OA
ATOM      3  C   UNL     1       3.131   4.822  18.947  0.00  0.00    +0.000 C 
ATOM      4  C   UNL     1       2.218   3.645  19.314  0.00  0.00    +0.000 C 
ATOM      5  C   UNL     1       2.346   2.591  18.198  0.00  0.00    +0.000 C 
ATOM      6  C   UNL     1       3.811   2.193  17.976  0.00  0.00    +0.000 C 
ENDROOT
BRANCH   4   7
ATOM      7  O   UNL     1       0.871   4.095  19.462  0.00  0.00    +0.000 OA
ATOM      8  H   UNL     1       0.545   3.880  20.353  0.00  0.00    +0.000 HD
ENDBRANCH   4   7
BRANCH   5   9
ATOM      9  O   UNL     1       1.577   1.420  18.476  0.00  0.00    +0.000 OA
ATOM     10  H   UNL     1       0.874   1.392  17.793  0.00  0.00    +0.000 HD
ENDBRANCH   5   9
BRANCH   6  11
ATOM     11  O   UNL     1       4.227   1.472  19.159  0.00  0.00    +0.000 OA
ATOM     12  H   UNL     1       4.908   0.824  18.896  0.00  0.00    +0.000 HD
ENDBRANCH   6  11
BRANCH   1  13
ATOM     13  C   UNL     1       4.625   4.134  16.382  0.00  0.00    +0.000 C 
BRANCH  13  15
ATOM     14  C   UNL     1       5.953   4.087  14.209  0.00  0.00    +0.000 C 
ATOM     15  C   UNL     1       5.943   4.480  15.676  0.00  0.00    +0.000 C 
BRANCH  15  16
ATOM     16  O   UNL     1       6.243   5.874  15.815  0.00  0.00    +0.000 OA
BRANCH  16  17
ATOM     17  P   UNL     1       7.099   6.230  17.276  0.00  0.00    +0.000 P 
ATOM     18  O   UNL     1       7.919   7.338  16.623  0.00  0.00    +0.000 OA
BRANCH  17  19
ATOM     19  O   UNL     1       5.783   6.930  17.911  0.00  0.00    +0.000 OA
ATOM     20  H   UNL     1       5.588   6.636  18.824  0.00  0.00    +0.000 HD
ENDBRANCH  17  19
BRANCH  17  21
ATOM     21  O   UNL     1       7.954   6.586  18.738  0.00  0.00    +0.000 OA
ATOM     22  H   UNL     1       8.879   6.652  18.414  0.00  0.00    +0.000 HD
ENDBRANCH  17  21
ENDBRANCH  16  17
ENDBRANCH  15  16
ENDBRANCH  13  15
ENDBRANCH   1  13
BRANCH   3  23
ATOM     23  C   UNL     1       3.090   5.992  19.942  0.00  0.00    +0.000 C 
BRANCH  23  24
ATOM     24  O   UNL     1       2.416   5.542  21.140  0.00  0.00    +0.000 OA
ATOM     25  H   UNL     1       2.262   6.342  21.680  0.00  0.00    +0.000 HD
ENDBRANCH  23  24
BRANCH  23  26
ATOM     26  C   UNL     1       2.334   7.217  19.429  0.00  0.00    +0.000 C 
BRANCH  26  27
ATOM     27  O   UNL     1       2.899   7.635  18.187  0.00  0.00    +0.000 OA
ATOM     28  H   UNL     1       3.092   6.813  17.692  0.00  0.00    +0.000 HD
ENDBRANCH  26  27
ENDBRANCH  23  26
ENDBRANCH   3  23
TORSDOF 13
ENDMDL
MODEL 8
REMARK VINA RESULT:      -6.3      2.051      2.854
REMARK  Name = 
REMARK  14 active torsions:
REMARK  status: ('A' for Active; 'I' for Inactive)
REMARK    1  A    between atoms: C_1  and  C_2
REMARK    2  A    between atoms: C_2  and  C_3
REMARK    3  A    between atoms: C_2  and  O_17
REMARK    4  A    between atoms: C_3  and  C_4
REMARK    5  A    between atoms: C_6  and  C_7
REMARK    6  A    between atoms: C_7  and  O_8
REMARK    7  A    between atoms: C_7  and  C_9
REMARK    8  A    between atoms: C_9  and  O_10
REMARK    9  A    between atoms: C_11  and  O_12
REMARK   10  A    between atoms: C_13  and  O_14
REMARK   11  A    between atoms: C_15  and  O_16
REMARK   12  A    between atoms: O_17  and  P_18
REMARK   13  A    between atoms: P_18  and  O_20
REMARK   14  A    between atoms: P_18  and  O_21
REMARK                            x       y       z     vdW  Elec       q    Type
REMARK                         _______ _______ _______ _____ _____    ______ ____
ROOT
ATOM      1  C   UNL     1       3.922   4.870  17.368  0.00  0.00    +0.000 C 
ATOM      2  O   UNL     1       3.044   3.765  17.683  0.00  0.00    +0.000 OA
ATOM      3  C   UNL     1       2.959   3.437  19.090  0.00  0.00    +0.000 C 
ATOM      4  C   UNL     1       2.391   4.615  19.892  0.00  0.00    +0.000 C 
ATOM      5  C   UNL     1       3.314   5.826  19.658  0.00  0.00    +0.000 C 
ATOM      6  C   UNL     1       3.477   6.118  18.160  0.00  0.00    +0.000 C 
ENDROOT
BRANCH   4   7
ATOM      7  O   UNL     1       2.310   4.274  21.276  0.00  0.00    +0.000 OA
ATOM      8  H   UNL     1       1.491   3.776  21.449  0.00  0.00    +0.000 HD
ENDBRANCH   4   7
BRANCH   5   9
ATOM      9  O   UNL     1       2.835   7.000  20.316  0.00  0.00    +0.000 OA
ATOM     10  H   UNL     1       3.437   7.145  21.078  0.00  0.00    +0.000 HD
ENDBRANCH   5   9
BRANCH   6  11
ATOM     11  O   UNL     1       2.192   6.586  17.689  0.00  0.00    +0.000 OA
ATOM     12  H   UNL     1       2.302   7.502  17.370  0.00  0.00    +0.000 HD
ENDBRANCH   6  11
BRANCH   1  13
ATOM     13  C   UNL     1       5.382   4.406  17.518  0.00  0.00    +0.000 C 
BRANCH  13  15
ATOM     14  C   UNL     1       5.847   5.510  15.270  0.00  0.00    +0.000 C 
ATOM     15  C   UNL     1       6.425   5.055  16.598  0.00  0.00    +0.000 C 
BRANCH  15  16
ATOM     16  O   UNL     1       7.070   6.152  17.257  0.00  0.00    +0.000 OA
BRANCH  16  17
ATOM     17  P   UNL     1       7.502   5.789  18.892  0.00  0.00    +0.000 P 
ATOM     18  O   UNL     1       8.365   4.599  18.487  0.00  0.00    +0.000 OA
BRANCH  17  19
ATOM     19  O   UNL     1       8.477   7.082  18.953  0.00  0.00    +0.000 OA
ATOM     20  H   UNL     1       9.335   6.901  19.387  0.00  0.00    +0.000 HD
ENDBRANCH  17  19
BRANCH  17  21
ATOM     21  O   UNL     1       7.933   5.427  20.529  0.00  0.00    +0.000 OA
ATOM     22  H   UNL     1       7.132   4.955  20.844  0.00  0.00    +0.000 HD
ENDBRANCH  17  21
ENDBRANCH  16  17
ENDBRANCH  15  16
ENDBRANCH  13  15
ENDBRANCH   1  13
BRANCH   3  23
ATOM     23  C   UNL     1       2.176   2.125  19.247  0.00  0.00    +0.000 C 
BRANCH  23  24
ATOM     24  O   UNL     1       2.846   1.102  18.475  0.00  0.00    +0.000 OA
ATOM     25  H   UNL     1       2.674   0.258  18.936  0.00  0.00    +0.000 HD
ENDBRANCH  23  24
BRANCH  23  26
ATOM     26  C   UNL     1       0.734   2.200  18.747  0.00  0.00    +0.000 C 
BRANCH  26  27
ATOM     27  O   UNL     1      -0.087   2.788  19.756  0.00  0.00    +0.000 OA
ATOM     28  H   UNL     1      -0.654   2.064  20.093  0.00  0.00    +0.000 HD
ENDBRANCH  26  27
ENDBRANCH  23  26
ENDBRANCH   3  23
TORSDOF 13
ENDMDL
MODEL 9
REMARK VINA RESULT:      -6.3      3.096      6.168
REMARK  Name = 
REMARK  14 active torsions:
REMARK  status: ('A' for Active; 'I' for Inactive)
REMARK    1  A    between atoms: C_1  and  C_2
REMARK    2  A    between atoms: C_2  and  C_3
REMARK    3  A    between atoms: C_2  and  O_17
REMARK    4  A    between atoms: C_3  and  C_4
REMARK    5  A    between atoms: C_6  and  C_7
REMARK    6  A    between atoms: C_7  and  O_8
REMARK    7  A    between atoms: C_7  and  C_9
REMARK    8  A    between atoms: C_9  and  O_10
REMARK    9  A    between atoms: C_11  and  O_12
REMARK   10  A    between atoms: C_13  and  O_14
REMARK   11  A    between atoms: C_15  and  O_16
REMARK   12  A    between atoms: O_17  and  P_18
REMARK   13  A    between atoms: P_18  and  O_20
REMARK   14  A    between atoms: P_18  and  O_21
REMARK                            x       y       z     vdW  Elec       q    Type
REMARK                         _______ _______ _______ _____ _____    ______ ____
ROOT
ATOM      1  C   UNL     1       2.440   6.017  18.354  0.00  0.00    +0.000 C 
ATOM      2  O   UNL     1       3.740   5.944  17.725  0.00  0.00    +0.000 OA
ATOM      3  C   UNL     1       4.734   5.197  18.465  0.00  0.00    +0.000 C 
ATOM      4  C   UNL     1       4.307   3.732  18.625  0.00  0.00    +0.000 C 
ATOM      5  C   UNL     1       2.948   3.720  19.350  0.00  0.00    +0.000 C 
ATOM      6  C   UNL     1       1.918   4.587  18.614  0.00  0.00    +0.000 C 
ENDROOT
BRANCH   4   7
ATOM      7  O   UNL     1       5.299   3.008  19.353  0.00  0.00    +0.000 OA
ATOM      8  H   UNL     1       5.811   2.444  18.747  0.00  0.00    +0.000 HD
ENDBRANCH   4   7
BRANCH   5   9
ATOM      9  O   UNL     1       2.430   2.396  19.495  0.00  0.00    +0.000 OA
ATOM     10  H   UNL     1       1.990   2.375  20.372  0.00  0.00    +0.000 HD
ENDBRANCH   5   9
BRANCH   6  11
ATOM     11  O   UNL     1       1.632   3.917  17.365  0.00  0.00    +0.000 OA
ATOM     12  H   UNL     1       0.693   4.072  17.146  0.00  0.00    +0.000 HD
ENDBRANCH   6  11
BRANCH   1  13
ATOM     13  C   UNL     1       2.517   6.983  19.551  0.00  0.00    +0.000 C 
BRANCH  13  15
ATOM     14  C   UNL     1       1.804   8.762  17.873  0.00  0.00    +0.000 C 
ATOM     15  C   UNL     1       1.994   8.410  19.338  0.00  0.00    +0.000 C 
BRANCH  15  16
ATOM     16  O   UNL     1       0.772   8.615  20.058  0.00  0.00    +0.000 OA
BRANCH  16  17
ATOM     17  P   UNL     1       1.037   9.096  21.699  0.00  0.00    +0.000 P 
ATOM     18  O   UNL     1       1.080  10.579  21.343  0.00  0.00    +0.000 OA
BRANCH  17  19
ATOM     19  O   UNL     1      -0.499   8.747  22.079  0.00  0.00    +0.000 OA
ATOM     20  H   UNL     1      -1.144   9.395  21.730  0.00  0.00    +0.000 HD
ENDBRANCH  17  19
BRANCH  17  21
ATOM     21  O   UNL     1       1.301   9.577  23.340  0.00  0.00    +0.000 OA
ATOM     22  H   UNL     1       0.387   9.784  23.635  0.00  0.00    +0.000 HD
ENDBRANCH  17  21
ENDBRANCH  16  17
ENDBRANCH  15  16
ENDBRANCH  13  15
ENDBRANCH   1  13
BRANCH   3  23
ATOM     23  C   UNL     1       6.101   5.390  17.793  0.00  0.00    +0.000 C 
BRANCH  23  24
ATOM     24  O   UNL     1       6.539   4.109  17.283  0.00  0.00    +0.000 OA
ATOM     25  H   UNL     1       6.104   4.000  16.415  0.00  0.00    +0.000 HD
ENDBRANCH  23  24
BRANCH  23  26
ATOM     26  C   UNL     1       7.190   5.899  18.736  0.00  0.00    +0.000 C 
BRANCH  26  27
ATOM     27  O   UNL     1       7.063   5.249  20.001  0.00  0.00    +0.000 OA
ATOM     28  H   UNL     1       7.325   4.317  19.849  0.00  0.00    +0.000 HD
ENDBRANCH  26  27
ENDBRANCH  23  26
ENDBRANCH   3  23
TORSDOF 13
ENDMDL
