MODEL 1
REMARK VINA RESULT:      -6.7      0.000      0.000
REMARK  Name = 
REMARK  6 active torsions:
REMARK  status: ('A' for Active; 'I' for Inactive)
REMARK    1  A    between atoms: C_1  and  C_2
REMARK    2  A    between atoms: C_2  and  O_4
REMARK    3  A    between atoms: O_4  and  C_5
REMARK    4  A    between atoms: C_5  and  C_6
REMARK    5  A    between atoms: C_5  and  C_12
REMARK    6  A    between atoms: C_6  and  N_7
REMARK                            x       y       z     vdW  Elec       q    Type
REMARK                         _______ _______ _______ _____ _____    ______ ____
ROOT
ATOM      1  C   UNL     1       5.623   4.538  17.714  0.00  0.00    +0.000 C 
ENDROOT
BRANCH   1   2
ATOM      2  C   UNL     1       4.565   4.184  18.775  0.00  0.00    +0.000 A 
ATOM      3  C   UNL     1       4.504   2.874  19.285  0.00  0.00    +0.000 A 
ATOM      4  C   UNL     1       3.524   2.512  20.222  0.00  0.00    +0.000 A 
ATOM      5  C   UNL     1       2.598   3.456  20.676  0.00  0.00    +0.000 A 
ATOM      6 CL   UNL     1       1.359   3.008  21.834  0.00  0.00    +0.000 Cl
ATOM      7  C   UNL     1       2.657   4.763  20.203  0.00  0.00    +0.000 A 
ATOM      8  C   UNL     1       3.627   5.128  19.273  0.00  0.00    +0.000 A 
ENDBRANCH   1   2
BRANCH   1   9
ATOM      9  O   UNL     1       6.902   4.508  18.271  0.00  0.00    +0.000 OA
BRANCH   9  11
ATOM     10  C   UNL     1       7.894   6.782  18.457  0.00  0.00    +0.000 C 
ATOM     11  C   UNL     1       7.437   5.487  19.060  0.00  0.00    +0.000 C 
ATOM     12  O   UNL     1       7.554   5.330  20.266  0.00  0.00    +0.000 OA
ENDBRANCH   9  11
ENDBRANCH   1   9
BRANCH   1  13
ATOM     13  C   UNL     1       5.583   3.584  16.489  0.00  0.00    +0.000 C 
BRANCH  13  14
ATOM     14  N   UNL     1       6.279   4.135  15.311  0.00  0.00    +0.000 N 
ATOM     15  C   UNL     1       6.149   3.814  14.003  0.00  0.00    +0.000 A 
ATOM     16  C   UNL     1       6.978   4.625  13.275  0.00  0.00    +0.000 A 
ATOM     17  N   UNL     1       7.638   5.448  14.112  0.00  0.00    +0.000 NA
ATOM     18  C   UNL     1       7.192   5.126  15.343  0.00  0.00    +0.000 A 
ENDBRANCH  13  14
ENDBRANCH   1  13
TORSDOF 5
ENDMDL
MODEL 2
REMARK VINA RESULT:      -6.7      3.995      5.568
REMARK  Name = 
REMARK  6 active torsions:
REMARK  status: ('A' for Active; 'I' for Inactive)
REMARK    1  A    between atoms: C_1  and  C_2
REMARK    2  A    between atoms: C_2  and  O_4
REMARK    3  A    between atoms: O_4  and  C_5
REMARK    4  A    between atoms: C_5  and  C_6
REMARK    5  A    between atoms: C_5  and  C_12
REMARK    6  A    between atoms: C_6  and  N_7
REMARK                            x       y       z     vdW  Elec       q    Type
REMARK                         _______ _______ _______ _____ _____    ______ ____
ROOT
ATOM      1  C   UNL     1       2.957   5.950  18.504  0.00  0.00    +0.000 C 
ENDROOT
BRANCH   1   2
ATOM      2  C   UNL     1       2.280   7.296  18.821  0.00  0.00    +0.000 A 
ATOM      3  C   UNL     1       2.102   8.243  17.795  0.00  0.00    +0.000 A 
ATOM      4  C   UNL     1       1.525   9.494  18.062  0.00  0.00    +0.000 A 
ATOM      5  C   UNL     1       1.105   9.815  19.356  0.00  0.00    +0.000 A 
ATOM      6 CL   UNL     1       0.399  11.383  19.704  0.00  0.00    +0.000 Cl
ATOM      7  C   UNL     1       1.249   8.884  20.380  0.00  0.00    +0.000 A 
ATOM      8  C   UNL     1       1.821   7.641  20.121  0.00  0.00    +0.000 A 
ENDBRANCH   1   2
BRANCH   1   9
ATOM      9  O   UNL     1       2.031   5.051  17.973  0.00  0.00    +0.000 OA
BRANCH   9  11
ATOM     10  C   UNL     1       1.318   4.010  20.116  0.00  0.00    +0.000 C 
ATOM     11  C   UNL     1       1.522   3.968  18.632  0.00  0.00    +0.000 C 
ATOM     12  O   UNL     1       1.224   2.948  18.028  0.00  0.00    +0.000 OA
ENDBRANCH   9  11
ENDBRANCH   1   9
BRANCH   1  13
ATOM     13  C   UNL     1       4.145   6.098  17.514  0.00  0.00    +0.000 C 
BRANCH  13  14
ATOM     14  N   UNL     1       5.456   5.905  18.161  0.00  0.00    +0.000 N 
ATOM     15  C   UNL     1       6.679   6.337  17.777  0.00  0.00    +0.000 A 
ATOM     16  C   UNL     1       7.592   5.945  18.720  0.00  0.00    +0.000 A 
ATOM     17  N   UNL     1       6.956   5.259  19.691  0.00  0.00    +0.000 NA
ATOM     18  C   UNL     1       5.660   5.252  19.322  0.00  0.00    +0.000 A 
ENDBRANCH  13  14
ENDBRANCH   1  13
TORSDOF 5
ENDMDL
MODEL 3
REMARK VINA RESULT:      -6.7      1.176      1.669
REMARK  Name = 
REMARK  6 active torsions:
REMARK  status: ('A' for Active; 'I' for Inactive)
REMARK    1  A    between atoms: C_1  and  C_2
REMARK    2  A    between atoms: C_2  and  O_4
REMARK    3  A    between atoms: O_4  and  C_5
REMARK    4  A    between atoms: C_5  and  C_6
REMARK    5  A    between atoms: C_5  and  C_12
REMARK    6  A    between atoms: C_6  and  N_7
REMARK                            x       y       z     vdW  Elec       q    Type
REMARK                         _______ _______ _______ _____ _____    ______ ____
ROOT
ATOM      1  C   UNL     1       5.717   4.611  16.660  0.00  0.00    +0.000 C 
ENDROOT
BRANCH   1   2
ATOM      2  C   UNL     1       4.466   4.434  17.539  0.00  0.00    +0.000 A 
ATOM      3  C   UNL     1       3.547   5.493  17.662  0.00  0.00    +0.000 A 
ATOM      4  C   UNL     1       2.419   5.375  18.488  0.00  0.00    +0.000 A 
ATOM      5  C   UNL     1       2.184   4.193  19.197  0.00  0.00    +0.000 A 
ATOM      6 CL   UNL     1       0.786   4.042  20.246  0.00  0.00    +0.000 Cl
ATOM      7  C   UNL     1       3.067   3.125  19.070  0.00  0.00    +0.000 A 
ATOM      8  C   UNL     1       4.187   3.237  18.252  0.00  0.00    +0.000 A 
ENDBRANCH   1   2
BRANCH   1   9
ATOM      9  O   UNL     1       6.873   4.542  17.438  0.00  0.00    +0.000 OA
BRANCH   9  11
ATOM     10  C   UNL     1       7.617   6.867  17.915  0.00  0.00    +0.000 C 
ATOM     11  C   UNL     1       7.260   5.479  18.354  0.00  0.00    +0.000 C 
ATOM     12  O   UNL     1       7.321   5.207  19.544  0.00  0.00    +0.000 OA
ENDBRANCH   9  11
ENDBRANCH   1   9
BRANCH   1  13
ATOM     13  C   UNL     1       5.806   3.553  15.527  0.00  0.00    +0.000 C 
BRANCH  13  14
ATOM     14  N   UNL     1       6.464   4.069  14.312  0.00  0.00    +0.000 N 
ATOM     15  C   UNL     1       6.369   3.642  13.031  0.00  0.00    +0.000 A 
ATOM     16  C   UNL     1       7.136   4.461  12.246  0.00  0.00    +0.000 A 
ATOM     17  N   UNL     1       7.722   5.395  13.020  0.00  0.00    +0.000 NA
ATOM     18  C   UNL     1       7.294   5.130  14.271  0.00  0.00    +0.000 A 
ENDBRANCH  13  14
ENDBRANCH   1  13
TORSDOF 5
ENDMDL
MODEL 4
REMARK VINA RESULT:      -6.7      2.681      3.937
REMARK  Name = 
REMARK  6 active torsions:
REMARK  status: ('A' for Active; 'I' for Inactive)
REMARK    1  A    between atoms: C_1  and  C_2
REMARK    2  A    between atoms: C_2  and  O_4
REMARK    3  A    between atoms: O_4  and  C_5
REMARK    4  A    between atoms: C_5  and  C_6
REMARK    5  A    between atoms: C_5  and  C_12
REMARK    6  A    between atoms: C_6  and  N_7
REMARK                            x       y       z     vdW  Elec       q    Type
REMARK                         _______ _______ _______ _____ _____    ______ ____
ROOT
ATOM      1  C   UNL     1       4.321   4.338  18.380  0.00  0.00    +0.000 C 
ENDROOT
BRANCH   1   2
ATOM      2  C   UNL     1       3.486   5.596  18.685  0.00  0.00    +0.000 A 
ATOM      3  C   UNL     1       3.455   6.652  17.755  0.00  0.00    +0.000 A 
ATOM      4  C   UNL     1       2.737   7.827  18.024  0.00  0.00    +0.000 A 
ATOM      5  C   UNL     1       2.027   7.961  19.221  0.00  0.00    +0.000 A 
ATOM      6 CL   UNL     1       1.140   9.433  19.574  0.00  0.00    +0.000 Cl
ATOM      7  C   UNL     1       2.025   6.919  20.143  0.00  0.00    +0.000 A 
ATOM      8  C   UNL     1       2.736   5.751  19.881  0.00  0.00    +0.000 A 
ENDBRANCH   1   2
BRANCH   1   9
ATOM      9  O   UNL     1       3.911   3.274  19.183  0.00  0.00    +0.000 OA
BRANCH   9  11
ATOM     10  C   UNL     1       1.667   2.333  18.669  0.00  0.00    +0.000 C 
ATOM     11  C   UNL     1       3.159   2.215  18.759  0.00  0.00    +0.000 C 
ATOM     12  O   UNL     1       3.683   1.157  18.444  0.00  0.00    +0.000 OA
ENDBRANCH   9  11
ENDBRANCH   1   9
BRANCH   1  13
ATOM     13  C   UNL     1       4.234   3.910  16.889  0.00  0.00    +0.000 C 
BRANCH  13  14
ATOM     14  N   UNL     1       5.448   4.253  16.124  0.00  0.00    +0.000 N 
ATOM     15  C   UNL     1       5.614   4.395  14.789  0.00  0.00    +0.000 A 
ATOM     16  C   UNL     1       6.913   4.757  14.552  0.00  0.00    +0.000 A 
ATOM     17  N   UNL     1       7.571   4.835  15.725  0.00  0.00    +0.000 NA
ATOM     18  C   UNL     1       6.653   4.523  16.662  0.00  0.00    +0.000 A 
ENDBRANCH  13  14
ENDBRANCH   1  13
TORSDOF 5
ENDMDL
MODEL 5
REMARK VINA RESULT:      -6.7      1.939      2.078
REMARK  Name = 
REMARK  6 active torsions:
REMARK  status: ('A' for Active; 'I' for Inactive)
REMARK    1  A    between atoms: C_1  and  C_2
REMARK    2  A    between atoms: C_2  and  O_4
REMARK    3  A    between atoms: O_4  and  C_5
REMARK    4  A    between atoms: C_5  and  C_6
REMARK    5  A    between atoms: C_5  and  C_12
REMARK    6  A    between atoms: C_6  and  N_7
REMARK                            x       y       z     vdW  Elec       q    Type
REMARK                         _______ _______ _______ _____ _____    ______ ____
ROOT
ATOM      1  C   UNL     1       5.255   5.455  16.276  0.00  0.00    +0.000 C 
ENDROOT
BRANCH   1   2
ATOM      2  C   UNL     1       4.110   4.773  17.048  0.00  0.00    +0.000 A 
ATOM      3  C   UNL     1       3.992   3.370  17.020  0.00  0.00    +0.000 A 
ATOM      4  C   UNL     1       2.935   2.724  17.680  0.00  0.00    +0.000 A 
ATOM      5  C   UNL     1       1.987   3.467  18.390  0.00  0.00    +0.000 A 
ATOM      6 CL   UNL     1       0.653   2.669  19.203  0.00  0.00    +0.000 Cl
ATOM      7  C   UNL     1       2.100   4.852  18.451  0.00  0.00    +0.000 A 
ATOM      8  C   UNL     1       3.146   5.499  17.798  0.00  0.00    +0.000 A 
ENDBRANCH   1   2
BRANCH   1   9
ATOM      9  O   UNL     1       5.777   6.516  17.016  0.00  0.00    +0.000 OA
BRANCH   9  11
ATOM     10  C   UNL     1       7.620   6.073  18.627  0.00  0.00    +0.000 C 
ATOM     11  C   UNL     1       7.092   6.665  17.354  0.00  0.00    +0.000 C 
ATOM     12  O   UNL     1       7.862   7.278  16.630  0.00  0.00    +0.000 OA
ENDBRANCH   9  11
ENDBRANCH   1   9
BRANCH   1  13
ATOM     13  C   UNL     1       6.404   4.472  15.920  0.00  0.00    +0.000 C 
BRANCH  13  14
ATOM     14  N   UNL     1       6.626   4.355  14.467  0.00  0.00    +0.000 N 
ATOM     15  C   UNL     1       6.013   3.557  13.562  0.00  0.00    +0.000 A 
ATOM     16  C   UNL     1       6.531   3.831  12.324  0.00  0.00    +0.000 A 
ATOM     17  N   UNL     1       7.473   4.787  12.441  0.00  0.00    +0.000 NA
ATOM     18  C   UNL     1       7.508   5.085  13.755  0.00  0.00    +0.000 A 
ENDBRANCH  13  14
ENDBRANCH   1  13
TORSDOF 5
ENDMDL
MODEL 6
REMARK VINA RESULT:      -6.6      3.151      4.652
REMARK  Name = 
REMARK  6 active torsions:
REMARK  status: ('A' for Active; 'I' for Inactive)
REMARK    1  A    between atoms: C_1  and  C_2
REMARK    2  A    between atoms: C_2  and  O_4
REMARK    3  A    between atoms: O_4  and  C_5
REMARK    4  A    between atoms: C_5  and  C_6
REMARK    5  A    between atoms: C_5  and  C_12
REMARK    6  A    between atoms: C_6  and  N_7
REMARK                            x       y       z     vdW  Elec       q    Type
REMARK                         _______ _______ _______ _____ _____    ______ ____
ROOT
ATOM      1  C   UNL     1       3.423   4.994  18.927  0.00  0.00    +0.000 C 
ENDROOT
BRANCH   1   2
ATOM      2  C   UNL     1       2.740   6.367  19.065  0.00  0.00    +0.000 A 
ATOM      3  C   UNL     1       2.722   7.248  17.967  0.00  0.00    +0.000 A 
ATOM      4  C   UNL     1       2.143   8.521  18.076  0.00  0.00    +0.000 A 
ATOM      5  C   UNL     1       1.563   8.933  19.279  0.00  0.00    +0.000 A 
ATOM      6 CL   UNL     1       0.853  10.529  19.430  0.00  0.00    +0.000 Cl
ATOM      7  C   UNL     1       1.549   8.068  20.369  0.00  0.00    +0.000 A 
ATOM      8  C   UNL     1       2.121   6.803  20.267  0.00  0.00    +0.000 A 
ENDBRANCH   1   2
BRANCH   1   9
ATOM      9  O   UNL     1       2.547   3.975  19.301  0.00  0.00    +0.000 OA
BRANCH   9  11
ATOM     10  C   UNL     1       1.663   2.974  21.399  0.00  0.00    +0.000 C 
ATOM     11  C   UNL     1       2.731   3.130  20.359  0.00  0.00    +0.000 C 
ATOM     12  O   UNL     1       3.764   2.487  20.478  0.00  0.00    +0.000 OA
ENDBRANCH   9  11
ENDBRANCH   1   9
BRANCH   1  13
ATOM     13  C   UNL     1       3.931   4.722  17.485  0.00  0.00    +0.000 C 
BRANCH  13  14
ATOM     14  N   UNL     1       5.403   4.703  17.391  0.00  0.00    +0.000 N 
ATOM     15  C   UNL     1       6.331   4.818  18.369  0.00  0.00    +0.000 A 
ATOM     16  C   UNL     1       7.572   4.701  17.801  0.00  0.00    +0.000 A 
ATOM     17  N   UNL     1       7.436   4.524  16.473  0.00  0.00    +0.000 NA
ATOM     18  C   UNL     1       6.106   4.529  16.254  0.00  0.00    +0.000 A 
ENDBRANCH  13  14
ENDBRANCH   1  13
TORSDOF 5
ENDMDL
MODEL 7
REMARK VINA RESULT:      -6.6      2.665      3.830
REMARK  Name = 
REMARK  6 active torsions:
REMARK  status: ('A' for Active; 'I' for Inactive)
REMARK    1  A    between atoms: C_1  and  C_2
REMARK    2  A    between atoms: C_2  and  O_4
REMARK    3  A    between atoms: O_4  and  C_5
REMARK    4  A    between atoms: C_5  and  C_6
REMARK    5  A    between atoms: C_5  and  C_12
REMARK    6  A    between atoms: C_6  and  N_7
REMARK                            x       y       z     vdW  Elec       q    Type
REMARK                         _______ _______ _______ _____ _____    ______ ____
ROOT
ATOM      1  C   UNL     1       4.448   4.426  18.209  0.00  0.00    +0.000 C 
ENDROOT
BRANCH   1   2
ATOM      2  C   UNL     1       3.639   5.698  18.523  0.00  0.00    +0.000 A 
ATOM      3  C   UNL     1       2.935   5.792  19.739  0.00  0.00    +0.000 A 
ATOM      4  C   UNL     1       2.157   6.921  20.034  0.00  0.00    +0.000 A 
ATOM      5  C   UNL     1       2.077   7.981  19.126  0.00  0.00    +0.000 A 
ATOM      6 CL   UNL     1       1.092   9.389  19.478  0.00  0.00    +0.000 Cl
ATOM      7  C   UNL     1       2.785   7.919  17.929  0.00  0.00    +0.000 A 
ATOM      8  C   UNL     1       3.559   6.801  17.631  0.00  0.00    +0.000 A 
ENDBRANCH   1   2
BRANCH   1   9
ATOM      9  O   UNL     1       4.013   3.364  19.002  0.00  0.00    +0.000 OA
BRANCH   9  11
ATOM     10  C   UNL     1       1.791   2.482  18.316  0.00  0.00    +0.000 C 
ATOM     11  C   UNL     1       3.260   2.312  18.562  0.00  0.00    +0.000 C 
ATOM     12  O   UNL     1       3.766   1.218  18.358  0.00  0.00    +0.000 OA
ENDBRANCH   9  11
ENDBRANCH   1   9
BRANCH   1  13
ATOM     13  C   UNL     1       4.355   4.013  16.714  0.00  0.00    +0.000 C 
BRANCH  13  14
ATOM     14  N   UNL     1       5.545   4.407  15.937  0.00  0.00    +0.000 N 
ATOM     15  C   UNL     1       5.837   4.184  14.635  0.00  0.00    +0.000 A 
ATOM     16  C   UNL     1       7.041   4.774  14.356  0.00  0.00    +0.000 A 
ATOM     17  N   UNL     1       7.516   5.359  15.473  0.00  0.00    +0.000 NA
ATOM     18  C   UNL     1       6.584   5.118  16.417  0.00  0.00    +0.000 A 
ENDBRANCH  13  14
ENDBRANCH   1  13
TORSDOF 5
ENDMDL
MODEL 8
REMARK VINA RESULT:      -6.6      3.781      5.371
REMARK  Name = 
REMARK  6 active torsions:
REMARK  status: ('A' for Active; 'I' for Inactive)
REMARK    1  A    between atoms: C_1  and  C_2
REMARK    2  A    between atoms: C_2  and  O_4
REMARK    3  A    between atoms: O_4  and  C_5
REMARK    4  A    between atoms: C_5  and  C_6
REMARK    5  A    between atoms: C_5  and  C_12
REMARK    6  A    between atoms: C_6  and  N_7
REMARK                            x       y       z     vdW  Elec       q    Type
REMARK                         _______ _______ _______ _____ _____    ______ ____
ROOT
ATOM      1  C   UNL     1       3.142   5.823  18.719  0.00  0.00    +0.000 C 
ENDROOT
BRANCH   1   2
ATOM      2  C   UNL     1       2.440   7.179  18.919  0.00  0.00    +0.000 A 
ATOM      3  C   UNL     1       1.947   7.525  20.191  0.00  0.00    +0.000 A 
ATOM      4  C   UNL     1       1.267   8.735  20.394  0.00  0.00    +0.000 A 
ATOM      5  C   UNL     1       1.078   9.626  19.333  0.00  0.00    +0.000 A 
ATOM      6 CL   UNL     1       0.214  11.133  19.573  0.00  0.00    +0.000 Cl
ATOM      7  C   UNL     1       1.579   9.313  18.073  0.00  0.00    +0.000 A 
ATOM      8  C   UNL     1       2.255   8.114  17.866  0.00  0.00    +0.000 A 
ENDBRANCH   1   2
BRANCH   1   9
ATOM      9  O   UNL     1       2.217   4.844  18.354  0.00  0.00    +0.000 OA
BRANCH   9  11
ATOM     10  C   UNL     1       0.910   3.303  19.805  0.00  0.00    +0.000 C 
ATOM     11  C   UNL     1       2.098   3.618  18.945  0.00  0.00    +0.000 C 
ATOM     12  O   UNL     1       2.950   2.757  18.785  0.00  0.00    +0.000 OA
ENDBRANCH   9  11
ENDBRANCH   1   9
BRANCH   1  13
ATOM     13  C   UNL     1       4.264   5.884  17.647  0.00  0.00    +0.000 C 
BRANCH  13  14
ATOM     14  N   UNL     1       5.617   5.859  18.233  0.00  0.00    +0.000 N 
ATOM     15  C   UNL     1       6.749   6.473  17.817  0.00  0.00    +0.000 A 
ATOM     16  C   UNL     1       7.749   6.185  18.707  0.00  0.00    +0.000 A 
ATOM     17  N   UNL     1       7.261   5.386  19.676  0.00  0.00    +0.000 NA
ATOM     18  C   UNL     1       5.963   5.206  19.360  0.00  0.00    +0.000 A 
ENDBRANCH  13  14
ENDBRANCH   1  13
TORSDOF 5
ENDMDL
MODEL 9
REMARK VINA RESULT:      -6.6      3.666      5.037
REMARK  Name = 
REMARK  6 active torsions:
REMARK  status: ('A' for Active; 'I' for Inactive)
REMARK    1  A    between atoms: C_1  and  C_2
REMARK    2  A    between atoms: C_2  and  O_4
REMARK    3  A    between atoms: O_4  and  C_5
REMARK    4  A    between atoms: C_5  and  C_6
REMARK    5  A    between atoms: C_5  and  C_12
REMARK    6  A    between atoms: C_6  and  N_7
REMARK                            x       y       z     vdW  Elec       q    Type
REMARK                         _______ _______ _______ _____ _____    ______ ____
ROOT
ATOM      1  C   UNL     1       3.442   5.779  18.735  0.00  0.00    +0.000 C 
ENDROOT
BRANCH   1   2
ATOM      2  C   UNL     1       2.607   7.061  18.913  0.00  0.00    +0.000 A 
ATOM      3  C   UNL     1       2.439   7.937  17.824  0.00  0.00    +0.000 A 
ATOM      4  C   UNL     1       1.718   9.132  17.967  0.00  0.00    +0.000 A 
ATOM      5  C   UNL     1       1.143   9.467  19.197  0.00  0.00    +0.000 A 
ATOM      6 CL   UNL     1       0.256  10.967  19.390  0.00  0.00    +0.000 Cl
ATOM      7  C   UNL     1       1.277   8.602  20.279  0.00  0.00    +0.000 A 
ATOM      8  C   UNL     1       1.991   7.415  20.143  0.00  0.00    +0.000 A 
ENDBRANCH   1   2
BRANCH   1   9
ATOM      9  O   UNL     1       2.648   4.649  18.938  0.00  0.00    +0.000 OA
BRANCH   9  11
ATOM     10  C   UNL     1       2.649   2.548  17.606  0.00  0.00    +0.000 C 
ATOM     11  C   UNL     1       2.087   3.896  17.946  0.00  0.00    +0.000 C 
ATOM     12  O   UNL     1       1.119   4.302  17.320  0.00  0.00    +0.000 OA
ENDBRANCH   9  11
ENDBRANCH   1   9
BRANCH   1  13
ATOM     13  C   UNL     1       4.104   5.687  17.333  0.00  0.00    +0.000 C 
BRANCH  13  14
ATOM     14  N   UNL     1       5.533   5.325  17.399  0.00  0.00    +0.000 N 
ATOM     15  C   UNL     1       6.379   5.340  18.455  0.00  0.00    +0.000 A 
ATOM     16  C   UNL     1       7.599   4.882  18.036  0.00  0.00    +0.000 A 
ATOM     17  N   UNL     1       7.534   4.587  16.723  0.00  0.00    +0.000 NA
ATOM     18  C   UNL     1       6.265   4.868  16.364  0.00  0.00    +0.000 A 
ENDBRANCH  13  14
ENDBRANCH   1  13
TORSDOF 5
ENDMDL
