MODEL 1
REMARK VINA RESULT:      -7.1      0.000      0.000
REMARK  Name = 
REMARK  4 active torsions:
REMARK  status: ('A' for Active; 'I' for Inactive)
REMARK    1  A    between atoms: C_1  and  N_2
REMARK    2  A    between atoms: C_4  and  C_5
REMARK    3  A    between atoms: C_8  and  C_9
REMARK    4  A    between atoms: C_15  and  N_16
REMARK                            x       y       z     vdW  Elec       q    Type
REMARK                         _______ _______ _______ _____ _____    ______ ____
ROOT
ATOM      1  C   UNL     1      -1.671  12.700  22.239  0.00  0.00    +0.000 A 
ATOM      2  C   UNL     1      -2.716  12.364  23.127  0.00  0.00    +0.000 A 
ATOM      3  N   UNL     1      -3.483  13.223  23.824  0.00  0.00    +0.000 NA
ATOM      4  C   UNL     1      -3.204  14.521  23.630  0.00  0.00    +0.000 A 
ATOM      5  C   UNL     1      -2.187  15.003  22.803  0.00  0.00    +0.000 A 
ATOM      6 CL   UNL     1      -1.993  16.727  22.871  0.00  0.00    +0.000 Cl
ATOM      7  C   UNL     1      -1.355  14.098  22.073  0.00  0.00    +0.000 A 
ENDROOT
BRANCH   7   8
ATOM      8  N   UNL     1      -0.268  14.547  21.302  0.00  0.00    +0.000 N 
ATOM      9  C   UNL     1      -0.449  15.165  19.980  0.00  0.00    +0.000 C 
ATOM     10  C   UNL     1       0.428  14.508  18.931  0.00  0.00    +0.000 C 
ATOM     11  C   UNL     1       1.896  14.443  19.374  0.00  0.00    +0.000 C 
ATOM     12  C   UNL     1       2.600  15.820  19.335  0.00  0.00    +0.000 C 
ATOM     13  C   UNL     1       3.079  15.955  17.902  0.00  0.00    +0.000 C 
ATOM     14  N   UNL     1       3.298  14.601  17.497  0.00  0.00    +0.000 N 
ATOM     15  C   UNL     1       2.660  13.681  18.305  0.00  0.00    +0.000 C 
ATOM     16  O   UNL     1       2.658  12.479  18.115  0.00  0.00    +0.000 OA
ATOM     17  C   UNL     1       1.988  13.778  20.753  0.00  0.00    +0.000 C 
ATOM     18  C   UNL     1       1.125  14.531  21.774  0.00  0.00    +0.000 C 
ATOM     19  H   UNL     1       3.774  14.301  16.656  0.00  0.00    +0.000 HD
ENDBRANCH   7   8
BRANCH   1  23
ATOM     20  C   UNL     1       0.567   9.580  20.224  0.00  0.00    +0.000 A 
ATOM     21  C   UNL     1      -0.239  10.467  19.503  0.00  0.00    +0.000 A 
ATOM     22  C   UNL     1      -1.061  11.391  20.160  0.00  0.00    +0.000 A 
ATOM     23  C   UNL     1      -1.001  11.558  21.550  0.00  0.00    +0.000 A 
ATOM     24  C   UNL     1      -0.229  10.624  22.269  0.00  0.00    +0.000 A 
ATOM     25  C   UNL     1       0.520   9.634  21.619  0.00  0.00    +0.000 A 
BRANCH  20  29
ATOM     26  C   UNL     1       3.543   5.743  19.168  0.00  0.00    +0.000 C 
ATOM     27  N   UNL     1       2.755   6.953  19.078  0.00  0.00    +0.000 N 
ATOM     28  C   UNL     1       1.963   7.486  20.049  0.00  0.00    +0.000 A 
ATOM     29  C   UNL     1       1.440   8.651  19.521  0.00  0.00    +0.000 A 
ATOM     30  C   UNL     1       1.998   8.718  18.227  0.00  0.00    +0.000 A 
ATOM     31  N   UNL     1       2.801   7.680  17.955  0.00  0.00    +0.000 NA
ENDBRANCH  20  29
ENDBRANCH   1  23
TORSDOF 3
ENDMDL
MODEL 2
REMARK VINA RESULT:      -7.0      0.851      1.457
REMARK  Name = 
REMARK  4 active torsions:
REMARK  status: ('A' for Active; 'I' for Inactive)
REMARK    1  A    between atoms: C_1  and  N_2
REMARK    2  A    between atoms: C_4  and  C_5
REMARK    3  A    between atoms: C_8  and  C_9
REMARK    4  A    between atoms: C_15  and  N_16
REMARK                            x       y       z     vdW  Elec       q    Type
REMARK                         _______ _______ _______ _____ _____    ______ ____
ROOT
ATOM      1  C   UNL     1      -1.283  11.939  22.219  0.00  0.00    +0.000 A 
ATOM      2  C   UNL     1      -2.295  11.470  23.084  0.00  0.00    +0.000 A 
ATOM      3  N   UNL     1      -3.261  12.209  23.662  0.00  0.00    +0.000 NA
ATOM      4  C   UNL     1      -3.232  13.517  23.364  0.00  0.00    +0.000 A 
ATOM      5  C   UNL     1      -2.280  14.127  22.546  0.00  0.00    +0.000 A 
ATOM      6 CL   UNL     1      -2.436  15.854  22.465  0.00  0.00    +0.000 Cl
ATOM      7  C   UNL     1      -1.240  13.355  21.941  0.00  0.00    +0.000 A 
ENDROOT
BRANCH   7   8
ATOM      8  N   UNL     1      -0.216  13.952  21.184  0.00  0.00    +0.000 N 
ATOM      9  C   UNL     1      -0.468  14.558  19.868  0.00  0.00    +0.000 C 
ATOM     10  C   UNL     1       0.495  14.035  18.818  0.00  0.00    +0.000 C 
ATOM     11  C   UNL     1       1.956  14.156  19.272  0.00  0.00    +0.000 C 
ATOM     12  C   UNL     1       2.475  15.613  19.256  0.00  0.00    +0.000 C 
ATOM     13  C   UNL     1       2.941  15.829  17.829  0.00  0.00    +0.000 C 
ATOM     14  N   UNL     1       3.337  14.521  17.409  0.00  0.00    +0.000 N 
ATOM     15  C   UNL     1       2.819  13.514  18.200  0.00  0.00    +0.000 C 
ATOM     16  O   UNL     1       2.975  12.325  17.995  0.00  0.00    +0.000 OA
ATOM     17  C   UNL     1       2.125  13.490  20.643  0.00  0.00    +0.000 C 
ATOM     18  C   UNL     1       1.164  14.110  21.667  0.00  0.00    +0.000 C 
ATOM     19  H   UNL     1       3.854  14.297  16.568  0.00  0.00    +0.000 HD
ENDBRANCH   7   8
BRANCH   1  23
ATOM     20  C   UNL     1       1.131   8.722  20.596  0.00  0.00    +0.000 A 
ATOM     21  C   UNL     1       1.030   8.920  21.978  0.00  0.00    +0.000 A 
ATOM     22  C   UNL     1       0.358  10.032  22.499  0.00  0.00    +0.000 A 
ATOM     23  C   UNL     1      -0.357  10.906  21.669  0.00  0.00    +0.000 A 
ATOM     24  C   UNL     1      -0.203  10.729  20.279  0.00  0.00    +0.000 A 
ATOM     25  C   UNL     1       0.551   9.672  19.752  0.00  0.00    +0.000 A 
BRANCH  20  29
ATOM     26  C   UNL     1       3.721   5.635  17.689  0.00  0.00    +0.000 C 
ATOM     27  N   UNL     1       2.945   6.194  18.774  0.00  0.00    +0.000 N 
ATOM     28  C   UNL     1       2.537   7.487  18.905  0.00  0.00    +0.000 A 
ATOM     29  C   UNL     1       1.804   7.542  20.075  0.00  0.00    +0.000 A 
ATOM     30  C   UNL     1       1.834   6.216  20.556  0.00  0.00    +0.000 A 
ATOM     31  N   UNL     1       2.531   5.392  19.763  0.00  0.00    +0.000 NA
ENDBRANCH  20  29
ENDBRANCH   1  23
TORSDOF 3
ENDMDL
MODEL 3
REMARK VINA RESULT:      -6.9      1.848      2.619
REMARK  Name = 
REMARK  4 active torsions:
REMARK  status: ('A' for Active; 'I' for Inactive)
REMARK    1  A    between atoms: C_1  and  N_2
REMARK    2  A    between atoms: C_4  and  C_5
REMARK    3  A    between atoms: C_8  and  C_9
REMARK    4  A    between atoms: C_15  and  N_16
REMARK                            x       y       z     vdW  Elec       q    Type
REMARK                         _______ _______ _______ _____ _____    ______ ____
ROOT
ATOM      1  C   UNL     1      -0.046  11.193  21.417  0.00  0.00    +0.000 A 
ATOM      2  C   UNL     1      -0.959  10.798  22.419  0.00  0.00    +0.000 A 
ATOM      3  N   UNL     1      -1.634  11.611  23.253  0.00  0.00    +0.000 NA
ATOM      4  C   UNL     1      -1.396  12.921  23.088  0.00  0.00    +0.000 A 
ATOM      5  C   UNL     1      -0.504  13.458  22.158  0.00  0.00    +0.000 A 
ATOM      6 CL   UNL     1      -0.319  15.180  22.284  0.00  0.00    +0.000 Cl
ATOM      7  C   UNL     1       0.231  12.603  21.280  0.00  0.00    +0.000 A 
ENDROOT
BRANCH   7   8
ATOM      8  N   UNL     1       1.201  13.105  20.394  0.00  0.00    +0.000 N 
ATOM      9  C   UNL     1       2.627  13.164  20.746  0.00  0.00    +0.000 C 
ATOM     10  C   UNL     1       3.206  14.546  20.506  0.00  0.00    +0.000 C 
ATOM     11  C   UNL     1       2.911  15.050  19.087  0.00  0.00    +0.000 C 
ATOM     12  C   UNL     1       3.751  14.333  18.005  0.00  0.00    +0.000 C 
ATOM     13  C   UNL     1       5.054  15.107  17.967  0.00  0.00    +0.000 C 
ATOM     14  N   UNL     1       4.666  16.428  18.355  0.00  0.00    +0.000 N 
ATOM     15  C   UNL     1       3.441  16.471  18.991  0.00  0.00    +0.000 C 
ATOM     16  O   UNL     1       2.940  17.476  19.459  0.00  0.00    +0.000 OA
ATOM     17  C   UNL     1       1.405  14.961  18.813  0.00  0.00    +0.000 C 
ATOM     18  C   UNL     1       0.902  13.526  19.016  0.00  0.00    +0.000 C 
ATOM     19  H   UNL     1       5.237  17.260  18.288  0.00  0.00    +0.000 HD
ENDBRANCH   7   8
BRANCH   1  23
ATOM     20  C   UNL     1       1.963   8.144  19.078  0.00  0.00    +0.000 A 
ATOM     21  C   UNL     1       1.438   9.288  18.469  0.00  0.00    +0.000 A 
ATOM     22  C   UNL     1       0.679  10.210  19.200  0.00  0.00    +0.000 A 
ATOM     23  C   UNL     1       0.536  10.096  20.589  0.00  0.00    +0.000 A 
ATOM     24  C   UNL     1       1.022   8.913  21.182  0.00  0.00    +0.000 A 
ATOM     25  C   UNL     1       1.699   7.941  20.434  0.00  0.00    +0.000 A 
BRANCH  20  29
ATOM     26  C   UNL     1       3.879   3.981  17.156  0.00  0.00    +0.000 C 
ATOM     27  N   UNL     1       3.615   5.367  17.477  0.00  0.00    +0.000 N 
ATOM     28  C   UNL     1       2.618   5.844  18.274  0.00  0.00    +0.000 A 
ATOM     29  C   UNL     1       2.780   7.216  18.309  0.00  0.00    +0.000 A 
ATOM     30  C   UNL     1       3.914   7.446  17.502  0.00  0.00    +0.000 A 
ATOM     31  N   UNL     1       4.424   6.316  16.992  0.00  0.00    +0.000 NA
ENDBRANCH  20  29
ENDBRANCH   1  23
TORSDOF 3
ENDMDL
MODEL 4
REMARK VINA RESULT:      -6.8      1.909      2.925
REMARK  Name = 
REMARK  4 active torsions:
REMARK  status: ('A' for Active; 'I' for Inactive)
REMARK    1  A    between atoms: C_1  and  N_2
REMARK    2  A    between atoms: C_4  and  C_5
REMARK    3  A    between atoms: C_8  and  C_9
REMARK    4  A    between atoms: C_15  and  N_16
REMARK                            x       y       z     vdW  Elec       q    Type
REMARK                         _______ _______ _______ _____ _____    ______ ____
ROOT
ATOM      1  C   UNL     1       0.058  10.721  21.490  0.00  0.00    +0.000 A 
ATOM      2  C   UNL     1      -0.778  10.201  22.501  0.00  0.00    +0.000 A 
ATOM      3  N   UNL     1      -1.630  10.899  23.274  0.00  0.00    +0.000 NA
ATOM      4  C   UNL     1      -1.666  12.219  23.033  0.00  0.00    +0.000 A 
ATOM      5  C   UNL     1      -0.881  12.878  22.085  0.00  0.00    +0.000 A 
ATOM      6 CL   UNL     1      -1.064  14.604  22.109  0.00  0.00    +0.000 Cl
ATOM      7  C   UNL     1       0.039  12.147  21.271  0.00  0.00    +0.000 A 
ENDROOT
BRANCH   7   8
ATOM      8  N   UNL     1       0.906  12.792  20.370  0.00  0.00    +0.000 N 
ATOM      9  C   UNL     1       2.306  13.088  20.707  0.00  0.00    +0.000 C 
ATOM     10  C   UNL     1       2.648  14.543  20.447  0.00  0.00    +0.000 C 
ATOM     11  C   UNL     1       2.263  14.975  19.026  0.00  0.00    +0.000 C 
ATOM     12  C   UNL     1       3.200  14.392  17.942  0.00  0.00    +0.000 C 
ATOM     13  C   UNL     1       4.358  15.370  17.883  0.00  0.00    +0.000 C 
ATOM     14  N   UNL     1       3.761  16.613  18.261  0.00  0.00    +0.000 N 
ATOM     15  C   UNL     1       2.551  16.462  18.909  0.00  0.00    +0.000 C 
ATOM     16  O   UNL     1       1.896  17.377  19.372  0.00  0.00    +0.000 OA
ATOM     17  C   UNL     1       0.789  14.637  18.768  0.00  0.00    +0.000 C 
ATOM     18  C   UNL     1       0.531  13.141  18.991  0.00  0.00    +0.000 C 
ATOM     19  H   UNL     1       4.187  17.527  18.180  0.00  0.00    +0.000 HD
ENDBRANCH   7   8
BRANCH   1  23
ATOM     20  C   UNL     1       2.144   7.667  19.225  0.00  0.00    +0.000 A 
ATOM     21  C   UNL     1       1.988   7.555  20.611  0.00  0.00    +0.000 A 
ATOM     22  C   UNL     1       1.430   8.598  21.360  0.00  0.00    +0.000 A 
ATOM     23  C   UNL     1       0.879   9.726  20.739  0.00  0.00    +0.000 A 
ATOM     24  C   UNL     1       1.091   9.853  19.351  0.00  0.00    +0.000 A 
ATOM     25  C   UNL     1       1.737   8.854  18.612  0.00  0.00    +0.000 A 
BRANCH  20  29
ATOM     26  C   UNL     1       2.901   3.153  17.289  0.00  0.00    +0.000 C 
ATOM     27  N   UNL     1       3.014   4.557  17.622  0.00  0.00    +0.000 N 
ATOM     28  C   UNL     1       2.169   5.281  18.407  0.00  0.00    +0.000 A 
ATOM     29  C   UNL     1       2.694   6.558  18.459  0.00  0.00    +0.000 A 
ATOM     30  C   UNL     1       3.863   6.478  17.673  0.00  0.00    +0.000 A 
ATOM     31  N   UNL     1       4.059   5.255  17.160  0.00  0.00    +0.000 NA
ENDBRANCH  20  29
ENDBRANCH   1  23
TORSDOF 3
ENDMDL
MODEL 5
REMARK VINA RESULT:      -6.7      2.289      3.387
REMARK  Name = 
REMARK  4 active torsions:
REMARK  status: ('A' for Active; 'I' for Inactive)
REMARK    1  A    between atoms: C_1  and  N_2
REMARK    2  A    between atoms: C_4  and  C_5
REMARK    3  A    between atoms: C_8  and  C_9
REMARK    4  A    between atoms: C_15  and  N_16
REMARK                            x       y       z     vdW  Elec       q    Type
REMARK                         _______ _______ _______ _____ _____    ______ ____
ROOT
ATOM      1  C   UNL     1       0.347   9.853  21.182  0.00  0.00    +0.000 A 
ATOM      2  C   UNL     1      -0.289   9.162  22.235  0.00  0.00    +0.000 A 
ATOM      3  N   UNL     1      -1.031   9.706  23.218  0.00  0.00    +0.000 NA
ATOM      4  C   UNL     1      -1.161  11.040  23.161  0.00  0.00    +0.000 A 
ATOM      5  C   UNL     1      -0.571  11.858  22.195  0.00  0.00    +0.000 A 
ATOM      6 CL   UNL     1      -0.819  13.554  22.473  0.00  0.00    +0.000 Cl
ATOM      7  C   UNL     1       0.233  11.292  21.158  0.00  0.00    +0.000 A 
ENDROOT
BRANCH   7   8
ATOM      8  N   UNL     1       0.912  12.094  20.224  0.00  0.00    +0.000 N 
ATOM      9  C   UNL     1       2.242  12.658  20.497  0.00  0.00    +0.000 C 
ATOM     10  C   UNL     1       2.281  14.153  20.237  0.00  0.00    +0.000 C 
ATOM     11  C   UNL     1       1.749  14.503  18.841  0.00  0.00    +0.000 C 
ATOM     12  C   UNL     1       2.729  14.116  17.707  0.00  0.00    +0.000 C 
ATOM     13  C   UNL     1       3.669  15.301  17.604  0.00  0.00    +0.000 C 
ATOM     14  N   UNL     1       2.860  16.403  18.023  0.00  0.00    +0.000 N 
ATOM     15  C   UNL     1       1.736  16.017  18.726  0.00  0.00    +0.000 C 
ATOM     16  O   UNL     1       0.938  16.786  19.230  0.00  0.00    +0.000 OA
ATOM     17  C   UNL     1       0.360  13.883  18.649  0.00  0.00    +0.000 C 
ATOM     18  C   UNL     1       0.409  12.365  18.868  0.00  0.00    +0.000 C 
ATOM     19  H   UNL     1       3.095  17.383  17.932  0.00  0.00    +0.000 HD
ENDBRANCH   7   8
BRANCH   1  23
ATOM     20  C   UNL     1       2.758   7.546  18.412  0.00  0.00    +0.000 A 
ATOM     21  C   UNL     1       2.182   8.761  18.026  0.00  0.00    +0.000 A 
ATOM     22  C   UNL     1       1.301   9.442  18.873  0.00  0.00    +0.000 A 
ATOM     23  C   UNL     1       1.074   9.011  20.187  0.00  0.00    +0.000 A 
ATOM     24  C   UNL     1       1.615   7.760  20.546  0.00  0.00    +0.000 A 
ATOM     25  C   UNL     1       2.420   7.027  19.664  0.00  0.00    +0.000 A 
BRANCH  20  29
ATOM     26  C   UNL     1       5.448   4.042  16.136  0.00  0.00    +0.000 C 
ATOM     27  N   UNL     1       4.881   5.309  16.543  0.00  0.00    +0.000 N 
ATOM     28  C   UNL     1       3.881   5.503  17.447  0.00  0.00    +0.000 A 
ATOM     29  C   UNL     1       3.700   6.871  17.531  0.00  0.00    +0.000 A 
ATOM     30  C   UNL     1       4.656   7.395  16.637  0.00  0.00    +0.000 A 
ATOM     31  N   UNL     1       5.378   6.442  16.031  0.00  0.00    +0.000 NA
ENDBRANCH  20  29
ENDBRANCH   1  23
TORSDOF 3
ENDMDL
MODEL 6
REMARK VINA RESULT:      -6.6      0.971      1.247
REMARK  Name = 
REMARK  4 active torsions:
REMARK  status: ('A' for Active; 'I' for Inactive)
REMARK    1  A    between atoms: C_1  and  N_2
REMARK    2  A    between atoms: C_4  and  C_5
REMARK    3  A    between atoms: C_8  and  C_9
REMARK    4  A    between atoms: C_15  and  N_16
REMARK                            x       y       z     vdW  Elec       q    Type
REMARK                         _______ _______ _______ _____ _____    ______ ____
ROOT
ATOM      1  C   UNL     1      -2.389  13.099  22.736  0.00  0.00    +0.000 A 
ATOM      2  C   UNL     1      -3.455  12.780  23.605  0.00  0.00    +0.000 A 
ATOM      3  N   UNL     1      -4.265  13.653  24.232  0.00  0.00    +0.000 NA
ATOM      4  C   UNL     1      -4.010  14.946  23.984  0.00  0.00    +0.000 A 
ATOM      5  C   UNL     1      -2.977  15.413  23.169  0.00  0.00    +0.000 A 
ATOM      6 CL   UNL     1      -2.827  17.142  23.158  0.00  0.00    +0.000 Cl
ATOM      7  C   UNL     1      -2.100  14.495  22.512  0.00  0.00    +0.000 A 
ENDROOT
BRANCH   7   8
ATOM      8  N   UNL     1      -0.998  14.934  21.756  0.00  0.00    +0.000 N 
ATOM      9  C   UNL     1      -1.145  15.457  20.390  0.00  0.00    +0.000 C 
ATOM     10  C   UNL     1      -0.202  14.767  19.422  0.00  0.00    +0.000 C 
ATOM     11  C   UNL     1       1.247  14.785  19.926  0.00  0.00    +0.000 C 
ATOM     12  C   UNL     1       1.904  16.182  19.823  0.00  0.00    +0.000 C 
ATOM     13  C   UNL     1       2.438  16.243  18.405  0.00  0.00    +0.000 C 
ATOM     14  N   UNL     1       2.720  14.875  18.099  0.00  0.00    +0.000 N 
ATOM     15  C   UNL     1       2.081  13.985  18.940  0.00  0.00    +0.000 C 
ATOM     16  O   UNL     1       2.128  12.774  18.830  0.00  0.00    +0.000 OA
ATOM     17  C   UNL     1       1.304  14.215  21.348  0.00  0.00    +0.000 C 
ATOM     18  C   UNL     1       0.374  14.999  22.283  0.00  0.00    +0.000 C 
ATOM     19  H   UNL     1       3.241  14.539  17.299  0.00  0.00    +0.000 HD
ENDBRANCH   7   8
BRANCH   1  23
ATOM     20  C   UNL     1      -0.002   9.930  20.984  0.00  0.00    +0.000 A 
ATOM     21  C   UNL     1      -0.705  10.831  20.177  0.00  0.00    +0.000 A 
ATOM     22  C   UNL     1      -1.577  11.773  20.739  0.00  0.00    +0.000 A 
ATOM     23  C   UNL     1      -1.668  11.943  22.127  0.00  0.00    +0.000 A 
ATOM     24  C   UNL     1      -0.999  10.995  22.927  0.00  0.00    +0.000 A 
ATOM     25  C   UNL     1      -0.202   9.989  22.365  0.00  0.00    +0.000 A 
BRANCH  20  29
ATOM     26  C   UNL     1       3.019   7.634  17.775  0.00  0.00    +0.000 C 
ATOM     27  N   UNL     1       2.250   7.982  18.950  0.00  0.00    +0.000 N 
ATOM     28  C   UNL     1       1.491   9.099  19.128  0.00  0.00    +0.000 A 
ATOM     29  C   UNL     1       0.926   8.983  20.384  0.00  0.00    +0.000 A 
ATOM     30  C   UNL     1       1.412   7.748  20.862  0.00  0.00    +0.000 A 
ATOM     31  N   UNL     1       2.223   7.136  19.988  0.00  0.00    +0.000 NA
ENDBRANCH  20  29
ENDBRANCH   1  23
TORSDOF 3
ENDMDL
MODEL 7
REMARK VINA RESULT:      -6.5      1.639      2.460
REMARK  Name = 
REMARK  4 active torsions:
REMARK  status: ('A' for Active; 'I' for Inactive)
REMARK    1  A    between atoms: C_1  and  N_2
REMARK    2  A    between atoms: C_4  and  C_5
REMARK    3  A    between atoms: C_8  and  C_9
REMARK    4  A    between atoms: C_15  and  N_16
REMARK                            x       y       z     vdW  Elec       q    Type
REMARK                         _______ _______ _______ _____ _____    ______ ____
ROOT
ATOM      1  C   UNL     1      -0.524  11.741  21.866  0.00  0.00    +0.000 A 
ATOM      2  C   UNL     1      -1.484  11.457  22.861  0.00  0.00    +0.000 A 
ATOM      3  N   UNL     1      -2.343  12.330  23.420  0.00  0.00    +0.000 NA
ATOM      4  C   UNL     1      -2.254  13.588  22.962  0.00  0.00    +0.000 A 
ATOM      5  C   UNL     1      -1.340  14.023  22.000  0.00  0.00    +0.000 A 
ATOM      6 CL   UNL     1      -1.387  15.736  21.719  0.00  0.00    +0.000 Cl
ATOM      7  C   UNL     1      -0.412  13.107  21.413  0.00  0.00    +0.000 A 
ENDROOT
BRANCH   7   8
ATOM      8  N   UNL     1       0.578  13.531  20.509  0.00  0.00    +0.000 N 
ATOM      9  C   UNL     1       1.997  13.613  20.884  0.00  0.00    +0.000 C 
ATOM     10  C   UNL     1       2.588  14.968  20.542  0.00  0.00    +0.000 C 
ATOM     11  C   UNL     1       2.324  15.355  19.081  0.00  0.00    +0.000 C 
ATOM     12  C   UNL     1       3.181  14.547  18.078  0.00  0.00    +0.000 C 
ATOM     13  C   UNL     1       4.489  15.310  18.003  0.00  0.00    +0.000 C 
ATOM     14  N   UNL     1       4.101  16.660  18.272  0.00  0.00    +0.000 N 
ATOM     15  C   UNL     1       2.864  16.760  18.878  0.00  0.00    +0.000 C 
ATOM     16  O   UNL     1       2.359  17.803  19.252  0.00  0.00    +0.000 OA
ATOM     17  C   UNL     1       0.823  15.249  18.785  0.00  0.00    +0.000 C 
ATOM     18  C   UNL     1       0.309  13.838  19.095  0.00  0.00    +0.000 C 
ATOM     19  H   UNL     1       4.678  17.481  18.149  0.00  0.00    +0.000 HD
ENDBRANCH   7   8
BRANCH   1  23
ATOM     20  C   UNL     1       1.506   8.197  20.409  0.00  0.00    +0.000 A 
ATOM     21  C   UNL     1       1.385   8.445  21.781  0.00  0.00    +0.000 A 
ATOM     22  C   UNL     1       0.845   9.648  22.251  0.00  0.00    +0.000 A 
ATOM     23  C   UNL     1       0.278  10.583  21.375  0.00  0.00    +0.000 A 
ATOM     24  C   UNL     1       0.454  10.349  19.996  0.00  0.00    +0.000 A 
ATOM     25  C   UNL     1       1.083   9.189  19.522  0.00  0.00    +0.000 A 
BRANCH  20  29
ATOM     26  C   UNL     1       3.726   4.713  17.648  0.00  0.00    +0.000 C 
ATOM     27  N   UNL     1       3.017   5.403  18.703  0.00  0.00    +0.000 N 
ATOM     28  C   UNL     1       2.763   6.739  18.779  0.00  0.00    +0.000 A 
ATOM     29  C   UNL     1       2.037   6.926  19.940  0.00  0.00    +0.000 A 
ATOM     30  C   UNL     1       1.909   5.626  20.474  0.00  0.00    +0.000 A 
ATOM     31  N   UNL     1       2.508   4.694  19.720  0.00  0.00    +0.000 NA
ENDBRANCH  20  29
ENDBRANCH   1  23
TORSDOF 3
ENDMDL
MODEL 8
REMARK VINA RESULT:      -6.5      2.343      3.467
REMARK  Name = 
REMARK  4 active torsions:
REMARK  status: ('A' for Active; 'I' for Inactive)
REMARK    1  A    between atoms: C_1  and  N_2
REMARK    2  A    between atoms: C_4  and  C_5
REMARK    3  A    between atoms: C_8  and  C_9
REMARK    4  A    between atoms: C_15  and  N_16
REMARK                            x       y       z     vdW  Elec       q    Type
REMARK                         _______ _______ _______ _____ _____    ______ ____
ROOT
ATOM      1  C   UNL     1      -0.044  11.520  19.649  0.00  0.00    +0.000 A 
ATOM      2  C   UNL     1      -1.374  11.205  20.006  0.00  0.00    +0.000 A 
ATOM      3  N   UNL     1      -2.358  12.082  20.280  0.00  0.00    +0.000 NA
ATOM      4  C   UNL     1      -2.009  13.375  20.195  0.00  0.00    +0.000 A 
ATOM      5  C   UNL     1      -0.730  13.836  19.879  0.00  0.00    +0.000 A 
ATOM      6 CL   UNL     1      -0.567  15.561  19.981  0.00  0.00    +0.000 Cl
ATOM      7  C   UNL     1       0.326  12.914  19.603  0.00  0.00    +0.000 A 
ENDROOT
BRANCH   7   8
ATOM      8  N   UNL     1       1.645  13.344  19.367  0.00  0.00    +0.000 N 
ATOM      9  C   UNL     1       2.646  13.420  20.441  0.00  0.00    +0.000 C 
ATOM     10  C   UNL     1       3.324  14.777  20.479  0.00  0.00    +0.000 C 
ATOM     11  C   UNL     1       3.877  15.177  19.104  0.00  0.00    +0.000 C 
ATOM     12  C   UNL     1       5.139  14.377  18.705  0.00  0.00    +0.000 C 
ATOM     13  C   UNL     1       6.284  15.139  19.344  0.00  0.00    +0.000 C 
ATOM     14  N   UNL     1       5.807  16.486  19.377  0.00  0.00    +0.000 N 
ATOM     15  C   UNL     1       4.437  16.583  19.231  0.00  0.00    +0.000 C 
ATOM     16  O   UNL     1       3.808  17.623  19.287  0.00  0.00    +0.000 OA
ATOM     17  C   UNL     1       2.765  15.077  18.054  0.00  0.00    +0.000 C 
ATOM     18  C   UNL     1       2.168  13.663  18.030  0.00  0.00    +0.000 C 
ATOM     19  H   UNL     1       6.359  17.308  19.586  0.00  0.00    +0.000 HD
ENDBRANCH   7   8
BRANCH   1  23
ATOM     20  C   UNL     1       2.262   7.988  18.643  0.00  0.00    +0.000 A 
ATOM     21  C   UNL     1       1.751   8.170  19.932  0.00  0.00    +0.000 A 
ATOM     22  C   UNL     1       1.118   9.365  20.294  0.00  0.00    +0.000 A 
ATOM     23  C   UNL     1       0.847  10.361  19.347  0.00  0.00    +0.000 A 
ATOM     24  C   UNL     1       1.413  10.191  18.067  0.00  0.00    +0.000 A 
ATOM     25  C   UNL     1       2.133   9.037  17.730  0.00  0.00    +0.000 A 
BRANCH  20  29
ATOM     26  C   UNL     1       5.309   4.603  16.654  0.00  0.00    +0.000 C 
ATOM     27  N   UNL     1       4.238   5.247  17.384  0.00  0.00    +0.000 N 
ATOM     28  C   UNL     1       4.041   6.587  17.530  0.00  0.00    +0.000 A 
ATOM     29  C   UNL     1       2.886   6.725  18.276  0.00  0.00    +0.000 A 
ATOM     30  C   UNL     1       2.473   5.397  18.512  0.00  0.00    +0.000 A 
ATOM     31  N   UNL     1       3.300   4.493  17.968  0.00  0.00    +0.000 NA
ENDBRANCH  20  29
ENDBRANCH   1  23
TORSDOF 3
ENDMDL
MODEL 9
REMARK VINA RESULT:      -6.5      4.621      9.339
REMARK  Name = 
REMARK  4 active torsions:
REMARK  status: ('A' for Active; 'I' for Inactive)
REMARK    1  A    between atoms: C_1  and  N_2
REMARK    2  A    between atoms: C_4  and  C_5
REMARK    3  A    between atoms: C_8  and  C_9
REMARK    4  A    between atoms: C_15  and  N_16
REMARK                            x       y       z     vdW  Elec       q    Type
REMARK                         _______ _______ _______ _____ _____    ______ ____
ROOT
ATOM      1  C   UNL     1       2.137   5.250  20.133  0.00  0.00    +0.000 A 
ATOM      2  C   UNL     1       1.378   4.679  21.178  0.00  0.00    +0.000 A 
ATOM      3  N   UNL     1       1.448   3.409  21.618  0.00  0.00    +0.000 NA
ATOM      4  C   UNL     1       2.338   2.634  20.981  0.00  0.00    +0.000 A 
ATOM      5  C   UNL     1       3.139   3.050  19.915  0.00  0.00    +0.000 A 
ATOM      6 CL   UNL     1       4.090   1.775  19.219  0.00  0.00    +0.000 Cl
ATOM      7  C   UNL     1       3.060   4.392  19.429  0.00  0.00    +0.000 A 
ENDROOT
BRANCH   7   8
ATOM      8  N   UNL     1       3.788   4.818  18.303  0.00  0.00    +0.000 N 
ATOM      9  C   UNL     1       3.775   4.072  17.036  0.00  0.00    +0.000 C 
ATOM     10  C   UNL     1       5.181   3.796  16.536  0.00  0.00    +0.000 C 
ATOM     11  C   UNL     1       6.028   5.074  16.479  0.00  0.00    +0.000 C 
ATOM     12  C   UNL     1       5.625   6.015  15.319  0.00  0.00    +0.000 C 
ATOM     13  C   UNL     1       6.403   5.493  14.126  0.00  0.00    +0.000 C 
ATOM     14  N   UNL     1       7.573   4.923  14.717  0.00  0.00    +0.000 N 
ATOM     15  C   UNL     1       7.433   4.669  16.068  0.00  0.00    +0.000 C 
ATOM     16  O   UNL     1       8.277   4.133  16.762  0.00  0.00    +0.000 OA
ATOM     17  C   UNL     1       5.990   5.777  17.841  0.00  0.00    +0.000 C 
ATOM     18  C   UNL     1       4.543   6.079  18.254  0.00  0.00    +0.000 C 
ATOM     19  H   UNL     1       8.403   4.621  14.223  0.00  0.00    +0.000 HD
ENDBRANCH   7   8
BRANCH   1  23
ATOM     20  C   UNL     1       1.125   9.388  19.324  0.00  0.00    +0.000 A 
ATOM     21  C   UNL     1       1.577   8.545  18.303  0.00  0.00    +0.000 A 
ATOM     22  C   UNL     1       2.026   7.249  18.585  0.00  0.00    +0.000 A 
ATOM     23  C   UNL     1       1.906   6.700  19.868  0.00  0.00    +0.000 A 
ATOM     24  C   UNL     1       1.501   7.574  20.897  0.00  0.00    +0.000 A 
ATOM     25  C   UNL     1       1.144   8.904  20.633  0.00  0.00    +0.000 A 
BRANCH  20  29
ATOM     26  C   UNL     1       0.730  14.322  18.885  0.00  0.00    +0.000 C 
ATOM     27  N   UNL     1       0.473  12.899  18.827  0.00  0.00    +0.000 N 
ATOM     28  C   UNL     1       1.313  11.902  19.219  0.00  0.00    +0.000 A 
ATOM     29  C   UNL     1       0.630  10.720  19.006  0.00  0.00    +0.000 A 
ATOM     30  C   UNL     1      -0.615  11.135  18.490  0.00  0.00    +0.000 A 
ATOM     31  N   UNL     1      -0.712  12.468  18.380  0.00  0.00    +0.000 NA
ENDBRANCH  20  29
ENDBRANCH   1  23
TORSDOF 3
ENDMDL
