MODEL 1
REMARK VINA RESULT:      -7.8      0.000      0.000
REMARK  Name = 
REMARK  7 active torsions:
REMARK  status: ('A' for Active; 'I' for Inactive)
REMARK    1  A    between atoms: C_1  and  O_2
REMARK    2  A    between atoms: O_2  and  C_3
REMARK    3  A    between atoms: C_8  and  N_9
REMARK    4  A    between atoms: C_11  and  C_12
REMARK    5  A    between atoms: N_17  and  C_18
REMARK    6  A    between atoms: C_18  and  C_19
REMARK    7  A    between atoms: N_21  and  C_22
REMARK                            x       y       z     vdW  Elec       q    Type
REMARK                         _______ _______ _______ _____ _____    ______ ____
ROOT
ATOM      1  N   UNL     1       4.223   4.504  18.736  0.00  0.00    +0.000 N 
ATOM      2  N   UNL     1       4.935   5.647  19.061  0.00  0.00    +0.000 NA
ATOM      3  C   UNL     1       5.902   5.685  18.182  0.00  0.00    +0.000 A 
ATOM      4  N   UNL     1       5.921   4.638  17.322  0.00  0.00    +0.000 N 
ATOM      5  C   UNL     1       4.817   3.895  17.611  0.00  0.00    +0.000 A 
ATOM      6  O   UNL     1       4.461   2.918  16.966  0.00  0.00    +0.000 OA
ENDROOT
BRANCH   1  12
ATOM      7  C   UNL     1       3.412   2.863  20.461  0.00  0.00    +0.000 A 
ATOM      8  C   UNL     1       2.324   2.362  21.208  0.00  0.00    +0.000 A 
ATOM      9  C   UNL     1       1.040   2.877  21.058  0.00  0.00    +0.000 A 
ATOM     10  C   UNL     1       0.833   3.934  20.193  0.00  0.00    +0.000 A 
ATOM     11  C   UNL     1       1.909   4.471  19.486  0.00  0.00    +0.000 A 
ATOM     12  C   UNL     1       3.217   3.951  19.581  0.00  0.00    +0.000 A 
BRANCH   7  14
ATOM     13  C   UNL     1       4.872   1.051  20.070  0.00  0.00    +0.000 C 
ATOM     14  O   UNL     1       4.671   2.343  20.641  0.00  0.00    +0.000 OA
ENDBRANCH   7  14
ENDBRANCH   1  12
BRANCH   3  15
ATOM     15  C   UNL     1       6.892   6.724  18.123  0.00  0.00    +0.000 A 
ATOM     16  C   UNL     1       8.075   6.933  18.806  0.00  0.00    +0.000 A 
ATOM     17  C   UNL     1       8.624   8.153  18.327  0.00  0.00    +0.000 A 
ATOM     18  C   UNL     1       7.737   8.631  17.396  0.00  0.00    +0.000 A 
ATOM     19  O   UNL     1       6.693   7.780  17.265  0.00  0.00    +0.000 OA
ENDBRANCH   3  15
BRANCH   4  20
ATOM     20  C   UNL     1       6.945   4.213  16.381  0.00  0.00    +0.000 C 
BRANCH  20  21
ATOM     21  C   UNL     1       6.609   4.669  14.953  0.00  0.00    +0.000 C 
ATOM     22  O   UNL     1       6.397   5.840  14.645  0.00  0.00    +0.000 OA
ATOM     23  N   UNL     1       6.538   3.623  14.044  0.00  0.00    +0.000 N 
ATOM     24  H   UNL     1       6.685   2.675  14.369  0.00  0.00    +0.000 HD
BRANCH  23  25
ATOM     25  C   UNL     1       6.062   3.806  12.709  0.00  0.00    +0.000 C 
ATOM     26  C   UNL     1       5.951   2.658  11.744  0.00  0.00    +0.000 C 
ATOM     27  C   UNL     1       4.708   3.287  12.299  0.00  0.00    +0.000 C 
ENDBRANCH  23  25
ENDBRANCH  20  21
ENDBRANCH   4  20
TORSDOF 6
ENDMDL
MODEL 2
REMARK VINA RESULT:      -7.8      1.782      4.919
REMARK  Name = 
REMARK  7 active torsions:
REMARK  status: ('A' for Active; 'I' for Inactive)
REMARK    1  A    between atoms: C_1  and  O_2
REMARK    2  A    between atoms: O_2  and  C_3
REMARK    3  A    between atoms: C_8  and  N_9
REMARK    4  A    between atoms: C_11  and  C_12
REMARK    5  A    between atoms: N_17  and  C_18
REMARK    6  A    between atoms: C_18  and  C_19
REMARK    7  A    between atoms: N_21  and  C_22
REMARK                            x       y       z     vdW  Elec       q    Type
REMARK                         _______ _______ _______ _____ _____    ______ ____
ROOT
ATOM      1  N   UNL     1       4.692   4.131  18.367  0.00  0.00    +0.000 N 
ATOM      2  N   UNL     1       4.681   3.938  16.995  0.00  0.00    +0.000 NA
ATOM      3  C   UNL     1       5.820   4.436  16.590  0.00  0.00    +0.000 A 
ATOM      4  N   UNL     1       6.574   4.986  17.573  0.00  0.00    +0.000 N 
ATOM      5  C   UNL     1       5.905   4.749  18.736  0.00  0.00    +0.000 A 
ATOM      6  O   UNL     1       6.342   5.025  19.845  0.00  0.00    +0.000 OA
ENDROOT
BRANCH   1  12
ATOM      7  C   UNL     1       2.401   4.780  19.178  0.00  0.00    +0.000 A 
ATOM      8  C   UNL     1       1.341   4.530  20.077  0.00  0.00    +0.000 A 
ATOM      9  C   UNL     1       1.413   3.509  21.019  0.00  0.00    +0.000 A 
ATOM     10  C   UNL     1       2.526   2.690  21.045  0.00  0.00    +0.000 A 
ATOM     11  C   UNL     1       3.559   2.896  20.129  0.00  0.00    +0.000 A 
ATOM     12  C   UNL     1       3.540   3.944  19.186  0.00  0.00    +0.000 A 
BRANCH   7  14
ATOM     13  C   UNL     1       2.654   7.082  18.728  0.00  0.00    +0.000 C 
ATOM     14  O   UNL     1       2.295   5.787  18.248  0.00  0.00    +0.000 OA
ENDBRANCH   7  14
ENDBRANCH   1  12
BRANCH   3  15
ATOM     15  C   UNL     1       6.253   4.436  15.221  0.00  0.00    +0.000 A 
ATOM     16  C   UNL     1       5.817   3.758  14.099  0.00  0.00    +0.000 A 
ATOM     17  C   UNL     1       6.648   4.159  13.019  0.00  0.00    +0.000 A 
ATOM     18  C   UNL     1       7.558   5.041  13.544  0.00  0.00    +0.000 A 
ATOM     19  O   UNL     1       7.329   5.216  14.866  0.00  0.00    +0.000 OA
ENDBRANCH   3  15
BRANCH   4  20
ATOM     20  C   UNL     1       7.759   5.824  17.490  0.00  0.00    +0.000 C 
BRANCH  20  21
ATOM     21  C   UNL     1       7.391   7.313  17.580  0.00  0.00    +0.000 C 
ATOM     22  O   UNL     1       6.377   7.794  17.079  0.00  0.00    +0.000 OA
ATOM     23  N   UNL     1       8.335   8.073  18.258  0.00  0.00    +0.000 N 
ATOM     24  H   UNL     1       9.169   7.622  18.613  0.00  0.00    +0.000 HD
BRANCH  23  25
ATOM     25  C   UNL     1       8.277   9.500  18.295  0.00  0.00    +0.000 C 
ATOM     26  C   UNL     1       9.063  10.298  19.298  0.00  0.00    +0.000 C 
ATOM     27  C   UNL     1       9.456  10.327  17.852  0.00  0.00    +0.000 C 
ENDBRANCH  23  25
ENDBRANCH  20  21
ENDBRANCH   4  20
TORSDOF 6
ENDMDL
MODEL 3
REMARK VINA RESULT:      -7.7      0.970      1.772
REMARK  Name = 
REMARK  7 active torsions:
REMARK  status: ('A' for Active; 'I' for Inactive)
REMARK    1  A    between atoms: C_1  and  O_2
REMARK    2  A    between atoms: O_2  and  C_3
REMARK    3  A    between atoms: C_8  and  N_9
REMARK    4  A    between atoms: C_11  and  C_12
REMARK    5  A    between atoms: N_17  and  C_18
REMARK    6  A    between atoms: C_18  and  C_19
REMARK    7  A    between atoms: N_21  and  C_22
REMARK                            x       y       z     vdW  Elec       q    Type
REMARK                         _______ _______ _______ _____ _____    ______ ____
ROOT
ATOM      1  N   UNL     1       4.247   4.402  18.754  0.00  0.00    +0.000 N 
ATOM      2  N   UNL     1       4.936   5.556  19.088  0.00  0.00    +0.000 NA
ATOM      3  C   UNL     1       5.923   5.601  18.231  0.00  0.00    +0.000 A 
ATOM      4  N   UNL     1       5.976   4.549  17.379  0.00  0.00    +0.000 N 
ATOM      5  C   UNL     1       4.875   3.793  17.648  0.00  0.00    +0.000 A 
ATOM      6  O   UNL     1       4.547   2.807  17.001  0.00  0.00    +0.000 OA
ENDROOT
BRANCH   1  12
ATOM      7  C   UNL     1       1.853   4.149  19.483  0.00  0.00    +0.000 A 
ATOM      8  C   UNL     1       0.940   3.575  20.395  0.00  0.00    +0.000 A 
ATOM      9  C   UNL     1       1.370   2.751  21.432  0.00  0.00    +0.000 A 
ATOM     10  C   UNL     1       2.714   2.450  21.543  0.00  0.00    +0.000 A 
ATOM     11  C   UNL     1       3.619   2.971  20.619  0.00  0.00    +0.000 A 
ATOM     12  C   UNL     1       3.228   3.841  19.579  0.00  0.00    +0.000 A 
BRANCH   7  14
ATOM     13  C   UNL     1       1.164   4.265  17.229  0.00  0.00    +0.000 C 
ATOM     14  O   UNL     1       1.397   4.947  18.461  0.00  0.00    +0.000 OA
ENDBRANCH   7  14
ENDBRANCH   1  12
BRANCH   3  15
ATOM     15  C   UNL     1       6.900   6.653  18.188  0.00  0.00    +0.000 A 
ATOM     16  C   UNL     1       8.064   6.881  18.897  0.00  0.00    +0.000 A 
ATOM     17  C   UNL     1       8.608   8.105  18.422  0.00  0.00    +0.000 A 
ATOM     18  C   UNL     1       7.737   8.566  17.468  0.00  0.00    +0.000 A 
ATOM     19  O   UNL     1       6.708   7.700  17.318  0.00  0.00    +0.000 OA
ENDBRANCH   3  15
BRANCH   4  20
ATOM     20  C   UNL     1       7.027   4.130  16.466  0.00  0.00    +0.000 C 
BRANCH  20  21
ATOM     21  C   UNL     1       6.711   4.558  15.025  0.00  0.00    +0.000 C 
ATOM     22  O   UNL     1       6.759   5.723  14.635  0.00  0.00    +0.000 OA
ATOM     23  N   UNL     1       6.335   3.501  14.207  0.00  0.00    +0.000 N 
ATOM     24  H   UNL     1       6.278   2.569  14.600  0.00  0.00    +0.000 HD
BRANCH  23  25
ATOM     25  C   UNL     1       5.825   3.704  12.888  0.00  0.00    +0.000 C 
ATOM     26  C   UNL     1       6.719   3.668  11.680  0.00  0.00    +0.000 C 
ATOM     27  C   UNL     1       5.739   2.558  11.913  0.00  0.00    +0.000 C 
ENDBRANCH  23  25
ENDBRANCH  20  21
ENDBRANCH   4  20
TORSDOF 6
ENDMDL
MODEL 4
REMARK VINA RESULT:      -7.7      1.726      4.700
REMARK  Name = 
REMARK  7 active torsions:
REMARK  status: ('A' for Active; 'I' for Inactive)
REMARK    1  A    between atoms: C_1  and  O_2
REMARK    2  A    between atoms: O_2  and  C_3
REMARK    3  A    between atoms: C_8  and  N_9
REMARK    4  A    between atoms: C_11  and  C_12
REMARK    5  A    between atoms: N_17  and  C_18
REMARK    6  A    between atoms: C_18  and  C_19
REMARK    7  A    between atoms: N_21  and  C_22
REMARK                            x       y       z     vdW  Elec       q    Type
REMARK                         _______ _______ _______ _____ _____    ______ ____
ROOT
ATOM      1  N   UNL     1       4.887   4.449  18.513  0.00  0.00    +0.000 N 
ATOM      2  N   UNL     1       4.838   4.197  17.152  0.00  0.00    +0.000 NA
ATOM      3  C   UNL     1       5.967   4.672  16.695  0.00  0.00    +0.000 A 
ATOM      4  N   UNL     1       6.750   5.259  17.633  0.00  0.00    +0.000 N 
ATOM      5  C   UNL     1       6.112   5.076  18.823  0.00  0.00    +0.000 A 
ATOM      6  O   UNL     1       6.580   5.396  19.907  0.00  0.00    +0.000 OA
ENDROOT
BRANCH   1  12
ATOM      7  C   UNL     1       3.271   3.070  19.861  0.00  0.00    +0.000 A 
ATOM      8  C   UNL     1       2.105   3.042  20.657  0.00  0.00    +0.000 A 
ATOM      9  C   UNL     1       1.381   4.200  20.927  0.00  0.00    +0.000 A 
ATOM     10  C   UNL     1       1.840   5.412  20.444  0.00  0.00    +0.000 A 
ATOM     11  C   UNL     1       3.017   5.459  19.698  0.00  0.00    +0.000 A 
ATOM     12  C   UNL     1       3.757   4.303  19.370  0.00  0.00    +0.000 A 
BRANCH   7  14
ATOM     13  C   UNL     1       3.590   1.214  18.439  0.00  0.00    +0.000 C 
ATOM     14  O   UNL     1       3.972   1.912  19.623  0.00  0.00    +0.000 OA
ENDBRANCH   7  14
ENDBRANCH   1  12
BRANCH   3  15
ATOM     15  C   UNL     1       6.363   4.611  15.317  0.00  0.00    +0.000 A 
ATOM     16  C   UNL     1       5.902   3.879  14.239  0.00  0.00    +0.000 A 
ATOM     17  C   UNL     1       6.701   4.235  13.119  0.00  0.00    +0.000 A 
ATOM     18  C   UNL     1       7.619   5.145  13.579  0.00  0.00    +0.000 A 
ATOM     19  O   UNL     1       7.424   5.380  14.898  0.00  0.00    +0.000 OA
ENDBRANCH   3  15
BRANCH   4  20
ATOM     20  C   UNL     1       7.936   6.087  17.483  0.00  0.00    +0.000 C 
BRANCH  20  21
ATOM     21  C   UNL     1       7.587   7.578  17.600  0.00  0.00    +0.000 C 
ATOM     22  O   UNL     1       6.622   8.098  17.042  0.00  0.00    +0.000 OA
ATOM     23  N   UNL     1       8.489   8.295  18.375  0.00  0.00    +0.000 N 
ATOM     24  H   UNL     1       9.287   7.815  18.775  0.00  0.00    +0.000 HD
BRANCH  23  25
ATOM     25  C   UNL     1       8.454   9.721  18.461  0.00  0.00    +0.000 C 
ATOM     26  C   UNL     1       9.282  10.474  19.464  0.00  0.00    +0.000 C 
ATOM     27  C   UNL     1       9.629  10.546  18.007  0.00  0.00    +0.000 C 
ENDBRANCH  23  25
ENDBRANCH  20  21
ENDBRANCH   4  20
TORSDOF 6
ENDMDL
MODEL 5
REMARK VINA RESULT:      -7.6      1.062      1.066
REMARK  Name = 
REMARK  7 active torsions:
REMARK  status: ('A' for Active; 'I' for Inactive)
REMARK    1  A    between atoms: C_1  and  O_2
REMARK    2  A    between atoms: O_2  and  C_3
REMARK    3  A    between atoms: C_8  and  N_9
REMARK    4  A    between atoms: C_11  and  C_12
REMARK    5  A    between atoms: N_17  and  C_18
REMARK    6  A    between atoms: C_18  and  C_19
REMARK    7  A    between atoms: N_21  and  C_22
REMARK                            x       y       z     vdW  Elec       q    Type
REMARK                         _______ _______ _______ _____ _____    ______ ____
ROOT
ATOM      1  N   UNL     1       4.182   4.329  17.668  0.00  0.00    +0.000 N 
ATOM      2  N   UNL     1       4.793   5.431  18.243  0.00  0.00    +0.000 NA
ATOM      3  C   UNL     1       5.910   5.565  17.577  0.00  0.00    +0.000 A 
ATOM      4  N   UNL     1       6.117   4.617  16.631  0.00  0.00    +0.000 N 
ATOM      5  C   UNL     1       4.994   3.845  16.622  0.00  0.00    +0.000 A 
ATOM      6  O   UNL     1       4.791   2.942  15.820  0.00  0.00    +0.000 OA
ENDROOT
BRANCH   1  12
ATOM      7  C   UNL     1       3.092   2.514  19.027  0.00  0.00    +0.000 A 
ATOM      8  C   UNL     1       1.893   1.933  19.493  0.00  0.00    +0.000 A 
ATOM      9  C   UNL     1       0.650   2.455  19.146  0.00  0.00    +0.000 A 
ATOM     10  C   UNL     1       0.589   3.595  18.368  0.00  0.00    +0.000 A 
ATOM     11  C   UNL     1       1.768   4.207  17.943  0.00  0.00    +0.000 A 
ATOM     12  C   UNL     1       3.045   3.686  18.240  0.00  0.00    +0.000 A 
BRANCH   7  14
ATOM     13  C   UNL     1       4.531   1.936  20.806  0.00  0.00    +0.000 C 
ATOM     14  O   UNL     1       4.306   1.985  19.397  0.00  0.00    +0.000 OA
ENDBRANCH   7  14
ENDBRANCH   1  12
BRANCH   3  15
ATOM     15  C   UNL     1       6.869   6.606  17.820  0.00  0.00    +0.000 A 
ATOM     16  C   UNL     1       7.929   6.718  18.699  0.00  0.00    +0.000 A 
ATOM     17  C   UNL     1       8.512   7.997  18.489  0.00  0.00    +0.000 A 
ATOM     18  C   UNL     1       7.763   8.602  17.512  0.00  0.00    +0.000 A 
ATOM     19  O   UNL     1       6.774   7.775  17.101  0.00  0.00    +0.000 OA
ENDBRANCH   3  15
BRANCH   4  20
ATOM     20  C   UNL     1       7.311   4.297  15.867  0.00  0.00    +0.000 C 
BRANCH  20  21
ATOM     21  C   UNL     1       7.093   4.548  14.367  0.00  0.00    +0.000 C 
ATOM     22  O   UNL     1       7.347   5.616  13.812  0.00  0.00    +0.000 OA
ATOM     23  N   UNL     1       6.550   3.458  13.700  0.00  0.00    +0.000 N 
ATOM     24  H   UNL     1       6.327   2.620  14.223  0.00  0.00    +0.000 HD
BRANCH  23  25
ATOM     25  C   UNL     1       6.100   3.543  12.346  0.00  0.00    +0.000 C 
ATOM     26  C   UNL     1       5.680   2.322  11.574  0.00  0.00    +0.000 C 
ATOM     27  C   UNL     1       4.649   3.322  12.004  0.00  0.00    +0.000 C 
ENDBRANCH  23  25
ENDBRANCH  20  21
ENDBRANCH   4  20
TORSDOF 6
ENDMDL
MODEL 6
REMARK VINA RESULT:      -7.5      1.400      1.869
REMARK  Name = 
REMARK  7 active torsions:
REMARK  status: ('A' for Active; 'I' for Inactive)
REMARK    1  A    between atoms: C_1  and  O_2
REMARK    2  A    between atoms: O_2  and  C_3
REMARK    3  A    between atoms: C_8  and  N_9
REMARK    4  A    between atoms: C_11  and  C_12
REMARK    5  A    between atoms: N_17  and  C_18
REMARK    6  A    between atoms: C_18  and  C_19
REMARK    7  A    between atoms: N_21  and  C_22
REMARK                            x       y       z     vdW  Elec       q    Type
REMARK                         _______ _______ _______ _____ _____    ______ ____
ROOT
ATOM      1  N   UNL     1       3.986   4.699  18.060  0.00  0.00    +0.000 N 
ATOM      2  N   UNL     1       4.668   5.821  18.500  0.00  0.00    +0.000 NA
ATOM      3  C   UNL     1       5.800   5.787  17.845  0.00  0.00    +0.000 A 
ATOM      4  N   UNL     1       5.948   4.710  17.035  0.00  0.00    +0.000 N 
ATOM      5  C   UNL     1       4.773   4.025  17.103  0.00  0.00    +0.000 A 
ATOM      6  O   UNL     1       4.513   3.041  16.423  0.00  0.00    +0.000 OA
ENDROOT
BRANCH   1  12
ATOM      7  C   UNL     1       2.215   4.780  19.845  0.00  0.00    +0.000 A 
ATOM      8  C   UNL     1       1.068   4.183  20.412  0.00  0.00    +0.000 A 
ATOM      9  C   UNL     1       0.525   3.012  19.891  0.00  0.00    +0.000 A 
ATOM     10  C   UNL     1       1.092   2.447  18.765  0.00  0.00    +0.000 A 
ATOM     11  C   UNL     1       2.196   3.055  18.166  0.00  0.00    +0.000 A 
ATOM     12  C   UNL     1       2.798   4.219  18.687  0.00  0.00    +0.000 A 
BRANCH   7  14
ATOM     13  C   UNL     1       1.864   7.079  20.245  0.00  0.00    +0.000 C 
ATOM     14  O   UNL     1       2.720   5.944  20.372  0.00  0.00    +0.000 OA
ENDBRANCH   7  14
ENDBRANCH   1  12
BRANCH   3  15
ATOM     15  C   UNL     1       6.829   6.781  17.970  0.00  0.00    +0.000 A 
ATOM     16  C   UNL     1       7.960   6.865  18.758  0.00  0.00    +0.000 A 
ATOM     17  C   UNL     1       8.592   8.101  18.452  0.00  0.00    +0.000 A 
ATOM     18  C   UNL     1       7.800   8.711  17.513  0.00  0.00    +0.000 A 
ATOM     19  O   UNL     1       6.739   7.927  17.214  0.00  0.00    +0.000 OA
ENDBRANCH   3  15
BRANCH   4  20
ATOM     20  C   UNL     1       7.125   4.209  16.345  0.00  0.00    +0.000 C 
BRANCH  20  21
ATOM     21  C   UNL     1       7.066   4.532  14.844  0.00  0.00    +0.000 C 
ATOM     22  O   UNL     1       7.566   5.538  14.344  0.00  0.00    +0.000 OA
ATOM     23  N   UNL     1       6.363   3.589  14.105  0.00  0.00    +0.000 N 
ATOM     24  H   UNL     1       5.941   2.802  14.583  0.00  0.00    +0.000 HD
BRANCH  23  25
ATOM     25  C   UNL     1       6.034   3.793  12.730  0.00  0.00    +0.000 C 
ATOM     26  C   UNL     1       6.944   3.336  11.623  0.00  0.00    +0.000 C 
ATOM     27  C   UNL     1       5.641   2.631  11.855  0.00  0.00    +0.000 C 
ENDBRANCH  23  25
ENDBRANCH  20  21
ENDBRANCH   4  20
TORSDOF 6
ENDMDL
MODEL 7
REMARK VINA RESULT:      -7.4      5.298      7.614
REMARK  Name = 
REMARK  7 active torsions:
REMARK  status: ('A' for Active; 'I' for Inactive)
REMARK    1  A    between atoms: C_1  and  O_2
REMARK    2  A    between atoms: O_2  and  C_3
REMARK    3  A    between atoms: C_8  and  N_9
REMARK    4  A    between atoms: C_11  and  C_12
REMARK    5  A    between atoms: N_17  and  C_18
REMARK    6  A    between atoms: C_18  and  C_19
REMARK    7  A    between atoms: N_21  and  C_22
REMARK                            x       y       z     vdW  Elec       q    Type
REMARK                         _______ _______ _______ _____ _____    ______ ____
ROOT
ATOM      1  N   UNL     1       2.475   7.149  18.656  0.00  0.00    +0.000 N 
ATOM      2  N   UNL     1       2.067   7.136  19.980  0.00  0.00    +0.000 NA
ATOM      3  C   UNL     1       1.506   8.303  20.157  0.00  0.00    +0.000 A 
ATOM      4  N   UNL     1       1.543   9.114  19.071  0.00  0.00    +0.000 N 
ATOM      5  C   UNL     1       2.103   8.377  18.072  0.00  0.00    +0.000 A 
ATOM      6  O   UNL     1       2.208   8.761  16.914  0.00  0.00    +0.000 OA
ENDROOT
BRANCH   1  12
ATOM      7  C   UNL     1       2.945   4.851  17.747  0.00  0.00    +0.000 A 
ATOM      8  C   UNL     1       3.904   3.937  17.259  0.00  0.00    +0.000 A 
ATOM      9  C   UNL     1       5.251   4.275  17.172  0.00  0.00    +0.000 A 
ATOM     10  C   UNL     1       5.653   5.549  17.526  0.00  0.00    +0.000 A 
ATOM     11  C   UNL     1       4.707   6.477  17.962  0.00  0.00    +0.000 A 
ATOM     12  C   UNL     1       3.339   6.161  18.102  0.00  0.00    +0.000 A 
BRANCH   7  14
ATOM     13  C   UNL     1       1.369   3.230  18.421  0.00  0.00    +0.000 C 
ATOM     14  O   UNL     1       1.619   4.494  17.808  0.00  0.00    +0.000 OA
ENDBRANCH   7  14
ENDBRANCH   1  12
BRANCH   3  15
ATOM     15  C   UNL     1       0.913   8.729  21.393  0.00  0.00    +0.000 A 
ATOM     16  C   UNL     1       1.445   9.241  22.561  0.00  0.00    +0.000 A 
ATOM     17  C   UNL     1       0.360   9.466  23.451  0.00  0.00    +0.000 A 
ATOM     18  C   UNL     1      -0.769   9.058  22.787  0.00  0.00    +0.000 A 
ATOM     19  O   UNL     1      -0.448   8.615  21.549  0.00  0.00    +0.000 OA
ENDBRANCH   3  15
BRANCH   4  20
ATOM     20  C   UNL     1       1.245  10.532  18.947  0.00  0.00    +0.000 C 
BRANCH  20  21
ATOM     21  C   UNL     1      -0.256  10.763  18.714  0.00  0.00    +0.000 C 
ATOM     22  O   UNL     1      -0.971  11.412  19.475  0.00  0.00    +0.000 OA
ATOM     23  N   UNL     1      -0.737  10.139  17.570  0.00  0.00    +0.000 N 
ATOM     24  H   UNL     1      -0.104   9.585  17.006  0.00  0.00    +0.000 HD
BRANCH  23  25
ATOM     25  C   UNL     1      -2.133  10.075  17.270  0.00  0.00    +0.000 C 
ATOM     26  C   UNL     1      -2.829  11.167  16.507  0.00  0.00    +0.000 C 
ATOM     27  C   UNL     1      -2.604   9.834  15.859  0.00  0.00    +0.000 C 
ENDBRANCH  23  25
ENDBRANCH  20  21
ENDBRANCH   4  20
TORSDOF 6
ENDMDL
MODEL 8
REMARK VINA RESULT:      -7.3      4.266      6.890
REMARK  Name = 
REMARK  7 active torsions:
REMARK  status: ('A' for Active; 'I' for Inactive)
REMARK    1  A    between atoms: C_1  and  O_2
REMARK    2  A    between atoms: O_2  and  C_3
REMARK    3  A    between atoms: C_8  and  N_9
REMARK    4  A    between atoms: C_11  and  C_12
REMARK    5  A    between atoms: N_17  and  C_18
REMARK    6  A    between atoms: C_18  and  C_19
REMARK    7  A    between atoms: N_21  and  C_22
REMARK                            x       y       z     vdW  Elec       q    Type
REMARK                         _______ _______ _______ _____ _____    ______ ____
ROOT
ATOM      1  N   UNL     1       1.574   8.264  19.826  0.00  0.00    +0.000 N 
ATOM      2  N   UNL     1       1.210   7.195  20.628  0.00  0.00    +0.000 NA
ATOM      3  C   UNL     1       1.769   6.159  20.058  0.00  0.00    +0.000 A 
ATOM      4  N   UNL     1       2.441   6.441  18.916  0.00  0.00    +0.000 N 
ATOM      5  C   UNL     1       2.388   7.795  18.774  0.00  0.00    +0.000 A 
ATOM      6  O   UNL     1       2.974   8.415  17.896  0.00  0.00    +0.000 OA
ENDROOT
BRANCH   1  12
ATOM      7  C   UNL     1       0.781  10.236  21.171  0.00  0.00    +0.000 A 
ATOM      8  C   UNL     1       0.139  11.493  21.175  0.00  0.00    +0.000 A 
ATOM      9  C   UNL     1      -0.348  12.065  20.003  0.00  0.00    +0.000 A 
ATOM     10  C   UNL     1      -0.159  11.409  18.802  0.00  0.00    +0.000 A 
ATOM     11  C   UNL     1       0.517  10.188  18.779  0.00  0.00    +0.000 A 
ATOM     12  C   UNL     1       0.991   9.559  19.949  0.00  0.00    +0.000 A 
BRANCH   7  14
ATOM     13  C   UNL     1       0.273   9.445  23.336  0.00  0.00    +0.000 C 
ATOM     14  O   UNL     1       1.264   9.703  22.342  0.00  0.00    +0.000 OA
ENDBRANCH   7  14
ENDBRANCH   1  12
BRANCH   3  15
ATOM     15  C   UNL     1       1.675   4.818  20.564  0.00  0.00    +0.000 A 
ATOM     16  C   UNL     1       0.846   3.756  20.258  0.00  0.00    +0.000 A 
ATOM     17  C   UNL     1       1.219   2.678  21.105  0.00  0.00    +0.000 A 
ATOM     18  C   UNL     1       2.238   3.147  21.895  0.00  0.00    +0.000 A 
ATOM     19  O   UNL     1       2.522   4.431  21.577  0.00  0.00    +0.000 OA
ENDBRANCH   3  15
BRANCH   4  20
ATOM     20  C   UNL     1       2.980   5.553  17.899  0.00  0.00    +0.000 C 
BRANCH  20  21
ATOM     21  C   UNL     1       4.293   4.908  18.367  0.00  0.00    +0.000 C 
ATOM     22  O   UNL     1       4.388   3.733  18.717  0.00  0.00    +0.000 OA
ATOM     23  N   UNL     1       5.364   5.792  18.386  0.00  0.00    +0.000 N 
ATOM     24  H   UNL     1       5.211   6.758  18.123  0.00  0.00    +0.000 HD
BRANCH  23  25
ATOM     25  C   UNL     1       6.626   5.445  18.960  0.00  0.00    +0.000 C 
ATOM     26  C   UNL     1       7.762   4.931  18.120  0.00  0.00    +0.000 C 
ATOM     27  C   UNL     1       7.840   6.304  18.719  0.00  0.00    +0.000 C 
ENDBRANCH  23  25
ENDBRANCH  20  21
ENDBRANCH   4  20
TORSDOF 6
ENDMDL
MODEL 9
REMARK VINA RESULT:      -7.3      1.645      4.587
REMARK  Name = 
REMARK  7 active torsions:
REMARK  status: ('A' for Active; 'I' for Inactive)
REMARK    1  A    between atoms: C_1  and  O_2
REMARK    2  A    between atoms: O_2  and  C_3
REMARK    3  A    between atoms: C_8  and  N_9
REMARK    4  A    between atoms: C_11  and  C_12
REMARK    5  A    between atoms: N_17  and  C_18
REMARK    6  A    between atoms: C_18  and  C_19
REMARK    7  A    between atoms: N_21  and  C_22
REMARK                            x       y       z     vdW  Elec       q    Type
REMARK                         _______ _______ _______ _____ _____    ______ ____
ROOT
ATOM      1  N   UNL     1       4.664   3.845  17.671  0.00  0.00    +0.000 N 
ATOM      2  N   UNL     1       4.775   3.766  16.293  0.00  0.00    +0.000 NA
ATOM      3  C   UNL     1       5.929   4.321  16.030  0.00  0.00    +0.000 A 
ATOM      4  N   UNL     1       6.581   4.804  17.116  0.00  0.00    +0.000 N 
ATOM      5  C   UNL     1       5.823   4.456  18.193  0.00  0.00    +0.000 A 
ATOM      6  O   UNL     1       6.155   4.648  19.356  0.00  0.00    +0.000 OA
ENDROOT
BRANCH   1  12
ATOM      7  C   UNL     1       3.225   2.419  19.163  0.00  0.00    +0.000 A 
ATOM      8  C   UNL     1       1.962   2.218  19.760  0.00  0.00    +0.000 A 
ATOM      9  C   UNL     1       0.906   3.097  19.539  0.00  0.00    +0.000 A 
ATOM     10  C   UNL     1       1.111   4.217  18.756  0.00  0.00    +0.000 A 
ATOM     11  C   UNL     1       2.369   4.453  18.200  0.00  0.00    +0.000 A 
ATOM     12  C   UNL     1       3.452   3.565  18.369  0.00  0.00    +0.000 A 
BRANCH   7  14
ATOM     13  C   UNL     1       4.859   1.678  20.697  0.00  0.00    +0.000 C 
ATOM     14  O   UNL     1       4.254   1.542  19.411  0.00  0.00    +0.000 OA
ENDBRANCH   7  14
ENDBRANCH   1  12
BRANCH   3  15
ATOM     15  C   UNL     1       6.477   4.445  14.709  0.00  0.00    +0.000 A 
ATOM     16  C   UNL     1       6.192   3.816  13.512  0.00  0.00    +0.000 A 
ATOM     17  C   UNL     1       7.081   4.347  12.538  0.00  0.00    +0.000 A 
ATOM     18  C   UNL     1       7.872   5.253  13.198  0.00  0.00    +0.000 A 
ATOM     19  O   UNL     1       7.518   5.321  14.502  0.00  0.00    +0.000 OA
ENDBRANCH   3  15
BRANCH   4  20
ATOM     20  C   UNL     1       7.744   5.671  17.206  0.00  0.00    +0.000 C 
BRANCH  20  21
ATOM     21  C   UNL     1       7.327   7.135  17.417  0.00  0.00    +0.000 C 
ATOM     22  O   UNL     1       6.292   7.620  16.965  0.00  0.00    +0.000 OA
ATOM     23  N   UNL     1       8.252   7.871  18.146  0.00  0.00    +0.000 N 
ATOM     24  H   UNL     1       9.105   7.422  18.457  0.00  0.00    +0.000 HD
BRANCH  23  25
ATOM     25  C   UNL     1       8.147   9.288  18.297  0.00  0.00    +0.000 C 
ATOM     26  C   UNL     1       9.035  10.051  19.241  0.00  0.00    +0.000 C 
ATOM     27  C   UNL     1       9.221  10.198  17.760  0.00  0.00    +0.000 C 
ENDBRANCH  23  25
ENDBRANCH  20  21
ENDBRANCH   4  20
TORSDOF 6
ENDMDL
