MODEL 1
REMARK VINA RESULT:      -8.6      0.000      0.000
REMARK  Name = 
REMARK  12 active torsions:
REMARK  status: ('A' for Active; 'I' for Inactive)
REMARK    1  A    between atoms: C_1  and  C_2
REMARK    2  A    between atoms: C_2  and  N_3
REMARK    3  A    between atoms: N_3  and  C_4
REMARK    4  A    between atoms: C_4  and  C_5
REMARK    5  A    between atoms: C_8  and  C_9
REMARK    6  A    between atoms: C_9  and  C_10
REMARK    7  A    between atoms: C_10  and  C_11
REMARK    8  A    between atoms: C_11  and  O_13
REMARK    9  A    between atoms: C_16  and  C_18
REMARK   10  A    between atoms: C_22  and  C_23
REMARK   11  A    between atoms: C_23  and  N_24
REMARK   12  A    between atoms: C_25  and  C_27
REMARK                            x       y       z     vdW  Elec       q    Type
REMARK                         _______ _______ _______ _____ _____    ______ ____
ROOT
ATOM      1  N   UNL     1       3.749   3.840  18.125  0.00  0.00    +0.000 N 
ATOM      2  C   UNL     1       2.446   4.340  18.341  0.00  0.00    +0.000 C 
ATOM      3  O   UNL     1       1.428   3.723  18.027  0.00  0.00    +0.000 OA
ENDROOT
BRANCH   2   4
ATOM      4  C   UNL     1       2.200   5.667  18.972  0.00  0.00    +0.000 A 
ATOM      5  C   UNL     1       2.053   5.716  20.369  0.00  0.00    +0.000 A 
ATOM      6  C   UNL     1       1.810   6.928  21.018  0.00  0.00    +0.000 A 
ATOM      7  C   UNL     1       1.735   8.106  20.281  0.00  0.00    +0.000 A 
ATOM      8  C   UNL     1       1.843   8.070  18.887  0.00  0.00    +0.000 A 
ATOM      9  C   UNL     1       2.029   6.840  18.241  0.00  0.00    +0.000 A 
BRANCH   8  10
ATOM     10  C   UNL     1       1.841   9.343  18.090  0.00  0.00    +0.000 C 
BRANCH  10  11
ATOM     11  N   UNL     1       0.503   9.681  17.668  0.00  0.00    +0.000 N 
ATOM     12  C   UNL     1      -0.324  10.489  18.415  0.00  0.00    +0.000 C 
ATOM     13  O   UNL     1       0.016  11.050  19.448  0.00  0.00    +0.000 OA
ATOM     14  H   UNL     1       0.188   9.301  16.788  0.00  0.00    +0.000 HD
BRANCH  12  15
ATOM     15  C   UNL     1      -1.688  10.699  17.861  0.00  0.00    +0.000 A 
ATOM     16  C   UNL     1      -2.625  11.526  18.495  0.00  0.00    +0.000 A 
ATOM     17  C   UNL     1      -3.900  11.684  17.951  0.00  0.00    +0.000 A 
ATOM     18  C   UNL     1      -4.240  11.027  16.768  0.00  0.00    +0.000 A 
ATOM     19  C   UNL     1      -3.304  10.221  16.120  0.00  0.00    +0.000 A 
ATOM     20  C   UNL     1      -2.028  10.060  16.663  0.00  0.00    +0.000 A 
ENDBRANCH  12  15
ENDBRANCH  10  11
ENDBRANCH   8  10
ENDBRANCH   2   4
BRANCH   1  22
ATOM     21  C   UNL     1       3.708   1.262  18.324  0.00  0.00    +0.000 C 
ATOM     22  C   UNL     1       3.918   2.523  17.486  0.00  0.00    +0.000 C 
ENDBRANCH   1  22
BRANCH   1  23
ATOM     23  C   UNL     1       4.900   4.252  18.958  0.00  0.00    +0.000 C 
BRANCH  23  24
ATOM     24  C   UNL     1       5.823   5.327  18.403  0.00  0.00    +0.000 A 
ATOM     25  C   UNL     1       5.495   6.172  17.337  0.00  0.00    +0.000 A 
ATOM     26  C   UNL     1       6.298   7.281  17.030  0.00  0.00    +0.000 A 
ATOM     27  C   UNL     1       7.445   7.570  17.782  0.00  0.00    +0.000 A 
ATOM     28  C   UNL     1       7.850   6.649  18.752  0.00  0.00    +0.000 A 
ATOM     29  C   UNL     1       7.052   5.539  19.054  0.00  0.00    +0.000 A 
BRANCH  27  30
ATOM     30  C   UNL     1       8.208   8.865  17.594  0.00  0.00    +0.000 C 
BRANCH  30  31
ATOM     31  C   UNL     1       8.910   9.349  18.870  0.00  0.00    +0.000 C 
BRANCH  31  32
ATOM     32  C   UNL     1       9.340  10.789  18.770  0.00  0.00    +0.000 C 
ATOM     33  O   UNL     1       8.986  11.559  17.889  0.00  0.00    +0.000 OA
BRANCH  32  34
ATOM     34  O   UNL     1      10.139  11.178  19.789  0.00  0.00    +0.000 OA
ATOM     35  H   UNL     1      11.093  11.185  19.585  0.00  0.00    +0.000 HD
ENDBRANCH  32  34
ENDBRANCH  31  32
ENDBRANCH  30  31
ENDBRANCH  27  30
ENDBRANCH  23  24
ENDBRANCH   1  23
TORSDOF 11
ENDMDL
MODEL 2
REMARK VINA RESULT:      -8.1      2.154      2.760
REMARK  Name = 
REMARK  12 active torsions:
REMARK  status: ('A' for Active; 'I' for Inactive)
REMARK    1  A    between atoms: C_1  and  C_2
REMARK    2  A    between atoms: C_2  and  N_3
REMARK    3  A    between atoms: N_3  and  C_4
REMARK    4  A    between atoms: C_4  and  C_5
REMARK    5  A    between atoms: C_8  and  C_9
REMARK    6  A    between atoms: C_9  and  C_10
REMARK    7  A    between atoms: C_10  and  C_11
REMARK    8  A    between atoms: C_11  and  O_13
REMARK    9  A    between atoms: C_16  and  C_18
REMARK   10  A    between atoms: C_22  and  C_23
REMARK   11  A    between atoms: C_23  and  N_24
REMARK   12  A    between atoms: C_25  and  C_27
REMARK                            x       y       z     vdW  Elec       q    Type
REMARK                         _______ _______ _______ _____ _____    ______ ____
ROOT
ATOM      1  N   UNL     1       3.724   4.041  18.053  0.00  0.00    +0.000 N 
ATOM      2  C   UNL     1       2.461   4.672  18.050  0.00  0.00    +0.000 C 
ATOM      3  O   UNL     1       1.426   4.103  17.703  0.00  0.00    +0.000 OA
ENDROOT
BRANCH   2   4
ATOM      4  C   UNL     1       2.282   6.090  18.469  0.00  0.00    +0.000 A 
ATOM      5  C   UNL     1       2.510   7.094  17.512  0.00  0.00    +0.000 A 
ATOM      6  C   UNL     1       2.369   8.442  17.846  0.00  0.00    +0.000 A 
ATOM      7  C   UNL     1       1.976   8.800  19.132  0.00  0.00    +0.000 A 
ATOM      8  C   UNL     1       1.780   7.816  20.106  0.00  0.00    +0.000 A 
ATOM      9  C   UNL     1       1.980   6.469  19.775  0.00  0.00    +0.000 A 
BRANCH   8  10
ATOM     10  C   UNL     1       1.280   8.186  21.473  0.00  0.00    +0.000 C 
BRANCH  10  11
ATOM     11  N   UNL     1       0.392   9.321  21.403  0.00  0.00    +0.000 N 
ATOM     12  C   UNL     1      -0.070   9.968  22.527  0.00  0.00    +0.000 C 
ATOM     13  O   UNL     1       0.283   9.697  23.667  0.00  0.00    +0.000 OA
ATOM     14  H   UNL     1       0.117   9.635  20.484  0.00  0.00    +0.000 HD
BRANCH  12  15
ATOM     15  C   UNL     1      -1.016  11.088  22.281  0.00  0.00    +0.000 A 
ATOM     16  C   UNL     1      -1.744  11.683  23.320  0.00  0.00    +0.000 A 
ATOM     17  C   UNL     1      -2.634  12.723  23.044  0.00  0.00    +0.000 A 
ATOM     18  C   UNL     1      -2.790  13.179  21.735  0.00  0.00    +0.000 A 
ATOM     19  C   UNL     1      -2.050  12.605  20.700  0.00  0.00    +0.000 A 
ATOM     20  C   UNL     1      -1.161  11.565  20.972  0.00  0.00    +0.000 A 
ENDBRANCH  12  15
ENDBRANCH  10  11
ENDBRANCH   8  10
ENDBRANCH   2   4
BRANCH   1  22
ATOM     21  C   UNL     1       3.504   1.525  18.614  0.00  0.00    +0.000 C 
ATOM     22  C   UNL     1       3.828   2.637  17.616  0.00  0.00    +0.000 C 
ENDBRANCH   1  22
BRANCH   1  23
ATOM     23  C   UNL     1       4.818   4.469  18.952  0.00  0.00    +0.000 C 
BRANCH  23  24
ATOM     24  C   UNL     1       5.828   5.469  18.407  0.00  0.00    +0.000 A 
ATOM     25  C   UNL     1       5.599   6.296  17.301  0.00  0.00    +0.000 A 
ATOM     26  C   UNL     1       6.480   7.344  16.997  0.00  0.00    +0.000 A 
ATOM     27  C   UNL     1       7.610   7.589  17.791  0.00  0.00    +0.000 A 
ATOM     28  C   UNL     1       7.915   6.677  18.806  0.00  0.00    +0.000 A 
ATOM     29  C   UNL     1       7.038   5.628  19.105  0.00  0.00    +0.000 A 
BRANCH  27  30
ATOM     30  C   UNL     1       8.458   8.829  17.598  0.00  0.00    +0.000 C 
BRANCH  30  31
ATOM     31  C   UNL     1       8.879   9.489  18.917  0.00  0.00    +0.000 C 
BRANCH  31  32
ATOM     32  C   UNL     1       9.505  10.842  18.700  0.00  0.00    +0.000 C 
ATOM     33  O   UNL     1      10.196  11.140  17.737  0.00  0.00    +0.000 OA
BRANCH  32  34
ATOM     34  O   UNL     1       9.193  11.735  19.667  0.00  0.00    +0.000 OA
ATOM     35  H   UNL     1       8.558  12.426  19.401  0.00  0.00    +0.000 HD
ENDBRANCH  32  34
ENDBRANCH  31  32
ENDBRANCH  30  31
ENDBRANCH  27  30
ENDBRANCH  23  24
ENDBRANCH   1  23
TORSDOF 11
ENDMDL
MODEL 3
REMARK VINA RESULT:      -8.1      1.372      1.853
REMARK  Name = 
REMARK  12 active torsions:
REMARK  status: ('A' for Active; 'I' for Inactive)
REMARK    1  A    between atoms: C_1  and  C_2
REMARK    2  A    between atoms: C_2  and  N_3
REMARK    3  A    between atoms: N_3  and  C_4
REMARK    4  A    between atoms: C_4  and  C_5
REMARK    5  A    between atoms: C_8  and  C_9
REMARK    6  A    between atoms: C_9  and  C_10
REMARK    7  A    between atoms: C_10  and  C_11
REMARK    8  A    between atoms: C_11  and  O_13
REMARK    9  A    between atoms: C_16  and  C_18
REMARK   10  A    between atoms: C_22  and  C_23
REMARK   11  A    between atoms: C_23  and  N_24
REMARK   12  A    between atoms: C_25  and  C_27
REMARK                            x       y       z     vdW  Elec       q    Type
REMARK                         _______ _______ _______ _____ _____    ______ ____
ROOT
ATOM      1  N   UNL     1       4.934   4.341  17.210  0.00  0.00    +0.000 N 
ATOM      2  C   UNL     1       3.563   4.107  17.456  0.00  0.00    +0.000 C 
ATOM      3  O   UNL     1       2.879   3.343  16.774  0.00  0.00    +0.000 OA
ENDROOT
BRANCH   2   4
ATOM      4  C   UNL     1       2.832   4.773  18.569  0.00  0.00    +0.000 A 
ATOM      5  C   UNL     1       2.113   3.963  19.465  0.00  0.00    +0.000 A 
ATOM      6  C   UNL     1       1.399   4.529  20.522  0.00  0.00    +0.000 A 
ATOM      7  C   UNL     1       1.414   5.908  20.709  0.00  0.00    +0.000 A 
ATOM      8  C   UNL     1       2.094   6.731  19.806  0.00  0.00    +0.000 A 
ATOM      9  C   UNL     1       2.760   6.157  18.715  0.00  0.00    +0.000 A 
BRANCH   8  10
ATOM     10  C   UNL     1       2.182   8.212  20.044  0.00  0.00    +0.000 C 
BRANCH  10  11
ATOM     11  N   UNL     1       0.942   8.860  19.692  0.00  0.00    +0.000 N 
ATOM     12  C   UNL     1       0.823   9.680  18.592  0.00  0.00    +0.000 C 
ATOM     13  O   UNL     1       1.718   9.872  17.781  0.00  0.00    +0.000 OA
ATOM     14  H   UNL     1       0.146   8.687  20.288  0.00  0.00    +0.000 HD
BRANCH  12  15
ATOM     15  C   UNL     1      -0.511  10.308  18.400  0.00  0.00    +0.000 A 
ATOM     16  C   UNL     1      -0.907  11.441  19.122  0.00  0.00    +0.000 A 
ATOM     17  C   UNL     1      -2.174  11.991  18.922  0.00  0.00    +0.000 A 
ATOM     18  C   UNL     1      -3.044  11.419  17.993  0.00  0.00    +0.000 A 
ATOM     19  C   UNL     1      -2.647  10.305  17.254  0.00  0.00    +0.000 A 
ATOM     20  C   UNL     1      -1.381   9.752  17.453  0.00  0.00    +0.000 A 
ENDBRANCH  12  15
ENDBRANCH  10  11
ENDBRANCH   8  10
ENDBRANCH   2   4
BRANCH   1  22
ATOM     21  C   UNL     1       5.507   4.271  14.689  0.00  0.00    +0.000 C 
ATOM     22  C   UNL     1       5.591   3.653  16.084  0.00  0.00    +0.000 C 
ENDBRANCH   1  22
BRANCH   1  23
ATOM     23  C   UNL     1       5.866   4.762  18.279  0.00  0.00    +0.000 C 
BRANCH  23  24
ATOM     24  C   UNL     1       6.687   6.021  18.042  0.00  0.00    +0.000 A 
ATOM     25  C   UNL     1       6.343   7.026  17.130  0.00  0.00    +0.000 A 
ATOM     26  C   UNL     1       7.021   8.254  17.130  0.00  0.00    +0.000 A 
ATOM     27  C   UNL     1       8.057   8.505  18.039  0.00  0.00    +0.000 A 
ATOM     28  C   UNL     1       8.495   7.454  18.850  0.00  0.00    +0.000 A 
ATOM     29  C   UNL     1       7.822   6.227  18.846  0.00  0.00    +0.000 A 
BRANCH  27  30
ATOM     30  C   UNL     1       8.663   9.886  18.186  0.00  0.00    +0.000 C 
BRANCH  30  31
ATOM     31  C   UNL     1       9.306  10.126  19.558  0.00  0.00    +0.000 C 
BRANCH  31  32
ATOM     32  C   UNL     1       9.761  11.551  19.730  0.00  0.00    +0.000 C 
ATOM     33  O   UNL     1       9.094  12.532  19.440  0.00  0.00    +0.000 OA
BRANCH  32  34
ATOM     34  O   UNL     1      10.990  11.654  20.286  0.00  0.00    +0.000 OA
ATOM     35  H   UNL     1      11.734  11.583  19.659  0.00  0.00    +0.000 HD
ENDBRANCH  32  34
ENDBRANCH  31  32
ENDBRANCH  30  31
ENDBRANCH  27  30
ENDBRANCH  23  24
ENDBRANCH   1  23
TORSDOF 11
ENDMDL
MODEL 4
REMARK VINA RESULT:      -8.0      2.917      5.780
REMARK  Name = 
REMARK  12 active torsions:
REMARK  status: ('A' for Active; 'I' for Inactive)
REMARK    1  A    between atoms: C_1  and  C_2
REMARK    2  A    between atoms: C_2  and  N_3
REMARK    3  A    between atoms: N_3  and  C_4
REMARK    4  A    between atoms: C_4  and  C_5
REMARK    5  A    between atoms: C_8  and  C_9
REMARK    6  A    between atoms: C_9  and  C_10
REMARK    7  A    between atoms: C_10  and  C_11
REMARK    8  A    between atoms: C_11  and  O_13
REMARK    9  A    between atoms: C_16  and  C_18
REMARK   10  A    between atoms: C_22  and  C_23
REMARK   11  A    between atoms: C_23  and  N_24
REMARK   12  A    between atoms: C_25  and  C_27
REMARK                            x       y       z     vdW  Elec       q    Type
REMARK                         _______ _______ _______ _____ _____    ______ ____
ROOT
ATOM      1  N   UNL     1       5.940   5.044  16.208  0.00  0.00    +0.000 N 
ATOM      2  C   UNL     1       5.860   6.186  17.035  0.00  0.00    +0.000 C 
ATOM      3  O   UNL     1       6.781   6.994  17.157  0.00  0.00    +0.000 OA
ENDROOT
BRANCH   2   4
ATOM      4  C   UNL     1       4.643   6.503  17.833  0.00  0.00    +0.000 A 
ATOM      5  C   UNL     1       4.400   5.749  18.993  0.00  0.00    +0.000 A 
ATOM      6  C   UNL     1       3.271   5.991  19.778  0.00  0.00    +0.000 A 
ATOM      7  C   UNL     1       2.386   7.005  19.424  0.00  0.00    +0.000 A 
ATOM      8  C   UNL     1       2.594   7.741  18.253  0.00  0.00    +0.000 A 
ATOM      9  C   UNL     1       3.699   7.451  17.442  0.00  0.00    +0.000 A 
BRANCH   8  10
ATOM     10  C   UNL     1       1.689   8.889  17.904  0.00  0.00    +0.000 C 
BRANCH  10  11
ATOM     11  N   UNL     1       1.094   9.450  19.093  0.00  0.00    +0.000 N 
ATOM     12  C   UNL     1      -0.100  10.135  19.068  0.00  0.00    +0.000 C 
ATOM     13  O   UNL     1      -0.796  10.263  18.069  0.00  0.00    +0.000 OA
ATOM     14  H   UNL     1       1.589   9.319  19.962  0.00  0.00    +0.000 HD
BRANCH  12  15
ATOM     15  C   UNL     1      -0.550  10.691  20.371  0.00  0.00    +0.000 A 
ATOM     16  C   UNL     1      -0.242  10.068  21.587  0.00  0.00    +0.000 A 
ATOM     17  C   UNL     1      -0.697  10.614  22.788  0.00  0.00    +0.000 A 
ATOM     18  C   UNL     1      -1.450  11.789  22.780  0.00  0.00    +0.000 A 
ATOM     19  C   UNL     1      -1.739  12.427  21.573  0.00  0.00    +0.000 A 
ATOM     20  C   UNL     1      -1.287  11.882  20.371  0.00  0.00    +0.000 A 
ENDBRANCH  12  15
ENDBRANCH  10  11
ENDBRANCH   8  10
ENDBRANCH   2   4
BRANCH   1  22
ATOM     21  C   UNL     1       7.172   4.956  13.935  0.00  0.00    +0.000 C 
ATOM     22  C   UNL     1       7.180   4.787  15.454  0.00  0.00    +0.000 C 
ENDBRANCH   1  22
BRANCH   1  23
ATOM     23  C   UNL     1       4.740   4.412  15.617  0.00  0.00    +0.000 C 
BRANCH  23  24
ATOM     24  C   UNL     1       3.854   3.585  16.537  0.00  0.00    +0.000 A 
ATOM     25  C   UNL     1       4.311   2.518  17.320  0.00  0.00    +0.000 A 
ATOM     26  C   UNL     1       3.490   1.953  18.307  0.00  0.00    +0.000 A 
ATOM     27  C   UNL     1       2.195   2.440  18.533  0.00  0.00    +0.000 A 
ATOM     28  C   UNL     1       1.689   3.405  17.658  0.00  0.00    +0.000 A 
ATOM     29  C   UNL     1       2.507   3.965  16.670  0.00  0.00    +0.000 A 
BRANCH  27  30
ATOM     30  C   UNL     1       1.372   1.978  19.719  0.00  0.00    +0.000 C 
BRANCH  30  31
ATOM     31  C   UNL     1       1.091   3.093  20.735  0.00  0.00    +0.000 C 
BRANCH  31  32
ATOM     32  C   UNL     1       2.196   3.225  21.751  0.00  0.00    +0.000 C 
ATOM     33  O   UNL     1       2.876   2.297  22.161  0.00  0.00    +0.000 OA
BRANCH  32  34
ATOM     34  O   UNL     1       2.402   4.501  22.150  0.00  0.00    +0.000 OA
ATOM     35  H   UNL     1       2.799   4.596  23.036  0.00  0.00    +0.000 HD
ENDBRANCH  32  34
ENDBRANCH  31  32
ENDBRANCH  30  31
ENDBRANCH  27  30
ENDBRANCH  23  24
ENDBRANCH   1  23
TORSDOF 11
ENDMDL
MODEL 5
REMARK VINA RESULT:      -8.0      1.301      2.142
REMARK  Name = 
REMARK  12 active torsions:
REMARK  status: ('A' for Active; 'I' for Inactive)
REMARK    1  A    between atoms: C_1  and  C_2
REMARK    2  A    between atoms: C_2  and  N_3
REMARK    3  A    between atoms: N_3  and  C_4
REMARK    4  A    between atoms: C_4  and  C_5
REMARK    5  A    between atoms: C_8  and  C_9
REMARK    6  A    between atoms: C_9  and  C_10
REMARK    7  A    between atoms: C_10  and  C_11
REMARK    8  A    between atoms: C_11  and  O_13
REMARK    9  A    between atoms: C_16  and  C_18
REMARK   10  A    between atoms: C_22  and  C_23
REMARK   11  A    between atoms: C_23  and  N_24
REMARK   12  A    between atoms: C_25  and  C_27
REMARK                            x       y       z     vdW  Elec       q    Type
REMARK                         _______ _______ _______ _____ _____    ______ ____
ROOT
ATOM      1  N   UNL     1       4.707   4.059  17.005  0.00  0.00    +0.000 N 
ATOM      2  C   UNL     1       3.322   3.989  17.270  0.00  0.00    +0.000 C 
ATOM      3  O   UNL     1       2.526   3.398  16.538  0.00  0.00    +0.000 OA
ENDROOT
BRANCH   2   4
ATOM      4  C   UNL     1       2.709   4.632  18.465  0.00  0.00    +0.000 A 
ATOM      5  C   UNL     1       2.115   3.801  19.430  0.00  0.00    +0.000 A 
ATOM      6  C   UNL     1       1.514   4.344  20.567  0.00  0.00    +0.000 A 
ATOM      7  C   UNL     1       1.522   5.721  20.764  0.00  0.00    +0.000 A 
ATOM      8  C   UNL     1       2.077   6.565  19.797  0.00  0.00    +0.000 A 
ATOM      9  C   UNL     1       2.626   6.013  18.632  0.00  0.00    +0.000 A 
BRANCH   8  10
ATOM     10  C   UNL     1       2.162   8.046  20.037  0.00  0.00    +0.000 C 
BRANCH  10  11
ATOM     11  N   UNL     1       0.933   8.697  19.651  0.00  0.00    +0.000 N 
ATOM     12  C   UNL     1       0.882   9.650  18.659  0.00  0.00    +0.000 C 
ATOM     13  O   UNL     1       1.841   9.974  17.970  0.00  0.00    +0.000 OA
ATOM     14  H   UNL     1       0.093   8.422  20.138  0.00  0.00    +0.000 HD
BRANCH  12  15
ATOM     15  C   UNL     1      -0.454  10.257  18.417  0.00  0.00    +0.000 A 
ATOM     16  C   UNL     1      -1.325   9.763  17.438  0.00  0.00    +0.000 A 
ATOM     17  C   UNL     1      -2.564  10.371  17.233  0.00  0.00    +0.000 A 
ATOM     18  C   UNL     1      -2.942  11.464  18.012  0.00  0.00    +0.000 A 
ATOM     19  C   UNL     1      -2.089  11.946  19.005  0.00  0.00    +0.000 A 
ATOM     20  C   UNL     1      -0.848  11.341  19.211  0.00  0.00    +0.000 A 
ENDBRANCH  12  15
ENDBRANCH  10  11
ENDBRANCH   8  10
ENDBRANCH   2   4
BRANCH   1  22
ATOM     21  C   UNL     1       5.693   4.277  14.624  0.00  0.00    +0.000 C 
ATOM     22  C   UNL     1       5.243   3.407  15.797  0.00  0.00    +0.000 C 
ENDBRANCH   1  22
BRANCH   1  23
ATOM     23  C   UNL     1       5.707   4.239  18.080  0.00  0.00    +0.000 C 
BRANCH  23  24
ATOM     24  C   UNL     1       6.377   5.601  18.198  0.00  0.00    +0.000 A 
ATOM     25  C   UNL     1       7.524   5.850  18.961  0.00  0.00    +0.000 A 
ATOM     26  C   UNL     1       8.211   7.067  18.842  0.00  0.00    +0.000 A 
ATOM     27  C   UNL     1       7.768   8.062  17.959  0.00  0.00    +0.000 A 
ATOM     28  C   UNL     1       6.546   7.871  17.307  0.00  0.00    +0.000 A 
ATOM     29  C   UNL     1       5.858   6.658  17.430  0.00  0.00    +0.000 A 
BRANCH  27  30
ATOM     30  C   UNL     1       8.602   9.293  17.671  0.00  0.00    +0.000 C 
BRANCH  30  31
ATOM     31  C   UNL     1       9.174   9.950  18.935  0.00  0.00    +0.000 C 
BRANCH  31  32
ATOM     32  C   UNL     1       9.523  11.398  18.713  0.00  0.00    +0.000 C 
ATOM     33  O   UNL     1      10.006  11.845  17.684  0.00  0.00    +0.000 OA
BRANCH  32  34
ATOM     34  O   UNL     1       9.209  12.189  19.765  0.00  0.00    +0.000 OA
ATOM     35  H   UNL     1       9.430  13.133  19.651  0.00  0.00    +0.000 HD
ENDBRANCH  32  34
ENDBRANCH  31  32
ENDBRANCH  30  31
ENDBRANCH  27  30
ENDBRANCH  23  24
ENDBRANCH   1  23
TORSDOF 11
ENDMDL
MODEL 6
REMARK VINA RESULT:      -7.9      2.227      8.313
REMARK  Name = 
REMARK  12 active torsions:
REMARK  status: ('A' for Active; 'I' for Inactive)
REMARK    1  A    between atoms: C_1  and  C_2
REMARK    2  A    between atoms: C_2  and  N_3
REMARK    3  A    between atoms: N_3  and  C_4
REMARK    4  A    between atoms: C_4  and  C_5
REMARK    5  A    between atoms: C_8  and  C_9
REMARK    6  A    between atoms: C_9  and  C_10
REMARK    7  A    between atoms: C_10  and  C_11
REMARK    8  A    between atoms: C_11  and  O_13
REMARK    9  A    between atoms: C_16  and  C_18
REMARK   10  A    between atoms: C_22  and  C_23
REMARK   11  A    between atoms: C_23  and  N_24
REMARK   12  A    between atoms: C_25  and  C_27
REMARK                            x       y       z     vdW  Elec       q    Type
REMARK                         _______ _______ _______ _____ _____    ______ ____
ROOT
ATOM      1  N   UNL     1       3.525   5.046  18.297  0.00  0.00    +0.000 N 
ATOM      2  C   UNL     1       4.635   5.231  17.445  0.00  0.00    +0.000 C 
ATOM      3  O   UNL     1       4.633   4.908  16.257  0.00  0.00    +0.000 OA
ENDROOT
BRANCH   2   4
ATOM      4  C   UNL     1       5.909   5.838  17.923  0.00  0.00    +0.000 A 
ATOM      5  C   UNL     1       6.644   5.145  18.899  0.00  0.00    +0.000 A 
ATOM      6  C   UNL     1       7.840   5.667  19.395  0.00  0.00    +0.000 A 
ATOM      7  C   UNL     1       8.326   6.875  18.903  0.00  0.00    +0.000 A 
ATOM      8  C   UNL     1       7.589   7.595  17.958  0.00  0.00    +0.000 A 
ATOM      9  C   UNL     1       6.361   7.090  17.509  0.00  0.00    +0.000 A 
BRANCH   8  10
ATOM     10  C   UNL     1       8.142   8.859  17.363  0.00  0.00    +0.000 C 
BRANCH  10  11
ATOM     11  N   UNL     1       8.257   9.888  18.367  0.00  0.00    +0.000 N 
ATOM     12  C   UNL     1       9.316  10.767  18.405  0.00  0.00    +0.000 C 
ATOM     13  O   UNL     1      10.203  10.809  17.562  0.00  0.00    +0.000 OA
ATOM     14  H   UNL     1       7.519   9.948  19.053  0.00  0.00    +0.000 HD
BRANCH  12  15
ATOM     15  C   UNL     1       9.308  11.736  19.533  0.00  0.00    +0.000 A 
ATOM     16  C   UNL     1       9.221  13.118  19.320  0.00  0.00    +0.000 A 
ATOM     17  C   UNL     1       9.231  13.995  20.406  0.00  0.00    +0.000 A 
ATOM     18  C   UNL     1       9.316  13.495  21.706  0.00  0.00    +0.000 A 
ATOM     19  C   UNL     1       9.380  12.118  21.924  0.00  0.00    +0.000 A 
ATOM     20  C   UNL     1       9.371  11.239  20.840  0.00  0.00    +0.000 A 
ENDBRANCH  12  15
ENDBRANCH  10  11
ENDBRANCH   8  10
ENDBRANCH   2   4
BRANCH   1  22
ATOM     21  C   UNL     1       2.039   2.946  18.021  0.00  0.00    +0.000 C 
ATOM     22  C   UNL     1       2.299   4.429  17.758  0.00  0.00    +0.000 C 
ENDBRANCH   1  22
BRANCH   1  23
ATOM     23  C   UNL     1       3.293   5.893  19.487  0.00  0.00    +0.000 C 
BRANCH  23  24
ATOM     24  C   UNL     1       2.423   7.130  19.313  0.00  0.00    +0.000 A 
ATOM     25  C   UNL     1       1.674   7.716  20.341  0.00  0.00    +0.000 A 
ATOM     26  C   UNL     1       1.081   8.975  20.164  0.00  0.00    +0.000 A 
ATOM     27  C   UNL     1       1.222   9.675  18.958  0.00  0.00    +0.000 A 
ATOM     28  C   UNL     1       1.846   9.029  17.886  0.00  0.00    +0.000 A 
ATOM     29  C   UNL     1       2.433   7.770  18.062  0.00  0.00    +0.000 A 
BRANCH  27  30
ATOM     30  C   UNL     1       0.761  11.111  18.819  0.00  0.00    +0.000 C 
BRANCH  30  31
ATOM     31  C   UNL     1      -0.752  11.285  19.007  0.00  0.00    +0.000 C 
BRANCH  31  32
ATOM     32  C   UNL     1      -1.516  11.019  17.737  0.00  0.00    +0.000 C 
ATOM     33  O   UNL     1      -1.893   9.916  17.372  0.00  0.00    +0.000 OA
BRANCH  32  34
ATOM     34  O   UNL     1      -1.793  12.143  17.037  0.00  0.00    +0.000 OA
ATOM     35  H   UNL     1      -1.881  12.953  17.574  0.00  0.00    +0.000 HD
ENDBRANCH  32  34
ENDBRANCH  31  32
ENDBRANCH  30  31
ENDBRANCH  27  30
ENDBRANCH  23  24
ENDBRANCH   1  23
TORSDOF 11
ENDMDL
MODEL 7
REMARK VINA RESULT:      -7.7      3.529      4.788
REMARK  Name = 
REMARK  12 active torsions:
REMARK  status: ('A' for Active; 'I' for Inactive)
REMARK    1  A    between atoms: C_1  and  C_2
REMARK    2  A    between atoms: C_2  and  N_3
REMARK    3  A    between atoms: N_3  and  C_4
REMARK    4  A    between atoms: C_4  and  C_5
REMARK    5  A    between atoms: C_8  and  C_9
REMARK    6  A    between atoms: C_9  and  C_10
REMARK    7  A    between atoms: C_10  and  C_11
REMARK    8  A    between atoms: C_11  and  O_13
REMARK    9  A    between atoms: C_16  and  C_18
REMARK   10  A    between atoms: C_22  and  C_23
REMARK   11  A    between atoms: C_23  and  N_24
REMARK   12  A    between atoms: C_25  and  C_27
REMARK                            x       y       z     vdW  Elec       q    Type
REMARK                         _______ _______ _______ _____ _____    ______ ____
ROOT
ATOM      1  N   UNL     1       3.649   4.608  19.527  0.00  0.00    +0.000 N 
ATOM      2  C   UNL     1       2.443   5.136  20.037  0.00  0.00    +0.000 C 
ATOM      3  O   UNL     1       1.617   4.458  20.649  0.00  0.00    +0.000 OA
ENDROOT
BRANCH   2   4
ATOM      4  C   UNL     1       2.072   6.569  19.870  0.00  0.00    +0.000 A 
ATOM      5  C   UNL     1       2.145   7.124  18.581  0.00  0.00    +0.000 A 
ATOM      6  C   UNL     1       1.820   8.464  18.362  0.00  0.00    +0.000 A 
ATOM      7  C   UNL     1       1.396   9.256  19.424  0.00  0.00    +0.000 A 
ATOM      8  C   UNL     1       1.352   8.730  20.719  0.00  0.00    +0.000 A 
ATOM      9  C   UNL     1       1.735   7.400  20.937  0.00  0.00    +0.000 A 
BRANCH   8  10
ATOM     10  C   UNL     1       0.822   9.553  21.858  0.00  0.00    +0.000 C 
BRANCH  10  11
ATOM     11  N   UNL     1      -0.409  10.208  21.486  0.00  0.00    +0.000 N 
ATOM     12  C   UNL     1      -0.578  11.572  21.582  0.00  0.00    +0.000 C 
ATOM     13  O   UNL     1       0.307  12.350  21.912  0.00  0.00    +0.000 OA
ATOM     14  H   UNL     1      -1.156   9.625  21.140  0.00  0.00    +0.000 HD
BRANCH  12  15
ATOM     15  C   UNL     1      -1.922  12.081  21.203  0.00  0.00    +0.000 A 
ATOM     16  C   UNL     1      -2.782  12.668  22.140  0.00  0.00    +0.000 A 
ATOM     17  C   UNL     1      -4.043  13.120  21.746  0.00  0.00    +0.000 A 
ATOM     18  C   UNL     1      -4.443  12.999  20.416  0.00  0.00    +0.000 A 
ATOM     19  C   UNL     1      -3.582  12.436  19.473  0.00  0.00    +0.000 A 
ATOM     20  C   UNL     1      -2.321  11.982  19.864  0.00  0.00    +0.000 A 
ENDBRANCH  12  15
ENDBRANCH  10  11
ENDBRANCH   8  10
ENDBRANCH   2   4
BRANCH   1  22
ATOM     21  C   UNL     1       3.633   2.196  18.592  0.00  0.00    +0.000 C 
ATOM     22  C   UNL     1       3.947   3.177  19.721  0.00  0.00    +0.000 C 
ENDBRANCH   1  22
BRANCH   1  23
ATOM     23  C   UNL     1       4.850   5.444  19.317  0.00  0.00    +0.000 C 
BRANCH  23  24
ATOM     24  C   UNL     1       5.517   5.390  17.950  0.00  0.00    +0.000 A 
ATOM     25  C   UNL     1       6.659   4.634  17.661  0.00  0.00    +0.000 A 
ATOM     26  C   UNL     1       7.081   4.455  16.335  0.00  0.00    +0.000 A 
ATOM     27  C   UNL     1       6.372   5.027  15.270  0.00  0.00    +0.000 A 
ATOM     28  C   UNL     1       5.319   5.898  15.567  0.00  0.00    +0.000 A 
ATOM     29  C   UNL     1       4.903   6.081  16.891  0.00  0.00    +0.000 A 
BRANCH  27  30
ATOM     30  C   UNL     1       6.694   4.683  13.830  0.00  0.00    +0.000 C 
BRANCH  30  31
ATOM     31  C   UNL     1       5.787   3.590  13.248  0.00  0.00    +0.000 C 
BRANCH  31  32
ATOM     32  C   UNL     1       6.388   2.946  12.027  0.00  0.00    +0.000 C 
ATOM     33  O   UNL     1       7.419   3.314  11.484  0.00  0.00    +0.000 OA
BRANCH  32  34
ATOM     34  O   UNL     1       5.692   1.869  11.595  0.00  0.00    +0.000 OA
ATOM     35  H   UNL     1       5.997   1.494  10.748  0.00  0.00    +0.000 HD
ENDBRANCH  32  34
ENDBRANCH  31  32
ENDBRANCH  30  31
ENDBRANCH  27  30
ENDBRANCH  23  24
ENDBRANCH   1  23
TORSDOF 11
ENDMDL
MODEL 8
REMARK VINA RESULT:      -7.7      3.242      4.135
REMARK  Name = 
REMARK  12 active torsions:
REMARK  status: ('A' for Active; 'I' for Inactive)
REMARK    1  A    between atoms: C_1  and  C_2
REMARK    2  A    between atoms: C_2  and  N_3
REMARK    3  A    between atoms: N_3  and  C_4
REMARK    4  A    between atoms: C_4  and  C_5
REMARK    5  A    between atoms: C_8  and  C_9
REMARK    6  A    between atoms: C_9  and  C_10
REMARK    7  A    between atoms: C_10  and  C_11
REMARK    8  A    between atoms: C_11  and  O_13
REMARK    9  A    between atoms: C_16  and  C_18
REMARK   10  A    between atoms: C_22  and  C_23
REMARK   11  A    between atoms: C_23  and  N_24
REMARK   12  A    between atoms: C_25  and  C_27
REMARK                            x       y       z     vdW  Elec       q    Type
REMARK                         _______ _______ _______ _____ _____    ______ ____
ROOT
ATOM      1  N   UNL     1       3.226   4.942  19.573  0.00  0.00    +0.000 N 
ATOM      2  C   UNL     1       2.061   5.430  20.204  0.00  0.00    +0.000 C 
ATOM      3  O   UNL     1       1.219   4.696  20.723  0.00  0.00    +0.000 OA
ENDROOT
BRANCH   2   4
ATOM      4  C   UNL     1       1.756   6.885  20.291  0.00  0.00    +0.000 A 
ATOM      5  C   UNL     1       1.607   7.453  21.568  0.00  0.00    +0.000 A 
ATOM      6  C   UNL     1       1.311   8.809  21.715  0.00  0.00    +0.000 A 
ATOM      7  C   UNL     1       1.183   9.616  20.589  0.00  0.00    +0.000 A 
ATOM      8  C   UNL     1       1.292   9.061  19.310  0.00  0.00    +0.000 A 
ATOM      9  C   UNL     1       1.533   7.687  19.173  0.00  0.00    +0.000 A 
BRANCH   8  10
ATOM     10  C   UNL     1       1.235   9.937  18.091  0.00  0.00    +0.000 C 
BRANCH  10  11
ATOM     11  N   UNL     1      -0.133  10.174  17.697  0.00  0.00    +0.000 N 
ATOM     12  C   UNL     1      -0.864  11.240  18.171  0.00  0.00    +0.000 C 
ATOM     13  O   UNL     1      -0.408  12.114  18.897  0.00  0.00    +0.000 OA
ATOM     14  H   UNL     1      -0.544   9.523  17.045  0.00  0.00    +0.000 HD
BRANCH  12  15
ATOM     15  C   UNL     1      -2.273  11.313  17.703  0.00  0.00    +0.000 A 
ATOM     16  C   UNL     1      -3.315  11.708  18.552  0.00  0.00    +0.000 A 
ATOM     17  C   UNL     1      -4.627  11.748  18.077  0.00  0.00    +0.000 A 
ATOM     18  C   UNL     1      -4.900  11.406  16.753  0.00  0.00    +0.000 A 
ATOM     19  C   UNL     1      -3.864  11.034  15.896  0.00  0.00    +0.000 A 
ATOM     20  C   UNL     1      -2.551  10.992  16.369  0.00  0.00    +0.000 A 
ENDBRANCH  12  15
ENDBRANCH  10  11
ENDBRANCH   8  10
ENDBRANCH   2   4
BRANCH   1  22
ATOM     21  C   UNL     1       3.109   2.731  18.234  0.00  0.00    +0.000 C 
ATOM     22  C   UNL     1       3.458   3.487  19.516  0.00  0.00    +0.000 C 
ENDBRANCH   1  22
BRANCH   1  23
ATOM     23  C   UNL     1       4.461   5.749  19.464  0.00  0.00    +0.000 C 
BRANCH  23  24
ATOM     24  C   UNL     1       5.259   5.645  18.172  0.00  0.00    +0.000 A 
ATOM     25  C   UNL     1       6.449   4.921  18.038  0.00  0.00    +0.000 A 
ATOM     26  C   UNL     1       7.003   4.686  16.771  0.00  0.00    +0.000 A 
ATOM     27  C   UNL     1       6.382   5.168  15.611  0.00  0.00    +0.000 A 
ATOM     28  C   UNL     1       5.276   6.011  15.755  0.00  0.00    +0.000 A 
ATOM     29  C   UNL     1       4.726   6.250  17.020  0.00  0.00    +0.000 A 
BRANCH  27  30
ATOM     30  C   UNL     1       6.854   4.758  14.231  0.00  0.00    +0.000 C 
BRANCH  30  31
ATOM     31  C   UNL     1       5.871   3.831  13.503  0.00  0.00    +0.000 C 
BRANCH  31  32
ATOM     32  C   UNL     1       6.414   3.356  12.181  0.00  0.00    +0.000 C 
ATOM     33  O   UNL     1       6.064   2.331  11.615  0.00  0.00    +0.000 OA
BRANCH  32  34
ATOM     34  O   UNL     1       7.317   4.206  11.639  0.00  0.00    +0.000 OA
ATOM     35  H   UNL     1       7.042   5.142  11.621  0.00  0.00    +0.000 HD
ENDBRANCH  32  34
ENDBRANCH  31  32
ENDBRANCH  30  31
ENDBRANCH  27  30
ENDBRANCH  23  24
ENDBRANCH   1  23
TORSDOF 11
ENDMDL
MODEL 9
REMARK VINA RESULT:      -7.7      1.917      2.678
REMARK  Name = 
REMARK  12 active torsions:
REMARK  status: ('A' for Active; 'I' for Inactive)
REMARK    1  A    between atoms: C_1  and  C_2
REMARK    2  A    between atoms: C_2  and  N_3
REMARK    3  A    between atoms: N_3  and  C_4
REMARK    4  A    between atoms: C_4  and  C_5
REMARK    5  A    between atoms: C_8  and  C_9
REMARK    6  A    between atoms: C_9  and  C_10
REMARK    7  A    between atoms: C_10  and  C_11
REMARK    8  A    between atoms: C_11  and  O_13
REMARK    9  A    between atoms: C_16  and  C_18
REMARK   10  A    between atoms: C_22  and  C_23
REMARK   11  A    between atoms: C_23  and  N_24
REMARK   12  A    between atoms: C_25  and  C_27
REMARK                            x       y       z     vdW  Elec       q    Type
REMARK                         _______ _______ _______ _____ _____    ______ ____
ROOT
ATOM      1  N   UNL     1       3.724   4.185  18.193  0.00  0.00    +0.000 N 
ATOM      2  C   UNL     1       2.439   4.771  18.164  0.00  0.00    +0.000 C 
ATOM      3  O   UNL     1       1.429   4.160  17.812  0.00  0.00    +0.000 OA
ENDROOT
BRANCH   2   4
ATOM      4  C   UNL     1       2.205   6.187  18.559  0.00  0.00    +0.000 A 
ATOM      5  C   UNL     1       2.291   7.173  17.561  0.00  0.00    +0.000 A 
ATOM      6  C   UNL     1       2.092   8.520  17.870  0.00  0.00    +0.000 A 
ATOM      7  C   UNL     1       1.782   8.893  19.174  0.00  0.00    +0.000 A 
ATOM      8  C   UNL     1       1.727   7.929  20.186  0.00  0.00    +0.000 A 
ATOM      9  C   UNL     1       1.985   6.587  19.875  0.00  0.00    +0.000 A 
BRANCH   8  10
ATOM     10  C   UNL     1       1.315   8.310  21.580  0.00  0.00    +0.000 C 
BRANCH  10  11
ATOM     11  N   UNL     1       0.179   9.199  21.552  0.00  0.00    +0.000 N 
ATOM     12  C   UNL     1       0.311  10.568  21.628  0.00  0.00    +0.000 C 
ATOM     13  O   UNL     1       1.386  11.152  21.648  0.00  0.00    +0.000 OA
ATOM     14  H   UNL     1      -0.734   8.778  21.469  0.00  0.00    +0.000 HD
BRANCH  12  15
ATOM     15  C   UNL     1      -0.961  11.337  21.635  0.00  0.00    +0.000 A 
ATOM     16  C   UNL     1      -1.529  11.839  20.457  0.00  0.00    +0.000 A 
ATOM     17  C   UNL     1      -2.717  12.570  20.509  0.00  0.00    +0.000 A 
ATOM     18  C   UNL     1      -3.347  12.790  21.733  0.00  0.00    +0.000 A 
ATOM     19  C   UNL     1      -2.799  12.273  22.907  0.00  0.00    +0.000 A 
ATOM     20  C   UNL     1      -1.610  11.543  22.859  0.00  0.00    +0.000 A 
ENDBRANCH  12  15
ENDBRANCH  10  11
ENDBRANCH   8  10
ENDBRANCH   2   4
BRANCH   1  22
ATOM     21  C   UNL     1       3.525   1.670  18.768  0.00  0.00    +0.000 C 
ATOM     22  C   UNL     1       3.883   2.779  17.778  0.00  0.00    +0.000 C 
ENDBRANCH   1  22
BRANCH   1  23
ATOM     23  C   UNL     1       4.789   4.664  19.100  0.00  0.00    +0.000 C 
BRANCH  23  24
ATOM     24  C   UNL     1       5.833   5.609  18.523  0.00  0.00    +0.000 A 
ATOM     25  C   UNL     1       5.614   6.448  17.424  0.00  0.00    +0.000 A 
ATOM     26  C   UNL     1       6.541   7.448  17.092  0.00  0.00    +0.000 A 
ATOM     27  C   UNL     1       7.705   7.632  17.850  0.00  0.00    +0.000 A 
ATOM     28  C   UNL     1       7.993   6.705  18.856  0.00  0.00    +0.000 A 
ATOM     29  C   UNL     1       7.071   5.704  19.183  0.00  0.00    +0.000 A 
BRANCH  27  30
ATOM     30  C   UNL     1       8.612   8.825  17.630  0.00  0.00    +0.000 C 
BRANCH  30  31
ATOM     31  C   UNL     1       8.766   9.710  18.874  0.00  0.00    +0.000 C 
BRANCH  31  32
ATOM     32  C   UNL     1       9.543  10.967  18.583  0.00  0.00    +0.000 C 
ATOM     33  O   UNL     1      10.731  11.120  18.825  0.00  0.00    +0.000 OA
BRANCH  32  34
ATOM     34  O   UNL     1       8.802  11.923  17.977  0.00  0.00    +0.000 OA
ATOM     35  H   UNL     1       9.276  12.757  17.794  0.00  0.00    +0.000 HD
ENDBRANCH  32  34
ENDBRANCH  31  32
ENDBRANCH  30  31
ENDBRANCH  27  30
ENDBRANCH  23  24
ENDBRANCH   1  23
TORSDOF 11
ENDMDL
