MODEL 1
REMARK VINA RESULT:      -7.2      0.000      0.000
REMARK  Name = 
REMARK  2 active torsions:
REMARK  status: ('A' for Active; 'I' for Inactive)
REMARK    1  A    between atoms: C_3  and  N_4
REMARK    2  A    between atoms: C_10  and  C_11
REMARK                            x       y       z     vdW  Elec       q    Type
REMARK                         _______ _______ _______ _____ _____    ______ ____
ROOT
ATOM      1  N   UNL     1       4.039   5.335  18.632  0.00  0.00    +0.000 N 
ATOM      2  N   UNL     1       3.577   4.660  19.726  0.00  0.00    +0.000 NA
ATOM      3  N   UNL     1       2.774   5.477  20.422  0.00  0.00    +0.000 NA
ATOM      4  C   UNL     1       2.657   6.621  19.692  0.00  0.00    +0.000 A 
ATOM      5  C   UNL     1       1.870   7.709  19.963  0.00  0.00    +0.000 A 
ATOM      6  S   UNL     1       0.916   7.946  21.307  0.00  0.00    +0.000 S 
ATOM      7  C   UNL     1       0.444   9.467  20.644  0.00  0.00    +0.000 A 
ATOM      8  N   UNL     1       0.973   9.784  19.475  0.00  0.00    +0.000 NA
ATOM      9  C   UNL     1       1.790   8.764  19.069  0.00  0.00    +0.000 A 
ATOM     10  C   UNL     1       2.513   8.685  17.863  0.00  0.00    +0.000 A 
ATOM     11  C   UNL     1       3.322   7.573  17.574  0.00  0.00    +0.000 A 
ATOM     12  C   UNL     1       3.406   6.559  18.536  0.00  0.00    +0.000 A 
ENDROOT
BRANCH   1  15
ATOM     13  C   UNL     1       5.451   3.976  15.525  0.00  0.00    +0.000 A 
ATOM     14  C   UNL     1       4.494   4.270  16.484  0.00  0.00    +0.000 A 
ATOM     15  C   UNL     1       4.946   4.794  17.690  0.00  0.00    +0.000 A 
ATOM     16  C   UNL     1       6.323   4.887  17.931  0.00  0.00    +0.000 A 
ATOM     17  C   UNL     1       7.194   4.561  16.910  0.00  0.00    +0.000 A 
ATOM     18  N   UNL     1       6.784   4.128  15.704  0.00  0.00    +0.000 NA
ENDBRANCH   1  15
BRANCH   7  19
ATOM     19  C   UNL     1      -0.457  10.422  21.277  0.00  0.00    +0.000 C 
ATOM     20  N   UNL     1      -0.618  10.505  22.577  0.00  0.00    +0.000 NA
ATOM     21  C   UNL     1      -1.581  11.633  22.756  0.00  0.00    +0.000 C 
ATOM     22  C   UNL     1      -1.627  12.378  21.422  0.00  0.00    +0.000 C 
ATOM     23  N   UNL     1      -1.181  11.344  20.537  0.00  0.00    +0.000 N 
ATOM     24  H   UNL     1      -0.765  11.588  19.645  0.00  0.00    +0.000 HD
ENDBRANCH   7  19
TORSDOF 2
ENDMDL
MODEL 2
REMARK VINA RESULT:      -7.2      1.275      1.670
REMARK  Name = 
REMARK  2 active torsions:
REMARK  status: ('A' for Active; 'I' for Inactive)
REMARK    1  A    between atoms: C_3  and  N_4
REMARK    2  A    between atoms: C_10  and  C_11
REMARK                            x       y       z     vdW  Elec       q    Type
REMARK                         _______ _______ _______ _____ _____    ______ ____
ROOT
ATOM      1  N   UNL     1       3.025   6.344  18.752  0.00  0.00    +0.000 N 
ATOM      2  N   UNL     1       2.652   5.712  19.903  0.00  0.00    +0.000 NA
ATOM      3  N   UNL     1       1.966   6.579  20.662  0.00  0.00    +0.000 NA
ATOM      4  C   UNL     1       1.825   7.715  19.922  0.00  0.00    +0.000 A 
ATOM      5  C   UNL     1       1.122   8.844  20.250  0.00  0.00    +0.000 A 
ATOM      6  S   UNL     1       0.330   9.152  21.681  0.00  0.00    +0.000 S 
ATOM      7  C   UNL     1      -0.140  10.681  21.037  0.00  0.00    +0.000 A 
ATOM      8  N   UNL     1       0.275  10.951  19.811  0.00  0.00    +0.000 NA
ATOM      9  C   UNL     1       0.996   9.885  19.345  0.00  0.00    +0.000 A 
ATOM     10  C   UNL     1       1.582   9.749  18.071  0.00  0.00    +0.000 A 
ATOM     11  C   UNL     1       2.303   8.595  17.724  0.00  0.00    +0.000 A 
ATOM     12  C   UNL     1       2.443   7.595  18.695  0.00  0.00    +0.000 A 
ENDROOT
BRANCH   1  15
ATOM     13  C   UNL     1       5.722   5.684  16.346  0.00  0.00    +0.000 A 
ATOM     14  C   UNL     1       4.876   6.418  17.164  0.00  0.00    +0.000 A 
ATOM     15  C   UNL     1       3.801   5.743  17.732  0.00  0.00    +0.000 A 
ATOM     16  C   UNL     1       3.548   4.415  17.368  0.00  0.00    +0.000 A 
ATOM     17  C   UNL     1       4.448   3.776  16.539  0.00  0.00    +0.000 A 
ATOM     18  N   UNL     1       5.542   4.378  16.038  0.00  0.00    +0.000 NA
ENDBRANCH   1  15
BRANCH   7  19
ATOM     19  C   UNL     1      -0.923  11.690  21.739  0.00  0.00    +0.000 C 
ATOM     20  N   UNL     1      -0.702  12.031  22.988  0.00  0.00    +0.000 NA
ATOM     21  C   UNL     1      -1.698  13.110  23.255  0.00  0.00    +0.000 C 
ATOM     22  C   UNL     1      -2.226  13.559  21.893  0.00  0.00    +0.000 C 
ATOM     23  N   UNL     1      -1.939  12.393  21.111  0.00  0.00    +0.000 N 
ATOM     24  H   UNL     1      -1.838  12.472  20.106  0.00  0.00    +0.000 HD
ENDBRANCH   7  19
TORSDOF 2
ENDMDL
MODEL 3
REMARK VINA RESULT:      -7.2      1.996      3.397
REMARK  Name = 
REMARK  2 active torsions:
REMARK  status: ('A' for Active; 'I' for Inactive)
REMARK    1  A    between atoms: C_3  and  N_4
REMARK    2  A    between atoms: C_10  and  C_11
REMARK                            x       y       z     vdW  Elec       q    Type
REMARK                         _______ _______ _______ _____ _____    ______ ____
ROOT
ATOM      1  N   UNL     1       2.218   7.923  18.364  0.00  0.00    +0.000 N 
ATOM      2  N   UNL     1       2.079   8.967  17.495  0.00  0.00    +0.000 NA
ATOM      3  N   UNL     1       1.393   9.943  18.108  0.00  0.00    +0.000 NA
ATOM      4  C   UNL     1       1.208   9.537  19.395  0.00  0.00    +0.000 A 
ATOM      5  C   UNL     1       0.633  10.242  20.419  0.00  0.00    +0.000 A 
ATOM      6  S   UNL     1      -0.068  11.750  20.329  0.00  0.00    +0.000 S 
ATOM      7  C   UNL     1      -0.403  11.642  22.018  0.00  0.00    +0.000 A 
ATOM      8  N   UNL     1      -0.011  10.533  22.622  0.00  0.00    +0.000 NA
ATOM      9  C   UNL     1       0.601   9.724  21.703  0.00  0.00    +0.000 A 
ATOM     10  C   UNL     1       1.194   8.469  21.941  0.00  0.00    +0.000 A 
ATOM     11  C   UNL     1       1.788   7.738  20.899  0.00  0.00    +0.000 A 
ATOM     12  C   UNL     1       1.747   8.287  19.611  0.00  0.00    +0.000 A 
ENDROOT
BRANCH   1  15
ATOM     13  C   UNL     1       2.785   4.371  17.618  0.00  0.00    +0.000 A 
ATOM     14  C   UNL     1       2.181   5.492  18.168  0.00  0.00    +0.000 A 
ATOM     15  C   UNL     1       2.855   6.702  18.042  0.00  0.00    +0.000 A 
ATOM     16  C   UNL     1       4.142   6.722  17.489  0.00  0.00    +0.000 A 
ATOM     17  C   UNL     1       4.658   5.548  16.977  0.00  0.00    +0.000 A 
ATOM     18  N   UNL     1       3.996   4.378  17.010  0.00  0.00    +0.000 NA
ENDBRANCH   1  15
BRANCH   7  19
ATOM     19  C   UNL     1      -1.096  12.652  22.808  0.00  0.00    +0.000 C 
ATOM     20  N   UNL     1      -0.495  13.702  23.319  0.00  0.00    +0.000 NA
ATOM     21  C   UNL     1      -1.592  14.460  23.992  0.00  0.00    +0.000 C 
ATOM     22  C   UNL     1      -2.905  13.881  23.465  0.00  0.00    +0.000 C 
ATOM     23  N   UNL     1      -2.460  12.587  23.040  0.00  0.00    +0.000 N 
ATOM     24  H   UNL     1      -2.984  12.080  22.336  0.00  0.00    +0.000 HD
ENDBRANCH   7  19
TORSDOF 2
ENDMDL
MODEL 4
REMARK VINA RESULT:      -7.1      0.697      1.084
REMARK  Name = 
REMARK  2 active torsions:
REMARK  status: ('A' for Active; 'I' for Inactive)
REMARK    1  A    between atoms: C_3  and  N_4
REMARK    2  A    between atoms: C_10  and  C_11
REMARK                            x       y       z     vdW  Elec       q    Type
REMARK                         _______ _______ _______ _____ _____    ______ ____
ROOT
ATOM      1  N   UNL     1       3.806   5.929  18.391  0.00  0.00    +0.000 N 
ATOM      2  N   UNL     1       3.470   5.194  19.492  0.00  0.00    +0.000 NA
ATOM      3  N   UNL     1       2.685   5.942  20.280  0.00  0.00    +0.000 NA
ATOM      4  C   UNL     1       2.450   7.102  19.605  0.00  0.00    +0.000 A 
ATOM      5  C   UNL     1       1.633   8.136  19.979  0.00  0.00    +0.000 A 
ATOM      6  S   UNL     1       0.781   8.276  21.402  0.00  0.00    +0.000 S 
ATOM      7  C   UNL     1       0.178   9.790  20.836  0.00  0.00    +0.000 A 
ATOM      8  N   UNL     1       0.593  10.174  19.641  0.00  0.00    +0.000 NA
ATOM      9  C   UNL     1       1.426   9.214  19.134  0.00  0.00    +0.000 A 
ATOM     10  C   UNL     1       2.052   9.215  17.872  0.00  0.00    +0.000 A 
ATOM     11  C   UNL     1       2.891   8.159  17.478  0.00  0.00    +0.000 A 
ATOM     12  C   UNL     1       3.105   7.120  18.392  0.00  0.00    +0.000 A 
ENDROOT
BRANCH   1  15
ATOM     13  C   UNL     1       6.706   5.555  16.167  0.00  0.00    +0.000 A 
ATOM     14  C   UNL     1       5.806   6.181  17.016  0.00  0.00    +0.000 A 
ATOM     15  C   UNL     1       4.661   5.471  17.360  0.00  0.00    +0.000 A 
ATOM     16  C   UNL     1       4.406   4.233  16.755  0.00  0.00    +0.000 A 
ATOM     17  C   UNL     1       5.365   3.700  15.917  0.00  0.00    +0.000 A 
ATOM     18  N   UNL     1       6.520   4.326  15.628  0.00  0.00    +0.000 NA
ENDBRANCH   1  15
BRANCH   7  19
ATOM     19  C   UNL     1      -0.716  10.673  21.574  0.00  0.00    +0.000 C 
ATOM     20  N   UNL     1      -0.966  10.535  22.856  0.00  0.00    +0.000 NA
ATOM     21  C   UNL     1      -1.881  11.672  23.175  0.00  0.00    +0.000 C 
ATOM     22  C   UNL     1      -1.794  12.642  21.997  0.00  0.00    +0.000 C 
ATOM     23  N   UNL     1      -1.338  11.754  20.969  0.00  0.00    +0.000 N 
ATOM     24  H   UNL     1      -0.847  12.125  20.163  0.00  0.00    +0.000 HD
ENDBRANCH   7  19
TORSDOF 2
ENDMDL
MODEL 5
REMARK VINA RESULT:      -7.1      1.301      1.441
REMARK  Name = 
REMARK  2 active torsions:
REMARK  status: ('A' for Active; 'I' for Inactive)
REMARK    1  A    between atoms: C_3  and  N_4
REMARK    2  A    between atoms: C_10  and  C_11
REMARK                            x       y       z     vdW  Elec       q    Type
REMARK                         _______ _______ _______ _____ _____    ______ ____
ROOT
ATOM      1  N   UNL     1       3.132   6.232  18.828  0.00  0.00    +0.000 N 
ATOM      2  N   UNL     1       2.735   5.590  19.966  0.00  0.00    +0.000 NA
ATOM      3  N   UNL     1       2.020   6.446  20.711  0.00  0.00    +0.000 NA
ATOM      4  C   UNL     1       1.886   7.584  19.973  0.00  0.00    +0.000 A 
ATOM      5  C   UNL     1       1.163   8.704  20.288  0.00  0.00    +0.000 A 
ATOM      6  S   UNL     1       0.330   8.995  21.700  0.00  0.00    +0.000 S 
ATOM      7  C   UNL     1      -0.140  10.522  21.051  0.00  0.00    +0.000 A 
ATOM      8  N   UNL     1       0.305  10.804  19.838  0.00  0.00    +0.000 NA
ATOM      9  C   UNL     1       1.049   9.748  19.386  0.00  0.00    +0.000 A 
ATOM     10  C   UNL     1       1.670   9.626  18.127  0.00  0.00    +0.000 A 
ATOM     11  C   UNL     1       2.412   8.481  17.793  0.00  0.00    +0.000 A 
ATOM     12  C   UNL     1       2.537   7.478  18.762  0.00  0.00    +0.000 A 
ENDROOT
BRANCH   1  15
ATOM     13  C   UNL     1       4.489   3.841  16.392  0.00  0.00    +0.000 A 
ATOM     14  C   UNL     1       3.839   4.290  17.532  0.00  0.00    +0.000 A 
ATOM     15  C   UNL     1       3.940   5.646  17.826  0.00  0.00    +0.000 A 
ATOM     16  C   UNL     1       4.774   6.461  17.050  0.00  0.00    +0.000 A 
ATOM     17  C   UNL     1       5.383   5.914  15.939  0.00  0.00    +0.000 A 
ATOM     18  N   UNL     1       5.239   4.625  15.582  0.00  0.00    +0.000 NA
ENDBRANCH   1  15
BRANCH   7  19
ATOM     19  C   UNL     1      -0.952  11.519  21.737  0.00  0.00    +0.000 C 
ATOM     20  N   UNL     1      -0.773  11.849  22.996  0.00  0.00    +0.000 NA
ATOM     21  C   UNL     1      -1.785  12.919  23.242  0.00  0.00    +0.000 C 
ATOM     22  C   UNL     1      -2.273  13.377  21.868  0.00  0.00    +0.000 C 
ATOM     23  N   UNL     1      -1.953  12.221  21.085  0.00  0.00    +0.000 N 
ATOM     24  H   UNL     1      -1.820  12.310  20.084  0.00  0.00    +0.000 HD
ENDBRANCH   7  19
TORSDOF 2
ENDMDL
MODEL 6
REMARK VINA RESULT:      -7.0      1.978      3.492
REMARK  Name = 
REMARK  2 active torsions:
REMARK  status: ('A' for Active; 'I' for Inactive)
REMARK    1  A    between atoms: C_3  and  N_4
REMARK    2  A    between atoms: C_10  and  C_11
REMARK                            x       y       z     vdW  Elec       q    Type
REMARK                         _______ _______ _______ _____ _____    ______ ____
ROOT
ATOM      1  N   UNL     1       2.239   7.975  18.275  0.00  0.00    +0.000 N 
ATOM      2  N   UNL     1       2.163   9.048  17.433  0.00  0.00    +0.000 NA
ATOM      3  N   UNL     1       1.482  10.025  18.049  0.00  0.00    +0.000 NA
ATOM      4  C   UNL     1       1.236   9.587  19.316  0.00  0.00    +0.000 A 
ATOM      5  C   UNL     1       0.642  10.279  20.338  0.00  0.00    +0.000 A 
ATOM      6  S   UNL     1      -0.012  11.808  20.267  0.00  0.00    +0.000 S 
ATOM      7  C   UNL     1      -0.414  11.662  21.938  0.00  0.00    +0.000 A 
ATOM      8  N   UNL     1      -0.077  10.525  22.523  0.00  0.00    +0.000 NA
ATOM      9  C   UNL     1       0.546   9.725  21.604  0.00  0.00    +0.000 A 
ATOM     10  C   UNL     1       1.095   8.447  21.826  0.00  0.00    +0.000 A 
ATOM     11  C   UNL     1       1.708   7.730  20.786  0.00  0.00    +0.000 A 
ATOM     12  C   UNL     1       1.731   8.316  19.514  0.00  0.00    +0.000 A 
ENDROOT
BRANCH   1  15
ATOM     13  C   UNL     1       4.778   5.446  17.467  0.00  0.00    +0.000 A 
ATOM     14  C   UNL     1       4.188   6.698  17.552  0.00  0.00    +0.000 A 
ATOM     15  C   UNL     1       2.854   6.745  17.941  0.00  0.00    +0.000 A 
ATOM     16  C   UNL     1       2.140   5.552  18.108  0.00  0.00    +0.000 A 
ATOM     17  C   UNL     1       2.819   4.356  17.993  0.00  0.00    +0.000 A 
ATOM     18  N   UNL     1       4.129   4.279  17.697  0.00  0.00    +0.000 NA
ENDBRANCH   1  15
BRANCH   7  19
ATOM     19  C   UNL     1      -1.109  12.668  22.732  0.00  0.00    +0.000 C 
ATOM     20  N   UNL     1      -0.488  13.631  23.373  0.00  0.00    +0.000 NA
ATOM     21  C   UNL     1      -1.590  14.427  23.994  0.00  0.00    +0.000 C 
ATOM     22  C   UNL     1      -2.881  13.989  23.304  0.00  0.00    +0.000 C 
ATOM     23  N   UNL     1      -2.491  12.695  22.828  0.00  0.00    +0.000 N 
ATOM     24  H   UNL     1      -2.976  12.279  22.042  0.00  0.00    +0.000 HD
ENDBRANCH   7  19
TORSDOF 2
ENDMDL
MODEL 7
REMARK VINA RESULT:      -7.0      2.179      4.247
REMARK  Name = 
REMARK  2 active torsions:
REMARK  status: ('A' for Active; 'I' for Inactive)
REMARK    1  A    between atoms: C_3  and  N_4
REMARK    2  A    between atoms: C_10  and  C_11
REMARK                            x       y       z     vdW  Elec       q    Type
REMARK                         _______ _______ _______ _____ _____    ______ ____
ROOT
ATOM      1  N   UNL     1       1.591   8.577  18.964  0.00  0.00    +0.000 N 
ATOM      2  N   UNL     1       1.140   9.482  18.046  0.00  0.00    +0.000 NA
ATOM      3  N   UNL     1       0.269  10.303  18.649  0.00  0.00    +0.000 NA
ATOM      4  C   UNL     1       0.271   9.968  19.970  0.00  0.00    +0.000 A 
ATOM      5  C   UNL     1      -0.400  10.588  20.990  0.00  0.00    +0.000 A 
ATOM      6  S   UNL     1      -1.463  11.864  20.862  0.00  0.00    +0.000 S 
ATOM      7  C   UNL     1      -1.657  11.812  22.575  0.00  0.00    +0.000 A 
ATOM      8  N   UNL     1      -0.962  10.886  23.214  0.00  0.00    +0.000 NA
ATOM      9  C   UNL     1      -0.223  10.182  22.302  0.00  0.00    +0.000 A 
ATOM     10  C   UNL     1       0.682   9.136  22.570  0.00  0.00    +0.000 A 
ATOM     11  C   UNL     1       1.376   8.495  21.532  0.00  0.00    +0.000 A 
ATOM     12  C   UNL     1       1.120   8.911  20.219  0.00  0.00    +0.000 A 
ENDROOT
BRANCH   1  15
ATOM     13  C   UNL     1       4.397   6.684  17.537  0.00  0.00    +0.000 A 
ATOM     14  C   UNL     1       3.398   7.642  17.618  0.00  0.00    +0.000 A 
ATOM     15  C   UNL     1       2.495   7.529  18.670  0.00  0.00    +0.000 A 
ATOM     16  C   UNL     1       2.552   6.413  19.514  0.00  0.00    +0.000 A 
ATOM     17  C   UNL     1       3.584   5.511  19.344  0.00  0.00    +0.000 A 
ATOM     18  N   UNL     1       4.521   5.636  18.387  0.00  0.00    +0.000 NA
ENDBRANCH   1  15
BRANCH   7  19
ATOM     19  C   UNL     1      -2.533  12.678  23.354  0.00  0.00    +0.000 C 
ATOM     20  N   UNL     1      -2.213  13.906  23.692  0.00  0.00    +0.000 NA
ATOM     21  C   UNL     1      -3.413  14.407  24.427  0.00  0.00    +0.000 C 
ATOM     22  C   UNL     1      -4.548  13.432  24.118  0.00  0.00    +0.000 C 
ATOM     23  N   UNL     1      -3.794  12.269  23.757  0.00  0.00    +0.000 N 
ATOM     24  H   UNL     1      -4.214  11.558  23.169  0.00  0.00    +0.000 HD
ENDBRANCH   7  19
TORSDOF 2
ENDMDL
MODEL 8
REMARK VINA RESULT:      -6.9      2.146      3.230
REMARK  Name = 
REMARK  2 active torsions:
REMARK  status: ('A' for Active; 'I' for Inactive)
REMARK    1  A    between atoms: C_3  and  N_4
REMARK    2  A    between atoms: C_10  and  C_11
REMARK                            x       y       z     vdW  Elec       q    Type
REMARK                         _______ _______ _______ _____ _____    ______ ____
ROOT
ATOM      1  N   UNL     1       2.384   7.278  18.331  0.00  0.00    +0.000 N 
ATOM      2  N   UNL     1       2.537   8.172  17.310  0.00  0.00    +0.000 NA
ATOM      3  N   UNL     1       2.004   9.344  17.686  0.00  0.00    +0.000 NA
ATOM      4  C   UNL     1       1.622   9.196  18.986  0.00  0.00    +0.000 A 
ATOM      5  C   UNL     1       1.105  10.153  19.819  0.00  0.00    +0.000 A 
ATOM      6  S   UNL     1       0.729  11.727  19.427  0.00  0.00    +0.000 S 
ATOM      7  C   UNL     1       0.223  11.962  21.059  0.00  0.00    +0.000 A 
ATOM      8  N   UNL     1       0.328  10.915  21.860  0.00  0.00    +0.000 NA
ATOM      9  C   UNL     1       0.850   9.868  21.150  0.00  0.00    +0.000 A 
ATOM     10  C   UNL     1       1.157   8.582  21.638  0.00  0.00    +0.000 A 
ATOM     11  C   UNL     1       1.689   7.595  20.793  0.00  0.00    +0.000 A 
ATOM     12  C   UNL     1       1.879   7.921  19.444  0.00  0.00    +0.000 A 
ENDROOT
BRANCH   1  15
ATOM     13  C   UNL     1       2.471   3.688  17.556  0.00  0.00    +0.000 A 
ATOM     14  C   UNL     1       1.928   4.940  17.804  0.00  0.00    +0.000 A 
ATOM     15  C   UNL     1       2.793   5.925  18.269  0.00  0.00    +0.000 A 
ATOM     16  C   UNL     1       4.117   5.592  18.579  0.00  0.00    +0.000 A 
ATOM     17  C   UNL     1       4.558   4.314  18.301  0.00  0.00    +0.000 A 
ATOM     18  N   UNL     1       3.767   3.361  17.775  0.00  0.00    +0.000 NA
ENDBRANCH   1  15
BRANCH   7  19
ATOM     19  C   UNL     1      -0.327  13.196  21.604  0.00  0.00    +0.000 C 
ATOM     20  N   UNL     1       0.346  13.991  22.404  0.00  0.00    +0.000 NA
ATOM     21  C   UNL     1      -0.588  15.128  22.661  0.00  0.00    +0.000 C 
ATOM     22  C   UNL     1      -1.693  15.027  21.610  0.00  0.00    +0.000 C 
ATOM     23  N   UNL     1      -1.599  13.637  21.275  0.00  0.00    +0.000 N 
ATOM     24  H   UNL     1      -1.939  13.310  20.378  0.00  0.00    +0.000 HD
ENDBRANCH   7  19
TORSDOF 2
ENDMDL
MODEL 9
REMARK VINA RESULT:      -6.9      1.832      8.862
REMARK  Name = 
REMARK  2 active torsions:
REMARK  status: ('A' for Active; 'I' for Inactive)
REMARK    1  A    between atoms: C_3  and  N_4
REMARK    2  A    between atoms: C_10  and  C_11
REMARK                            x       y       z     vdW  Elec       q    Type
REMARK                         _______ _______ _______ _____ _____    ______ ____
ROOT
ATOM      1  N   UNL     1      -0.786  11.135  22.605  0.00  0.00    +0.000 N 
ATOM      2  N   UNL     1      -0.333  10.228  23.521  0.00  0.00    +0.000 NA
ATOM      3  N   UNL     1       0.330   9.261  22.871  0.00  0.00    +0.000 NA
ATOM      4  C   UNL     1       0.377   9.636  21.562  0.00  0.00    +0.000 A 
ATOM      5  C   UNL     1       1.026   9.004  20.534  0.00  0.00    +0.000 A 
ATOM      6  S   UNL     1       1.853   7.561  20.608  0.00  0.00    +0.000 S 
ATOM      7  C   UNL     1       2.210   7.735  18.929  0.00  0.00    +0.000 A 
ATOM      8  N   UNL     1       1.734   8.818  18.340  0.00  0.00    +0.000 NA
ATOM      9  C   UNL     1       1.058   9.564  19.268  0.00  0.00    +0.000 A 
ATOM     10  C   UNL     1       0.433  10.809  19.063  0.00  0.00    +0.000 A 
ATOM     11  C   UNL     1      -0.233  11.467  20.110  0.00  0.00    +0.000 A 
ATOM     12  C   UNL     1      -0.279  10.831  21.357  0.00  0.00    +0.000 A 
ENDROOT
BRANCH   1  15
ATOM     13  C   UNL     1      -3.562  13.259  23.734  0.00  0.00    +0.000 A 
ATOM     14  C   UNL     1      -2.923  12.150  23.201  0.00  0.00    +0.000 A 
ATOM     15  C   UNL     1      -1.564  12.271  22.931  0.00  0.00    +0.000 A 
ATOM     16  C   UNL     1      -0.936  13.513  23.086  0.00  0.00    +0.000 A 
ATOM     17  C   UNL     1      -1.664  14.558  23.618  0.00  0.00    +0.000 A 
ATOM     18  N   UNL     1      -2.960  14.450  23.966  0.00  0.00    +0.000 NA
ENDBRANCH   1  15
BRANCH   7  19
ATOM     19  C   UNL     1       2.960   6.782  18.121  0.00  0.00    +0.000 C 
ATOM     20  N   UNL     1       4.078   7.087  17.502  0.00  0.00    +0.000 NA
ATOM     21  C   UNL     1       4.498   5.808  16.854  0.00  0.00    +0.000 C 
ATOM     22  C   UNL     1       3.670   4.701  17.505  0.00  0.00    +0.000 C 
ATOM     23  N   UNL     1       2.556   5.463  17.985  0.00  0.00    +0.000 N 
ATOM     24  H   UNL     1       1.998   5.112  18.755  0.00  0.00    +0.000 HD
ENDBRANCH   7  19
TORSDOF 2
ENDMDL
