MODEL 1
REMARK VINA RESULT:      -6.3      0.000      0.000
REMARK  Name = 
REMARK  21 active torsions:
REMARK  status: ('A' for Active; 'I' for Inactive)
REMARK    1  A    between atoms: C_1  and  C_2
REMARK    2  A    between atoms: C_2  and  C_3
REMARK    3  A    between atoms: C_3  and  C_4
REMARK    4  A    between atoms: C_4  and  C_5
REMARK    5  A    between atoms: C_5  and  C_6
REMARK    6  A    between atoms: C_6  and  C_7
REMARK    7  A    between atoms: C_7  and  C_8
REMARK    8  A    between atoms: C_8  and  C_9
REMARK    9  A    between atoms: C_9  and  C_10
REMARK   10  A    between atoms: C_10  and  C_11
REMARK   11  A    between atoms: C_11  and  C_12
REMARK   12  A    between atoms: C_12  and  C_13
REMARK   13  A    between atoms: C_13  and  C_14
REMARK   14  A    between atoms: C_14  and  C_15
REMARK   15  A    between atoms: C_15  and  C_16
REMARK   16  A    between atoms: C_16  and  N_17
REMARK   17  A    between atoms: N_17  and  C_18
REMARK   18  A    between atoms: C_21  and  C_22
REMARK   19  A    between atoms: N_24  and  C_25
REMARK   20  A    between atoms: C_28  and  C_29
REMARK   21  A    between atoms: C_29  and  O_31
REMARK                            x       y       z     vdW  Elec       q    Type
REMARK                         _______ _______ _______ _____ _____    ______ ____
ROOT
ATOM      1  C   UNL     1       1.052   9.284  18.796  0.00  0.00    +0.000 A 
ATOM      2  C   UNL     1       0.201  10.233  18.236  0.00  0.00    +0.000 A 
ATOM      3  C   UNL     1      -0.598  11.049  19.046  0.00  0.00    +0.000 A 
ATOM      4  C   UNL     1      -0.563  10.926  20.444  0.00  0.00    +0.000 A 
ATOM      5  C   UNL     1       0.304  10.000  21.014  0.00  0.00    +0.000 A 
ATOM      6  C   UNL     1       1.112   9.199  20.191  0.00  0.00    +0.000 A 
ENDROOT
BRANCH   4   7
ATOM      7  C   UNL     1      -1.520  11.731  21.247  0.00  0.00    +0.000 C 
ATOM      8  O   UNL     1      -1.389  11.697  22.453  0.00  0.00    +0.000 OA
ATOM      9  N   UNL     1      -2.519  12.418  20.540  0.00  0.00    +0.000 N 
ATOM     10  H   UNL     1      -2.641  12.260  19.549  0.00  0.00    +0.000 HD
BRANCH   9  11
ATOM     11  C   UNL     1      -3.492  13.199  21.206  0.00  0.00    +0.000 A 
ATOM     12  C   UNL     1      -4.727  12.664  21.572  0.00  0.00    +0.000 A 
ATOM     13  C   UNL     1      -5.674  13.423  22.242  0.00  0.00    +0.000 A 
ATOM     14  C   UNL     1      -5.426  14.754  22.565  0.00  0.00    +0.000 A 
ATOM     15  C   UNL     1      -4.184  15.317  22.188  0.00  0.00    +0.000 A 
ATOM     16  C   UNL     1      -3.229  14.531  21.519  0.00  0.00    +0.000 A 
BRANCH  14  17
ATOM     17  C   UNL     1      -6.449  15.528  23.336  0.00  0.00    +0.000 C 
ATOM     18  O   UNL     1      -6.818  16.645  23.028  0.00  0.00    +0.000 OA
BRANCH  17  19
ATOM     19  O   UNL     1      -6.928  14.875  24.429  0.00  0.00    +0.000 OA
ATOM     20  H   UNL     1      -7.102  15.345  25.268  0.00  0.00    +0.000 HD
ENDBRANCH  17  19
ENDBRANCH  14  17
ENDBRANCH   9  11
ENDBRANCH   4   7
BRANCH   1  21
ATOM     21  N   UNL     1       1.798   8.484  17.950  0.00  0.00    +0.000 N 
ATOM     22  H   UNL     1       1.805   8.712  16.962  0.00  0.00    +0.000 HD
BRANCH  21  23
ATOM     23  C   UNL     1       2.802   7.559  18.433  0.00  0.00    +0.000 C 
BRANCH  23  24
ATOM     24  C   UNL     1       2.190   6.171  18.620  0.00  0.00    +0.000 C 
BRANCH  24  25
ATOM     25  C   UNL     1       2.181   5.793  20.099  0.00  0.00    +0.000 C 
BRANCH  25  26
ATOM     26  C   UNL     1       1.117   4.746  20.393  0.00  0.00    +0.000 C 
BRANCH  26  27
ATOM     27  C   UNL     1       1.727   3.568  21.142  0.00  0.00    +0.000 C 
BRANCH  27  28
ATOM     28  C   UNL     1       1.586   2.293  20.327  0.00  0.00    +0.000 C 
BRANCH  28  29
ATOM     29  C   UNL     1       1.080   2.613  18.930  0.00  0.00    +0.000 C 
BRANCH  29  30
ATOM     30  C   UNL     1       2.190   2.415  17.912  0.00  0.00    +0.000 C 
BRANCH  30  31
ATOM     31  C   UNL     1       3.463   1.963  18.607  0.00  0.00    +0.000 C 
BRANCH  31  32
ATOM     32  C   UNL     1       4.508   3.064  18.552  0.00  0.00    +0.000 C 
BRANCH  32  33
ATOM     33  C   UNL     1       4.429   3.795  17.222  0.00  0.00    +0.000 C 
BRANCH  33  34
ATOM     34  C   UNL     1       5.529   4.841  17.129  0.00  0.00    +0.000 C 
BRANCH  34  35
ATOM     35  C   UNL     1       5.818   5.425  18.503  0.00  0.00    +0.000 C 
BRANCH  35  36
ATOM     36  C   UNL     1       7.228   5.997  18.547  0.00  0.00    +0.000 C 
BRANCH  36  38
ATOM     37  C   UNL     1       7.959   8.260  17.772  0.00  0.00    +0.000 C 
ATOM     38  C   UNL     1       7.488   6.885  17.336  0.00  0.00    +0.000 C 
ENDBRANCH  36  38
ENDBRANCH  35  36
ENDBRANCH  34  35
ENDBRANCH  33  34
ENDBRANCH  32  33
ENDBRANCH  31  32
ENDBRANCH  30  31
ENDBRANCH  29  30
ENDBRANCH  28  29
ENDBRANCH  27  28
ENDBRANCH  26  27
ENDBRANCH  25  26
ENDBRANCH  24  25
ENDBRANCH  23  24
ENDBRANCH  21  23
ENDBRANCH   1  21
TORSDOF 20
ENDMDL
MODEL 2
REMARK VINA RESULT:      -6.3      5.757     10.860
REMARK  Name = 
REMARK  21 active torsions:
REMARK  status: ('A' for Active; 'I' for Inactive)
REMARK    1  A    between atoms: C_1  and  C_2
REMARK    2  A    between atoms: C_2  and  C_3
REMARK    3  A    between atoms: C_3  and  C_4
REMARK    4  A    between atoms: C_4  and  C_5
REMARK    5  A    between atoms: C_5  and  C_6
REMARK    6  A    between atoms: C_6  and  C_7
REMARK    7  A    between atoms: C_7  and  C_8
REMARK    8  A    between atoms: C_8  and  C_9
REMARK    9  A    between atoms: C_9  and  C_10
REMARK   10  A    between atoms: C_10  and  C_11
REMARK   11  A    between atoms: C_11  and  C_12
REMARK   12  A    between atoms: C_12  and  C_13
REMARK   13  A    between atoms: C_13  and  C_14
REMARK   14  A    between atoms: C_14  and  C_15
REMARK   15  A    between atoms: C_15  and  C_16
REMARK   16  A    between atoms: C_16  and  N_17
REMARK   17  A    between atoms: N_17  and  C_18
REMARK   18  A    between atoms: C_21  and  C_22
REMARK   19  A    between atoms: N_24  and  C_25
REMARK   20  A    between atoms: C_28  and  C_29
REMARK   21  A    between atoms: C_29  and  O_31
REMARK                            x       y       z     vdW  Elec       q    Type
REMARK                         _______ _______ _______ _____ _____    ______ ____
ROOT
ATOM      1  C   UNL     1       6.900   5.144  17.664  0.00  0.00    +0.000 A 
ATOM      2  C   UNL     1       6.696   6.131  16.703  0.00  0.00    +0.000 A 
ATOM      3  C   UNL     1       7.196   7.426  16.886  0.00  0.00    +0.000 A 
ATOM      4  C   UNL     1       7.912   7.762  18.046  0.00  0.00    +0.000 A 
ATOM      5  C   UNL     1       8.143   6.776  19.000  0.00  0.00    +0.000 A 
ATOM      6  C   UNL     1       7.651   5.476  18.797  0.00  0.00    +0.000 A 
ENDROOT
BRANCH   4   7
ATOM      7  C   UNL     1       8.312   9.179  18.242  0.00  0.00    +0.000 C 
ATOM      8  O   UNL     1       7.800  10.001  17.510  0.00  0.00    +0.000 OA
ATOM      9  N   UNL     1       9.282   9.433  19.224  0.00  0.00    +0.000 N 
ATOM     10  H   UNL     1       9.763   8.667  19.675  0.00  0.00    +0.000 HD
BRANCH   9  11
ATOM     11  C   UNL     1       9.748  10.744  19.480  0.00  0.00    +0.000 A 
ATOM     12  C   UNL     1      10.635  11.383  18.614  0.00  0.00    +0.000 A 
ATOM     13  C   UNL     1      11.078  12.674  18.855  0.00  0.00    +0.000 A 
ATOM     14  C   UNL     1      10.658  13.376  19.981  0.00  0.00    +0.000 A 
ATOM     15  C   UNL     1       9.770  12.738  20.879  0.00  0.00    +0.000 A 
ATOM     16  C   UNL     1       9.321  11.431  20.615  0.00  0.00    +0.000 A 
BRANCH  14  17
ATOM     17  C   UNL     1      11.112  14.788  20.181  0.00  0.00    +0.000 C 
ATOM     18  O   UNL     1      11.390  15.255  21.269  0.00  0.00    +0.000 OA
BRANCH  17  19
ATOM     19  O   UNL     1      11.179  15.516  19.034  0.00  0.00    +0.000 OA
ATOM     20  H   UNL     1      10.373  15.857  18.599  0.00  0.00    +0.000 HD
ENDBRANCH  17  19
ENDBRANCH  14  17
ENDBRANCH   9  11
ENDBRANCH   4   7
BRANCH   1  21
ATOM     21  N   UNL     1       6.360   3.890  17.449  0.00  0.00    +0.000 N 
ATOM     22  H   UNL     1       6.935   3.081  17.658  0.00  0.00    +0.000 HD
BRANCH  21  23
ATOM     23  C   UNL     1       4.942   3.671  17.254  0.00  0.00    +0.000 C 
BRANCH  23  24
ATOM     24  C   UNL     1       4.252   3.471  18.604  0.00  0.00    +0.000 C 
BRANCH  24  25
ATOM     25  C   UNL     1       2.746   3.319  18.408  0.00  0.00    +0.000 C 
BRANCH  25  26
ATOM     26  C   UNL     1       2.176   4.479  17.605  0.00  0.00    +0.000 C 
BRANCH  26  27
ATOM     27  C   UNL     1       2.126   5.739  18.460  0.00  0.00    +0.000 C 
BRANCH  27  28
ATOM     28  C   UNL     1       3.412   6.535  18.303  0.00  0.00    +0.000 C 
BRANCH  28  29
ATOM     29  C   UNL     1       3.109   7.929  17.776  0.00  0.00    +0.000 C 
BRANCH  29  30
ATOM     30  C   UNL     1       1.877   8.491  18.464  0.00  0.00    +0.000 C 
BRANCH  30  31
ATOM     31  C   UNL     1       1.600   9.902  17.974  0.00  0.00    +0.000 C 
BRANCH  31  32
ATOM     32  C   UNL     1       0.861  10.692  19.040  0.00  0.00    +0.000 C 
BRANCH  32  33
ATOM     33  C   UNL     1       0.255  11.948  18.436  0.00  0.00    +0.000 C 
BRANCH  33  34
ATOM     34  C   UNL     1      -1.243  11.984  18.690  0.00  0.00    +0.000 C 
BRANCH  34  35
ATOM     35  C   UNL     1      -1.787  10.571  18.839  0.00  0.00    +0.000 C 
BRANCH  35  36
ATOM     36  C   UNL     1      -2.845  10.299  17.778  0.00  0.00    +0.000 C 
BRANCH  36  38
ATOM     37  C   UNL     1      -3.000  10.510  15.291  0.00  0.00    +0.000 C 
ATOM     38  C   UNL     1      -2.197   9.943  16.446  0.00  0.00    +0.000 C 
ENDBRANCH  36  38
ENDBRANCH  35  36
ENDBRANCH  34  35
ENDBRANCH  33  34
ENDBRANCH  32  33
ENDBRANCH  31  32
ENDBRANCH  30  31
ENDBRANCH  29  30
ENDBRANCH  28  29
ENDBRANCH  27  28
ENDBRANCH  26  27
ENDBRANCH  25  26
ENDBRANCH  24  25
ENDBRANCH  23  24
ENDBRANCH  21  23
ENDBRANCH   1  21
TORSDOF 20
ENDMDL
MODEL 3
REMARK VINA RESULT:      -6.1      3.698      7.659
REMARK  Name = 
REMARK  21 active torsions:
REMARK  status: ('A' for Active; 'I' for Inactive)
REMARK    1  A    between atoms: C_1  and  C_2
REMARK    2  A    between atoms: C_2  and  C_3
REMARK    3  A    between atoms: C_3  and  C_4
REMARK    4  A    between atoms: C_4  and  C_5
REMARK    5  A    between atoms: C_5  and  C_6
REMARK    6  A    between atoms: C_6  and  C_7
REMARK    7  A    between atoms: C_7  and  C_8
REMARK    8  A    between atoms: C_8  and  C_9
REMARK    9  A    between atoms: C_9  and  C_10
REMARK   10  A    between atoms: C_10  and  C_11
REMARK   11  A    between atoms: C_11  and  C_12
REMARK   12  A    between atoms: C_12  and  C_13
REMARK   13  A    between atoms: C_13  and  C_14
REMARK   14  A    between atoms: C_14  and  C_15
REMARK   15  A    between atoms: C_15  and  C_16
REMARK   16  A    between atoms: C_16  and  N_17
REMARK   17  A    between atoms: N_17  and  C_18
REMARK   18  A    between atoms: C_21  and  C_22
REMARK   19  A    between atoms: N_24  and  C_25
REMARK   20  A    between atoms: C_28  and  C_29
REMARK   21  A    between atoms: C_29  and  O_31
REMARK                            x       y       z     vdW  Elec       q    Type
REMARK                         _______ _______ _______ _____ _____    ______ ____
ROOT
ATOM      1  C   UNL     1       4.707   5.757  17.926  0.00  0.00    +0.000 A 
ATOM      2  C   UNL     1       4.032   5.425  19.098  0.00  0.00    +0.000 A 
ATOM      3  C   UNL     1       3.006   6.238  19.592  0.00  0.00    +0.000 A 
ATOM      4  C   UNL     1       2.635   7.413  18.919  0.00  0.00    +0.000 A 
ATOM      5  C   UNL     1       3.285   7.741  17.734  0.00  0.00    +0.000 A 
ATOM      6  C   UNL     1       4.302   6.907  17.240  0.00  0.00    +0.000 A 
ENDROOT
BRANCH   4   7
ATOM      7  C   UNL     1       1.625   8.300  19.553  0.00  0.00    +0.000 C 
ATOM      8  O   UNL     1       1.097   7.894  20.568  0.00  0.00    +0.000 OA
ATOM      9  N   UNL     1       1.338   9.505  18.894  0.00  0.00    +0.000 N 
ATOM     10  H   UNL     1       1.716   9.685  17.974  0.00  0.00    +0.000 HD
BRANCH   9  11
ATOM     11  C   UNL     1       0.380  10.415  19.401  0.00  0.00    +0.000 A 
ATOM     12  C   UNL     1       0.653  11.214  20.510  0.00  0.00    +0.000 A 
ATOM     13  C   UNL     1      -0.278  12.119  20.996  0.00  0.00    +0.000 A 
ATOM     14  C   UNL     1      -1.527  12.253  20.396  0.00  0.00    +0.000 A 
ATOM     15  C   UNL     1      -1.826  11.439  19.278  0.00  0.00    +0.000 A 
ATOM     16  C   UNL     1      -0.867  10.534  18.789  0.00  0.00    +0.000 A 
BRANCH  14  17
ATOM     17  C   UNL     1      -2.487  13.279  20.912  0.00  0.00    +0.000 C 
ATOM     18  O   UNL     1      -3.084  13.168  21.966  0.00  0.00    +0.000 OA
BRANCH  17  19
ATOM     19  O   UNL     1      -2.645  14.352  20.091  0.00  0.00    +0.000 OA
ATOM     20  H   UNL     1      -2.734  15.257  20.448  0.00  0.00    +0.000 HD
ENDBRANCH  17  19
ENDBRANCH  14  17
ENDBRANCH   9  11
ENDBRANCH   4   7
BRANCH   1  21
ATOM     21  N   UNL     1       5.733   4.935  17.497  0.00  0.00    +0.000 N 
ATOM     22  H   UNL     1       5.488   4.104  16.970  0.00  0.00    +0.000 HD
BRANCH  21  23
ATOM     23  C   UNL     1       7.117   5.357  17.480  0.00  0.00    +0.000 C 
BRANCH  23  24
ATOM     24  C   UNL     1       7.513   5.911  18.849  0.00  0.00    +0.000 C 
BRANCH  24  25
ATOM     25  C   UNL     1       8.316   7.199  18.683  0.00  0.00    +0.000 C 
BRANCH  25  26
ATOM     26  C   UNL     1       7.705   8.094  17.614  0.00  0.00    +0.000 C 
BRANCH  26  27
ATOM     27  C   UNL     1       8.059   9.552  17.879  0.00  0.00    +0.000 C 
BRANCH  27  28
ATOM     28  C   UNL     1       8.977   9.662  19.085  0.00  0.00    +0.000 C 
BRANCH  28  29
ATOM     29  C   UNL     1      10.045  10.717  18.840  0.00  0.00    +0.000 C 
BRANCH  29  30
ATOM     30  C   UNL     1      10.388  11.426  20.139  0.00  0.00    +0.000 C 
BRANCH  30  31
ATOM     31  C   UNL     1       9.164  12.139  20.686  0.00  0.00    +0.000 C 
BRANCH  31  32
ATOM     32  C   UNL     1       9.474  13.608  20.919  0.00  0.00    +0.000 C 
BRANCH  32  33
ATOM     33  C   UNL     1      10.778  13.982  20.233  0.00  0.00    +0.000 C 
BRANCH  33  34
ATOM     34  C   UNL     1      10.506  14.896  19.049  0.00  0.00    +0.000 C 
BRANCH  34  35
ATOM     35  C   UNL     1       9.176  15.610  19.227  0.00  0.00    +0.000 C 
BRANCH  35  36
ATOM     36  C   UNL     1       8.365  15.545  17.941  0.00  0.00    +0.000 C 
BRANCH  36  38
ATOM     37  C   UNL     1       7.759  13.199  17.320  0.00  0.00    +0.000 C 
ATOM     38  C   UNL     1       7.299  14.460  18.027  0.00  0.00    +0.000 C 
ENDBRANCH  36  38
ENDBRANCH  35  36
ENDBRANCH  34  35
ENDBRANCH  33  34
ENDBRANCH  32  33
ENDBRANCH  31  32
ENDBRANCH  30  31
ENDBRANCH  29  30
ENDBRANCH  28  29
ENDBRANCH  27  28
ENDBRANCH  26  27
ENDBRANCH  25  26
ENDBRANCH  24  25
ENDBRANCH  23  24
ENDBRANCH  21  23
ENDBRANCH   1  21
TORSDOF 20
ENDMDL
MODEL 4
REMARK VINA RESULT:      -6.0      2.734      3.845
REMARK  Name = 
REMARK  21 active torsions:
REMARK  status: ('A' for Active; 'I' for Inactive)
REMARK    1  A    between atoms: C_1  and  C_2
REMARK    2  A    between atoms: C_2  and  C_3
REMARK    3  A    between atoms: C_3  and  C_4
REMARK    4  A    between atoms: C_4  and  C_5
REMARK    5  A    between atoms: C_5  and  C_6
REMARK    6  A    between atoms: C_6  and  C_7
REMARK    7  A    between atoms: C_7  and  C_8
REMARK    8  A    between atoms: C_8  and  C_9
REMARK    9  A    between atoms: C_9  and  C_10
REMARK   10  A    between atoms: C_10  and  C_11
REMARK   11  A    between atoms: C_11  and  C_12
REMARK   12  A    between atoms: C_12  and  C_13
REMARK   13  A    between atoms: C_13  and  C_14
REMARK   14  A    between atoms: C_14  and  C_15
REMARK   15  A    between atoms: C_15  and  C_16
REMARK   16  A    between atoms: C_16  and  N_17
REMARK   17  A    between atoms: N_17  and  C_18
REMARK   18  A    between atoms: C_21  and  C_22
REMARK   19  A    between atoms: N_24  and  C_25
REMARK   20  A    between atoms: C_28  and  C_29
REMARK   21  A    between atoms: C_29  and  O_31
REMARK                            x       y       z     vdW  Elec       q    Type
REMARK                         _______ _______ _______ _____ _____    ______ ____
ROOT
ATOM      1  C   UNL     1       1.674   7.558  20.697  0.00  0.00    +0.000 A 
ATOM      2  C   UNL     1       1.267   8.239  21.841  0.00  0.00    +0.000 A 
ATOM      3  C   UNL     1       0.918   9.594  21.786  0.00  0.00    +0.000 A 
ATOM      4  C   UNL     1       0.975  10.300  20.574  0.00  0.00    +0.000 A 
ATOM      5  C   UNL     1       1.355   9.622  19.420  0.00  0.00    +0.000 A 
ATOM      6  C   UNL     1       1.686   8.259  19.487  0.00  0.00    +0.000 A 
ENDROOT
BRANCH   4   7
ATOM      7  C   UNL     1       0.713  11.762  20.597  0.00  0.00    +0.000 C 
ATOM      8  O   UNL     1       1.434  12.439  21.301  0.00  0.00    +0.000 OA
ATOM      9  N   UNL     1      -0.375  12.222  19.840  0.00  0.00    +0.000 N 
ATOM     10  H   UNL     1      -1.011  11.564  19.409  0.00  0.00    +0.000 HD
BRANCH   9  11
ATOM     11  C   UNL     1      -0.725  13.593  19.805  0.00  0.00    +0.000 A 
ATOM     12  C   UNL     1      -0.161  14.463  18.872  0.00  0.00    +0.000 A 
ATOM     13  C   UNL     1      -0.517  15.802  18.826  0.00  0.00    +0.000 A 
ATOM     14  C   UNL     1      -1.447  16.327  19.719  0.00  0.00    +0.000 A 
ATOM     15  C   UNL     1      -2.017  15.461  20.682  0.00  0.00    +0.000 A 
ATOM     16  C   UNL     1      -1.655  14.103  20.709  0.00  0.00    +0.000 A 
BRANCH  14  17
ATOM     17  C   UNL     1      -1.848  17.764  19.604  0.00  0.00    +0.000 C 
ATOM     18  O   UNL     1      -2.797  18.145  18.945  0.00  0.00    +0.000 OA
BRANCH  17  19
ATOM     19  O   UNL     1      -1.049  18.619  20.298  0.00  0.00    +0.000 OA
ATOM     20  H   UNL     1      -0.648  19.401  19.871  0.00  0.00    +0.000 HD
ENDBRANCH  17  19
ENDBRANCH  14  17
ENDBRANCH   9  11
ENDBRANCH   4   7
BRANCH   1  21
ATOM     21  N   UNL     1       2.036   6.228  20.812  0.00  0.00    +0.000 N 
ATOM     22  H   UNL     1       2.909   6.011  21.279  0.00  0.00    +0.000 HD
BRANCH  21  23
ATOM     23  C   UNL     1       1.102   5.143  20.597  0.00  0.00    +0.000 C 
BRANCH  23  24
ATOM     24  C   UNL     1       1.640   3.857  21.224  0.00  0.00    +0.000 C 
BRANCH  24  25
ATOM     25  C   UNL     1       1.084   2.640  20.490  0.00  0.00    +0.000 C 
BRANCH  25  26
ATOM     26  C   UNL     1       0.991   2.896  18.992  0.00  0.00    +0.000 C 
BRANCH  26  27
ATOM     27  C   UNL     1       2.223   2.345  18.285  0.00  0.00    +0.000 C 
BRANCH  27  28
ATOM     28  C   UNL     1       2.656   3.283  17.170  0.00  0.00    +0.000 C 
BRANCH  28  29
ATOM     29  C   UNL     1       2.361   4.725  17.550  0.00  0.00    +0.000 C 
BRANCH  29  30
ATOM     30  C   UNL     1       3.642   5.542  17.539  0.00  0.00    +0.000 C 
BRANCH  30  31
ATOM     31  C   UNL     1       4.279   5.535  18.918  0.00  0.00    +0.000 C 
BRANCH  31  32
ATOM     32  C   UNL     1       5.505   4.638  18.923  0.00  0.00    +0.000 C 
BRANCH  32  33
ATOM     33  C   UNL     1       6.711   5.403  19.443  0.00  0.00    +0.000 C 
BRANCH  33  34
ATOM     34  C   UNL     1       7.828   5.388  18.412  0.00  0.00    +0.000 C 
BRANCH  34  35
ATOM     35  C   UNL     1       7.392   4.623  17.172  0.00  0.00    +0.000 C 
BRANCH  35  36
ATOM     36  C   UNL     1       7.180   5.582  16.009  0.00  0.00    +0.000 C 
BRANCH  36  38
ATOM     37  C   UNL     1       5.875   3.624  15.158  0.00  0.00    +0.000 C 
ATOM     38  C   UNL     1       6.004   5.136  15.148  0.00  0.00    +0.000 C 
ENDBRANCH  36  38
ENDBRANCH  35  36
ENDBRANCH  34  35
ENDBRANCH  33  34
ENDBRANCH  32  33
ENDBRANCH  31  32
ENDBRANCH  30  31
ENDBRANCH  29  30
ENDBRANCH  28  29
ENDBRANCH  27  28
ENDBRANCH  26  27
ENDBRANCH  25  26
ENDBRANCH  24  25
ENDBRANCH  23  24
ENDBRANCH  21  23
ENDBRANCH   1  21
TORSDOF 20
ENDMDL
MODEL 5
REMARK VINA RESULT:      -5.8      1.184      1.719
REMARK  Name = 
REMARK  21 active torsions:
REMARK  status: ('A' for Active; 'I' for Inactive)
REMARK    1  A    between atoms: C_1  and  C_2
REMARK    2  A    between atoms: C_2  and  C_3
REMARK    3  A    between atoms: C_3  and  C_4
REMARK    4  A    between atoms: C_4  and  C_5
REMARK    5  A    between atoms: C_5  and  C_6
REMARK    6  A    between atoms: C_6  and  C_7
REMARK    7  A    between atoms: C_7  and  C_8
REMARK    8  A    between atoms: C_8  and  C_9
REMARK    9  A    between atoms: C_9  and  C_10
REMARK   10  A    between atoms: C_10  and  C_11
REMARK   11  A    between atoms: C_11  and  C_12
REMARK   12  A    between atoms: C_12  and  C_13
REMARK   13  A    between atoms: C_13  and  C_14
REMARK   14  A    between atoms: C_14  and  C_15
REMARK   15  A    between atoms: C_15  and  C_16
REMARK   16  A    between atoms: C_16  and  N_17
REMARK   17  A    between atoms: N_17  and  C_18
REMARK   18  A    between atoms: C_21  and  C_22
REMARK   19  A    between atoms: N_24  and  C_25
REMARK   20  A    between atoms: C_28  and  C_29
REMARK   21  A    between atoms: C_29  and  O_31
REMARK                            x       y       z     vdW  Elec       q    Type
REMARK                         _______ _______ _______ _____ _____    ______ ____
ROOT
ATOM      1  C   UNL     1       1.584   8.422  20.049  0.00  0.00    +0.000 A 
ATOM      2  C   UNL     1       1.169   9.560  19.363  0.00  0.00    +0.000 A 
ATOM      3  C   UNL     1       0.473  10.582  20.019  0.00  0.00    +0.000 A 
ATOM      4  C   UNL     1       0.173  10.481  21.387  0.00  0.00    +0.000 A 
ATOM      5  C   UNL     1       0.606   9.360  22.088  0.00  0.00    +0.000 A 
ATOM      6  C   UNL     1       1.318   8.350  21.421  0.00  0.00    +0.000 A 
ENDROOT
BRANCH   4   7
ATOM      7  C   UNL     1      -0.673  11.536  22.003  0.00  0.00    +0.000 C 
ATOM      8  O   UNL     1      -0.476  11.782  23.176  0.00  0.00    +0.000 OA
ATOM      9  N   UNL     1      -1.654  12.118  21.187  0.00  0.00    +0.000 N 
ATOM     10  H   UNL     1      -1.844  11.738  20.269  0.00  0.00    +0.000 HD
BRANCH   9  11
ATOM     11  C   UNL     1      -2.525  13.119  21.677  0.00  0.00    +0.000 A 
ATOM     12  C   UNL     1      -3.838  12.823  22.045  0.00  0.00    +0.000 A 
ATOM     13  C   UNL     1      -4.686  13.800  22.543  0.00  0.00    +0.000 A 
ATOM     14  C   UNL     1      -4.258  15.117  22.684  0.00  0.00    +0.000 A 
ATOM     15  C   UNL     1      -2.933  15.437  22.301  0.00  0.00    +0.000 A 
ATOM     16  C   UNL     1      -2.081  14.433  21.808  0.00  0.00    +0.000 A 
BRANCH  14  17
ATOM     17  C   UNL     1      -5.182  16.133  23.277  0.00  0.00    +0.000 C 
ATOM     18  O   UNL     1      -5.633  17.075  22.652  0.00  0.00    +0.000 OA
BRANCH  17  19
ATOM     19  O   UNL     1      -5.471  15.920  24.589  0.00  0.00    +0.000 OA
ATOM     20  H   UNL     1      -6.386  15.984  24.926  0.00  0.00    +0.000 HD
ENDBRANCH  17  19
ENDBRANCH  14  17
ENDBRANCH   9  11
ENDBRANCH   4   7
BRANCH   1  21
ATOM     21  N   UNL     1       2.242   7.429  19.347  0.00  0.00    +0.000 N 
ATOM     22  H   UNL     1       2.666   7.674  18.459  0.00  0.00    +0.000 HD
BRANCH  21  23
ATOM     23  C   UNL     1       2.629   6.170  19.949  0.00  0.00    +0.000 C 
BRANCH  23  24
ATOM     24  C   UNL     1       1.395   5.450  20.494  0.00  0.00    +0.000 C 
BRANCH  24  25
ATOM     25  C   UNL     1       1.740   4.003  20.839  0.00  0.00    +0.000 C 
BRANCH  25  26
ATOM     26  C   UNL     1       0.733   3.038  20.231  0.00  0.00    +0.000 C 
BRANCH  26  27
ATOM     27  C   UNL     1       1.301   2.410  18.964  0.00  0.00    +0.000 C 
BRANCH  27  28
ATOM     28  C   UNL     1       2.734   1.958  19.195  0.00  0.00    +0.000 C 
BRANCH  28  29
ATOM     29  C   UNL     1       3.615   2.384  18.030  0.00  0.00    +0.000 C 
BRANCH  29  30
ATOM     30  C   UNL     1       2.901   3.428  17.189  0.00  0.00    +0.000 C 
BRANCH  30  31
ATOM     31  C   UNL     1       3.852   4.559  16.839  0.00  0.00    +0.000 C 
BRANCH  31  32
ATOM     32  C   UNL     1       5.003   4.034  15.999  0.00  0.00    +0.000 C 
BRANCH  32  33
ATOM     33  C   UNL     1       6.264   4.837  16.278  0.00  0.00    +0.000 C 
BRANCH  33  34
ATOM     34  C   UNL     1       5.993   6.322  16.098  0.00  0.00    +0.000 C 
BRANCH  34  35
ATOM     35  C   UNL     1       6.170   7.053  17.420  0.00  0.00    +0.000 C 
BRANCH  35  36
ATOM     36  C   UNL     1       7.390   6.521  18.158  0.00  0.00    +0.000 C 
BRANCH  36  38
ATOM     37  C   UNL     1       7.987   8.910  17.718  0.00  0.00    +0.000 C 
ATOM     38  C   UNL     1       8.369   7.647  18.467  0.00  0.00    +0.000 C 
ENDBRANCH  36  38
ENDBRANCH  35  36
ENDBRANCH  34  35
ENDBRANCH  33  34
ENDBRANCH  32  33
ENDBRANCH  31  32
ENDBRANCH  30  31
ENDBRANCH  29  30
ENDBRANCH  28  29
ENDBRANCH  27  28
ENDBRANCH  26  27
ENDBRANCH  25  26
ENDBRANCH  24  25
ENDBRANCH  23  24
ENDBRANCH  21  23
ENDBRANCH   1  21
TORSDOF 20
ENDMDL
MODEL 6
REMARK VINA RESULT:      -5.8      3.749     11.304
REMARK  Name = 
REMARK  21 active torsions:
REMARK  status: ('A' for Active; 'I' for Inactive)
REMARK    1  A    between atoms: C_1  and  C_2
REMARK    2  A    between atoms: C_2  and  C_3
REMARK    3  A    between atoms: C_3  and  C_4
REMARK    4  A    between atoms: C_4  and  C_5
REMARK    5  A    between atoms: C_5  and  C_6
REMARK    6  A    between atoms: C_6  and  C_7
REMARK    7  A    between atoms: C_7  and  C_8
REMARK    8  A    between atoms: C_8  and  C_9
REMARK    9  A    between atoms: C_9  and  C_10
REMARK   10  A    between atoms: C_10  and  C_11
REMARK   11  A    between atoms: C_11  and  C_12
REMARK   12  A    between atoms: C_12  and  C_13
REMARK   13  A    between atoms: C_13  and  C_14
REMARK   14  A    between atoms: C_14  and  C_15
REMARK   15  A    between atoms: C_15  and  C_16
REMARK   16  A    between atoms: C_16  and  N_17
REMARK   17  A    between atoms: N_17  and  C_18
REMARK   18  A    between atoms: C_21  and  C_22
REMARK   19  A    between atoms: N_24  and  C_25
REMARK   20  A    between atoms: C_28  and  C_29
REMARK   21  A    between atoms: C_29  and  O_31
REMARK                            x       y       z     vdW  Elec       q    Type
REMARK                         _______ _______ _______ _____ _____    ______ ____
ROOT
ATOM      1  C   UNL     1      -2.475  11.583  18.079  0.00  0.00    +0.000 A 
ATOM      2  C   UNL     1      -1.349  12.130  18.688  0.00  0.00    +0.000 A 
ATOM      3  C   UNL     1      -0.120  11.459  18.662  0.00  0.00    +0.000 A 
ATOM      4  C   UNL     1       0.005  10.215  18.024  0.00  0.00    +0.000 A 
ATOM      5  C   UNL     1      -1.107   9.672  17.389  0.00  0.00    +0.000 A 
ATOM      6  C   UNL     1      -2.330  10.364  17.408  0.00  0.00    +0.000 A 
ENDROOT
BRANCH   4   7
ATOM      7  C   UNL     1       1.299   9.493  18.133  0.00  0.00    +0.000 C 
ATOM      8  O   UNL     1       2.310  10.155  18.005  0.00  0.00    +0.000 OA
ATOM      9  N   UNL     1       1.236   8.105  18.325  0.00  0.00    +0.000 N 
ATOM     10  H   UNL     1       0.350   7.623  18.265  0.00  0.00    +0.000 HD
BRANCH   9  11
ATOM     11  C   UNL     1       2.407   7.318  18.424  0.00  0.00    +0.000 A 
ATOM     12  C   UNL     1       3.386   7.344  17.431  0.00  0.00    +0.000 A 
ATOM     13  C   UNL     1       4.543   6.588  17.537  0.00  0.00    +0.000 A 
ATOM     14  C   UNL     1       4.763   5.765  18.638  0.00  0.00    +0.000 A 
ATOM     15  C   UNL     1       3.773   5.716  19.648  0.00  0.00    +0.000 A 
ATOM     16  C   UNL     1       2.609   6.497  19.533  0.00  0.00    +0.000 A 
BRANCH  14  17
ATOM     17  C   UNL     1       6.047   5.005  18.746  0.00  0.00    +0.000 C 
ATOM     18  O   UNL     1       6.808   5.104  19.689  0.00  0.00    +0.000 OA
BRANCH  17  19
ATOM     19  O   UNL     1       6.300   4.193  17.684  0.00  0.00    +0.000 OA
ATOM     20  H   UNL     1       5.583   3.710  17.229  0.00  0.00    +0.000 HD
ENDBRANCH  17  19
ENDBRANCH  14  17
ENDBRANCH   9  11
ENDBRANCH   4   7
BRANCH   1  21
ATOM     21  N   UNL     1      -3.671  12.272  18.158  0.00  0.00    +0.000 N 
ATOM     22  H   UNL     1      -3.804  13.067  17.544  0.00  0.00    +0.000 HD
BRANCH  21  23
ATOM     23  C   UNL     1      -4.839  11.736  18.824  0.00  0.00    +0.000 C 
BRANCH  23  24
ATOM     24  C   UNL     1      -5.418  12.775  19.785  0.00  0.00    +0.000 C 
BRANCH  24  25
ATOM     25  C   UNL     1      -4.756  12.651  21.155  0.00  0.00    +0.000 C 
BRANCH  25  26
ATOM     26  C   UNL     1      -5.717  13.047  22.268  0.00  0.00    +0.000 C 
BRANCH  26  27
ATOM     27  C   UNL     1      -5.988  14.545  22.224  0.00  0.00    +0.000 C 
BRANCH  27  28
ATOM     28  C   UNL     1      -5.675  15.179  23.570  0.00  0.00    +0.000 C 
BRANCH  28  29
ATOM     29  C   UNL     1      -4.922  16.485  23.375  0.00  0.00    +0.000 C 
BRANCH  29  30
ATOM     30  C   UNL     1      -3.528  16.380  23.969  0.00  0.00    +0.000 C 
BRANCH  30  31
ATOM     31  C   UNL     1      -3.374  15.064  24.713  0.00  0.00    +0.000 C 
BRANCH  31  32
ATOM     32  C   UNL     1      -1.996  14.477  24.457  0.00  0.00    +0.000 C 
BRANCH  32  33
ATOM     33  C   UNL     1      -2.068  13.437  23.351  0.00  0.00    +0.000 C 
BRANCH  33  34
ATOM     34  C   UNL     1      -0.735  13.345  22.627  0.00  0.00    +0.000 C 
BRANCH  34  35
ATOM     35  C   UNL     1      -0.487  11.921  22.155  0.00  0.00    +0.000 C 
BRANCH  35  36
ATOM     36  C   UNL     1      -1.188  10.932  23.075  0.00  0.00    +0.000 C 
BRANCH  36  38
ATOM     37  C   UNL     1       0.305   9.394  21.785  0.00  0.00    +0.000 C 
ATOM     38  C   UNL     1      -0.466   9.590  23.077  0.00  0.00    +0.000 C 
ENDBRANCH  36  38
ENDBRANCH  35  36
ENDBRANCH  34  35
ENDBRANCH  33  34
ENDBRANCH  32  33
ENDBRANCH  31  32
ENDBRANCH  30  31
ENDBRANCH  29  30
ENDBRANCH  28  29
ENDBRANCH  27  28
ENDBRANCH  26  27
ENDBRANCH  25  26
ENDBRANCH  24  25
ENDBRANCH  23  24
ENDBRANCH  21  23
ENDBRANCH   1  21
TORSDOF 20
ENDMDL
MODEL 7
REMARK VINA RESULT:      -5.7      1.429      2.095
REMARK  Name = 
REMARK  21 active torsions:
REMARK  status: ('A' for Active; 'I' for Inactive)
REMARK    1  A    between atoms: C_1  and  C_2
REMARK    2  A    between atoms: C_2  and  C_3
REMARK    3  A    between atoms: C_3  and  C_4
REMARK    4  A    between atoms: C_4  and  C_5
REMARK    5  A    between atoms: C_5  and  C_6
REMARK    6  A    between atoms: C_6  and  C_7
REMARK    7  A    between atoms: C_7  and  C_8
REMARK    8  A    between atoms: C_8  and  C_9
REMARK    9  A    between atoms: C_9  and  C_10
REMARK   10  A    between atoms: C_10  and  C_11
REMARK   11  A    between atoms: C_11  and  C_12
REMARK   12  A    between atoms: C_12  and  C_13
REMARK   13  A    between atoms: C_13  and  C_14
REMARK   14  A    between atoms: C_14  and  C_15
REMARK   15  A    between atoms: C_15  and  C_16
REMARK   16  A    between atoms: C_16  and  N_17
REMARK   17  A    between atoms: N_17  and  C_18
REMARK   18  A    between atoms: C_21  and  C_22
REMARK   19  A    between atoms: N_24  and  C_25
REMARK   20  A    between atoms: C_28  and  C_29
REMARK   21  A    between atoms: C_29  and  O_31
REMARK                            x       y       z     vdW  Elec       q    Type
REMARK                         _______ _______ _______ _____ _____    ______ ____
ROOT
ATOM      1  C   UNL     1       1.128   9.923  18.385  0.00  0.00    +0.000 A 
ATOM      2  C   UNL     1       1.281  10.697  19.532  0.00  0.00    +0.000 A 
ATOM      3  C   UNL     1       0.183  11.336  20.120  0.00  0.00    +0.000 A 
ATOM      4  C   UNL     1      -1.100  11.216  19.563  0.00  0.00    +0.000 A 
ATOM      5  C   UNL     1      -1.268  10.424  18.432  0.00  0.00    +0.000 A 
ATOM      6  C   UNL     1      -0.161   9.774  17.862  0.00  0.00    +0.000 A 
ENDROOT
BRANCH   4   7
ATOM      7  C   UNL     1      -2.204  12.014  20.156  0.00  0.00    +0.000 C 
ATOM      8  O   UNL     1      -3.164  12.236  19.447  0.00  0.00    +0.000 OA
ATOM      9  N   UNL     1      -2.016  12.478  21.467  0.00  0.00    +0.000 N 
ATOM     10  H   UNL     1      -1.120  12.372  21.921  0.00  0.00    +0.000 HD
BRANCH   9  11
ATOM     11  C   UNL     1      -2.996  13.262  22.121  0.00  0.00    +0.000 A 
ATOM     12  C   UNL     1      -3.025  14.649  21.986  0.00  0.00    +0.000 A 
ATOM     13  C   UNL     1      -3.996  15.416  22.612  0.00  0.00    +0.000 A 
ATOM     14  C   UNL     1      -4.974  14.824  23.407  0.00  0.00    +0.000 A 
ATOM     15  C   UNL     1      -4.950  13.418  23.566  0.00  0.00    +0.000 A 
ATOM     16  C   UNL     1      -3.965  12.653  22.916  0.00  0.00    +0.000 A 
BRANCH  14  17
ATOM     17  C   UNL     1      -6.039  15.676  24.022  0.00  0.00    +0.000 C 
ATOM     18  O   UNL     1      -5.910  16.868  24.226  0.00  0.00    +0.000 OA
BRANCH  17  19
ATOM     19  O   UNL     1      -7.172  14.997  24.348  0.00  0.00    +0.000 OA
ATOM     20  H   UNL     1      -7.571  15.069  25.237  0.00  0.00    +0.000 HD
ENDBRANCH  17  19
ENDBRANCH  14  17
ENDBRANCH   9  11
ENDBRANCH   4   7
BRANCH   1  21
ATOM     21  N   UNL     1       2.250   9.337  17.827  0.00  0.00    +0.000 N 
ATOM     22  H   UNL     1       2.963   9.946  17.442  0.00  0.00    +0.000 HD
BRANCH  21  23
ATOM     23  C   UNL     1       2.600   7.951  18.051  0.00  0.00    +0.000 C 
BRANCH  23  24
ATOM     24  C   UNL     1       1.717   7.358  19.150  0.00  0.00    +0.000 C 
BRANCH  24  25
ATOM     25  C   UNL     1       2.492   6.302  19.935  0.00  0.00    +0.000 C 
BRANCH  25  26
ATOM     26  C   UNL     1       1.549   5.300  20.586  0.00  0.00    +0.000 C 
BRANCH  26  27
ATOM     27  C   UNL     1       2.340   4.281  21.397  0.00  0.00    +0.000 C 
BRANCH  27  28
ATOM     28  C   UNL     1       2.184   2.893  20.798  0.00  0.00    +0.000 C 
BRANCH  28  29
ATOM     29  C   UNL     1       3.528   2.373  20.313  0.00  0.00    +0.000 C 
BRANCH  29  30
ATOM     30  C   UNL     1       3.408   1.860  18.889  0.00  0.00    +0.000 C 
BRANCH  30  31
ATOM     31  C   UNL     1       2.105   2.334  18.269  0.00  0.00    +0.000 C 
BRANCH  31  32
ATOM     32  C   UNL     1       2.352   3.551  17.395  0.00  0.00    +0.000 C 
BRANCH  32  33
ATOM     33  C   UNL     1       3.796   3.569  16.918  0.00  0.00    +0.000 C 
BRANCH  33  34
ATOM     34  C   UNL     1       4.464   4.876  17.311  0.00  0.00    +0.000 C 
BRANCH  34  35
ATOM     35  C   UNL     1       5.006   5.582  16.078  0.00  0.00    +0.000 C 
BRANCH  35  36
ATOM     36  C   UNL     1       6.528   5.599  16.105  0.00  0.00    +0.000 C 
BRANCH  36  38
ATOM     37  C   UNL     1       6.044   4.262  14.047  0.00  0.00    +0.000 C 
ATOM     38  C   UNL     1       7.098   4.634  15.073  0.00  0.00    +0.000 C 
ENDBRANCH  36  38
ENDBRANCH  35  36
ENDBRANCH  34  35
ENDBRANCH  33  34
ENDBRANCH  32  33
ENDBRANCH  31  32
ENDBRANCH  30  31
ENDBRANCH  29  30
ENDBRANCH  28  29
ENDBRANCH  27  28
ENDBRANCH  26  27
ENDBRANCH  25  26
ENDBRANCH  24  25
ENDBRANCH  23  24
ENDBRANCH  21  23
ENDBRANCH   1  21
TORSDOF 20
ENDMDL
MODEL 8
REMARK VINA RESULT:      -5.7      1.588      2.361
REMARK  Name = 
REMARK  21 active torsions:
REMARK  status: ('A' for Active; 'I' for Inactive)
REMARK    1  A    between atoms: C_1  and  C_2
REMARK    2  A    between atoms: C_2  and  C_3
REMARK    3  A    between atoms: C_3  and  C_4
REMARK    4  A    between atoms: C_4  and  C_5
REMARK    5  A    between atoms: C_5  and  C_6
REMARK    6  A    between atoms: C_6  and  C_7
REMARK    7  A    between atoms: C_7  and  C_8
REMARK    8  A    between atoms: C_8  and  C_9
REMARK    9  A    between atoms: C_9  and  C_10
REMARK   10  A    between atoms: C_10  and  C_11
REMARK   11  A    between atoms: C_11  and  C_12
REMARK   12  A    between atoms: C_12  and  C_13
REMARK   13  A    between atoms: C_13  and  C_14
REMARK   14  A    between atoms: C_14  and  C_15
REMARK   15  A    between atoms: C_15  and  C_16
REMARK   16  A    between atoms: C_16  and  N_17
REMARK   17  A    between atoms: N_17  and  C_18
REMARK   18  A    between atoms: C_21  and  C_22
REMARK   19  A    between atoms: N_24  and  C_25
REMARK   20  A    between atoms: C_28  and  C_29
REMARK   21  A    between atoms: C_29  and  O_31
REMARK                            x       y       z     vdW  Elec       q    Type
REMARK                         _______ _______ _______ _____ _____    ______ ____
ROOT
ATOM      1  C   UNL     1       0.083  10.093  18.426  0.00  0.00    +0.000 A 
ATOM      2  C   UNL     1       0.641  10.696  19.550  0.00  0.00    +0.000 A 
ATOM      3  C   UNL     1      -0.054  11.686  20.254  0.00  0.00    +0.000 A 
ATOM      4  C   UNL     1      -1.330  12.099  19.841  0.00  0.00    +0.000 A 
ATOM      5  C   UNL     1      -1.908  11.484  18.735  0.00  0.00    +0.000 A 
ATOM      6  C   UNL     1      -1.207  10.480  18.047  0.00  0.00    +0.000 A 
ENDROOT
BRANCH   4   7
ATOM      7  C   UNL     1      -1.968  13.237  20.552  0.00  0.00    +0.000 C 
ATOM      8  O   UNL     1      -1.691  14.353  20.162  0.00  0.00    +0.000 OA
ATOM      9  N   UNL     1      -2.795  12.921  21.640  0.00  0.00    +0.000 N 
ATOM     10  H   UNL     1      -2.842  11.972  21.985  0.00  0.00    +0.000 HD
BRANCH   9  11
ATOM     11  C   UNL     1      -3.437  13.928  22.398  0.00  0.00    +0.000 A 
ATOM     12  C   UNL     1      -2.712  14.805  23.203  0.00  0.00    +0.000 A 
ATOM     13  C   UNL     1      -3.339  15.804  23.931  0.00  0.00    +0.000 A 
ATOM     14  C   UNL     1      -4.722  15.960  23.890  0.00  0.00    +0.000 A 
ATOM     15  C   UNL     1      -5.475  15.069  23.089  0.00  0.00    +0.000 A 
ATOM     16  C   UNL     1      -4.823  14.067  22.348  0.00  0.00    +0.000 A 
BRANCH  14  17
ATOM     17  C   UNL     1      -5.360  17.084  24.645  0.00  0.00    +0.000 C 
ATOM     18  O   UNL     1      -4.974  17.464  25.734  0.00  0.00    +0.000 OA
BRANCH  17  19
ATOM     19  O   UNL     1      -6.425  17.642  24.010  0.00  0.00    +0.000 OA
ATOM     20  H   UNL     1      -6.411  18.574  23.715  0.00  0.00    +0.000 HD
ENDBRANCH  17  19
ENDBRANCH  14  17
ENDBRANCH   9  11
ENDBRANCH   4   7
BRANCH   1  21
ATOM     21  N   UNL     1       0.824   9.141  17.749  0.00  0.00    +0.000 N 
ATOM     22  H   UNL     1       0.363   8.613  17.016  0.00  0.00    +0.000 HD
BRANCH  21  23
ATOM     23  C   UNL     1       2.268   9.086  17.810  0.00  0.00    +0.000 C 
BRANCH  23  24
ATOM     24  C   UNL     1       2.727   7.659  18.112  0.00  0.00    +0.000 C 
BRANCH  24  25
ATOM     25  C   UNL     1       2.302   7.256  19.521  0.00  0.00    +0.000 C 
BRANCH  25  26
ATOM     26  C   UNL     1       2.696   5.818  19.824  0.00  0.00    +0.000 C 
BRANCH  26  27
ATOM     27  C   UNL     1       1.876   5.279  20.989  0.00  0.00    +0.000 C 
BRANCH  27  28
ATOM     28  C   UNL     1       1.517   3.821  20.754  0.00  0.00    +0.000 C 
BRANCH  28  29
ATOM     29  C   UNL     1       0.688   3.679  19.488  0.00  0.00    +0.000 C 
BRANCH  29  30
ATOM     30  C   UNL     1       1.403   2.783  18.492  0.00  0.00    +0.000 C 
BRANCH  30  31
ATOM     31  C   UNL     1       2.568   2.077  19.164  0.00  0.00    +0.000 C 
BRANCH  31  32
ATOM     32  C   UNL     1       3.632   1.729  18.136  0.00  0.00    +0.000 C 
BRANCH  32  33
ATOM     33  C   UNL     1       3.843   2.895  17.186  0.00  0.00    +0.000 C 
BRANCH  33  34
ATOM     34  C   UNL     1       4.856   3.870  17.765  0.00  0.00    +0.000 C 
BRANCH  34  35
ATOM     35  C   UNL     1       5.191   4.950  16.748  0.00  0.00    +0.000 C 
BRANCH  35  36
ATOM     36  C   UNL     1       6.672   4.907  16.402  0.00  0.00    +0.000 C 
BRANCH  36  38
ATOM     37  C   UNL     1       6.029   3.875  14.217  0.00  0.00    +0.000 C 
ATOM     38  C   UNL     1       6.876   4.936  14.893  0.00  0.00    +0.000 C 
ENDBRANCH  36  38
ENDBRANCH  35  36
ENDBRANCH  34  35
ENDBRANCH  33  34
ENDBRANCH  32  33
ENDBRANCH  31  32
ENDBRANCH  30  31
ENDBRANCH  29  30
ENDBRANCH  28  29
ENDBRANCH  27  28
ENDBRANCH  26  27
ENDBRANCH  25  26
ENDBRANCH  24  25
ENDBRANCH  23  24
ENDBRANCH  21  23
ENDBRANCH   1  21
TORSDOF 20
ENDMDL
MODEL 9
REMARK VINA RESULT:      -5.7      5.806     11.100
REMARK  Name = 
REMARK  21 active torsions:
REMARK  status: ('A' for Active; 'I' for Inactive)
REMARK    1  A    between atoms: C_1  and  C_2
REMARK    2  A    between atoms: C_2  and  C_3
REMARK    3  A    between atoms: C_3  and  C_4
REMARK    4  A    between atoms: C_4  and  C_5
REMARK    5  A    between atoms: C_5  and  C_6
REMARK    6  A    between atoms: C_6  and  C_7
REMARK    7  A    between atoms: C_7  and  C_8
REMARK    8  A    between atoms: C_8  and  C_9
REMARK    9  A    between atoms: C_9  and  C_10
REMARK   10  A    between atoms: C_10  and  C_11
REMARK   11  A    between atoms: C_11  and  C_12
REMARK   12  A    between atoms: C_12  and  C_13
REMARK   13  A    between atoms: C_13  and  C_14
REMARK   14  A    between atoms: C_14  and  C_15
REMARK   15  A    between atoms: C_15  and  C_16
REMARK   16  A    between atoms: C_16  and  N_17
REMARK   17  A    between atoms: N_17  and  C_18
REMARK   18  A    between atoms: C_21  and  C_22
REMARK   19  A    between atoms: N_24  and  C_25
REMARK   20  A    between atoms: C_28  and  C_29
REMARK   21  A    between atoms: C_29  and  O_31
REMARK                            x       y       z     vdW  Elec       q    Type
REMARK                         _______ _______ _______ _____ _____    ______ ____
ROOT
ATOM      1  C   UNL     1       6.867   5.365  18.084  0.00  0.00    +0.000 A 
ATOM      2  C   UNL     1       6.546   6.342  17.146  0.00  0.00    +0.000 A 
ATOM      3  C   UNL     1       7.119   7.618  17.211  0.00  0.00    +0.000 A 
ATOM      4  C   UNL     1       8.030   7.943  18.229  0.00  0.00    +0.000 A 
ATOM      5  C   UNL     1       8.378   6.966  19.155  0.00  0.00    +0.000 A 
ATOM      6  C   UNL     1       7.808   5.685  19.068  0.00  0.00    +0.000 A 
ENDROOT
BRANCH   4   7
ATOM      7  C   UNL     1       8.512   9.346  18.321  0.00  0.00    +0.000 C 
ATOM      8  O   UNL     1       8.134  10.115  17.461  0.00  0.00    +0.000 OA
ATOM      9  N   UNL     1       9.400   9.642  19.367  0.00  0.00    +0.000 N 
ATOM     10  H   UNL     1       9.777   8.901  19.941  0.00  0.00    +0.000 HD
BRANCH   9  11
ATOM     11  C   UNL     1       9.934  10.941  19.537  0.00  0.00    +0.000 A 
ATOM     12  C   UNL     1      11.062  11.361  18.832  0.00  0.00    +0.000 A 
ATOM     13  C   UNL     1      11.574  12.640  18.985  0.00  0.00    +0.000 A 
ATOM     14  C   UNL     1      10.984  13.549  19.857  0.00  0.00    +0.000 A 
ATOM     15  C   UNL     1       9.847  13.135  20.591  0.00  0.00    +0.000 A 
ATOM     16  C   UNL     1       9.331  11.838  20.418  0.00  0.00    +0.000 A 
BRANCH  14  17
ATOM     17  C   UNL     1      11.530  14.939  19.955  0.00  0.00    +0.000 C 
ATOM     18  O   UNL     1      12.172  15.471  19.070  0.00  0.00    +0.000 OA
BRANCH  17  19
ATOM     19  O   UNL     1      11.257  15.559  21.135  0.00  0.00    +0.000 OA
ATOM     20  H   UNL     1      10.744  15.114  21.837  0.00  0.00    +0.000 HD
ENDBRANCH  17  19
ENDBRANCH  14  17
ENDBRANCH   9  11
ENDBRANCH   4   7
BRANCH   1  21
ATOM     21  N   UNL     1       6.251   4.130  17.991  0.00  0.00    +0.000 N 
ATOM     22  H   UNL     1       6.742   3.388  17.506  0.00  0.00    +0.000 HD
BRANCH  21  23
ATOM     23  C   UNL     1       5.115   3.761  18.809  0.00  0.00    +0.000 C 
BRANCH  23  24
ATOM     24  C   UNL     1       3.909   4.632  18.456  0.00  0.00    +0.000 C 
BRANCH  24  25
ATOM     25  C   UNL     1       3.208   5.100  19.729  0.00  0.00    +0.000 C 
BRANCH  25  26
ATOM     26  C   UNL     1       2.537   6.450  19.522  0.00  0.00    +0.000 C 
BRANCH  26  27
ATOM     27  C   UNL     1       2.639   6.873  18.062  0.00  0.00    +0.000 C 
BRANCH  27  28
ATOM     28  C   UNL     1       2.353   8.359  17.920  0.00  0.00    +0.000 C 
BRANCH  28  29
ATOM     29  C   UNL     1       1.536   8.854  19.104  0.00  0.00    +0.000 C 
BRANCH  29  30
ATOM     30  C   UNL     1       0.433   9.783  18.626  0.00  0.00    +0.000 C 
BRANCH  30  31
ATOM     31  C   UNL     1      -0.423  10.228  19.800  0.00  0.00    +0.000 C 
BRANCH  31  32
ATOM     32  C   UNL     1      -1.346  11.357  19.376  0.00  0.00    +0.000 C 
BRANCH  32  33
ATOM     33  C   UNL     1      -0.767  12.083  18.173  0.00  0.00    +0.000 C 
BRANCH  33  34
ATOM     34  C   UNL     1      -0.372  13.501  18.552  0.00  0.00    +0.000 C 
BRANCH  34  35
ATOM     35  C   UNL     1       0.981  13.505  19.246  0.00  0.00    +0.000 C 
BRANCH  35  36
ATOM     36  C   UNL     1       1.858  14.615  18.686  0.00  0.00    +0.000 C 
BRANCH  36  38
ATOM     37  C   UNL     1       1.338  16.510  20.233  0.00  0.00    +0.000 C 
ATOM     38  C   UNL     1       1.172  15.969  18.826  0.00  0.00    +0.000 C 
ENDBRANCH  36  38
ENDBRANCH  35  36
ENDBRANCH  34  35
ENDBRANCH  33  34
ENDBRANCH  32  33
ENDBRANCH  31  32
ENDBRANCH  30  31
ENDBRANCH  29  30
ENDBRANCH  28  29
ENDBRANCH  27  28
ENDBRANCH  26  27
ENDBRANCH  25  26
ENDBRANCH  24  25
ENDBRANCH  23  24
ENDBRANCH  21  23
ENDBRANCH   1  21
TORSDOF 20
ENDMDL
