MODEL 1
REMARK VINA RESULT:      -8.1      0.000      0.000
REMARK  Name = 
REMARK  10 active torsions:
REMARK  status: ('A' for Active; 'I' for Inactive)
REMARK    1  A    between atoms: C_1  and  C_2
REMARK    2  A    between atoms: C_2  and  C_21
REMARK    3  A    between atoms: N_3  and  N_4
REMARK    4  A    between atoms: N_4  and  C_5
REMARK    5  A    between atoms: C_5  and  N_7
REMARK    6  A    between atoms: N_7  and  C_8
REMARK    7  A    between atoms: C_11  and  C_12
REMARK    8  A    between atoms: N_14  and  C_15
REMARK    9  A    between atoms: C_15  and  C_16
REMARK   10  A    between atoms: C_16  and  O_18
REMARK                            x       y       z     vdW  Elec       q    Type
REMARK                         _______ _______ _______ _____ _____    ______ ____
ROOT
ATOM      1  N   UNL     1       4.352   5.211  19.504  0.00  0.00    +0.000 N 
ATOM      2  H   UNL     1       4.848   4.910  20.335  0.00  0.00    +0.000 HD
ENDROOT
BRANCH   1   3
ATOM      3  C   UNL     1       5.021   5.107  18.268  0.00  0.00    +0.000 A 
ATOM      4  C   UNL     1       6.334   4.647  18.156  0.00  0.00    +0.000 A 
ATOM      5  C   UNL     1       6.948   4.512  16.906  0.00  0.00    +0.000 A 
ATOM      6  C   UNL     1       6.251   4.831  15.736  0.00  0.00    +0.000 A 
ATOM      7  C   UNL     1       4.928   5.283  15.836  0.00  0.00    +0.000 A 
ATOM      8  C   UNL     1       4.318   5.408  17.093  0.00  0.00    +0.000 A 
BRANCH   6   9
ATOM      9  C   UNL     1       6.873   4.627  14.398  0.00  0.00    +0.000 C 
ATOM     10  O   UNL     1       7.890   5.233  14.078  0.00  0.00    +0.000 OA
ATOM     11  N   UNL     1       6.239   3.738  13.561  0.00  0.00    +0.000 N 
ATOM     12  H   UNL     1       5.478   3.156  13.895  0.00  0.00    +0.000 HD
BRANCH  11  13
ATOM     13  C   UNL     1       6.692   3.498  12.204  0.00  0.00    +0.000 C 
BRANCH  13  14
ATOM     14  C   UNL     1       5.863   2.390  11.581  0.00  0.00    +0.000 C 
ATOM     15  O   UNL     1       4.657   2.475  11.347  0.00  0.00    +0.000 OA
BRANCH  14  16
ATOM     16  O   UNL     1       6.572   1.268  11.295  0.00  0.00    +0.000 OA
ATOM     17  H   UNL     1       7.192   1.369  10.554  0.00  0.00    +0.000 HD
ENDBRANCH  14  16
ENDBRANCH  13  14
ENDBRANCH  11  13
ENDBRANCH   6   9
ENDBRANCH   1   3
BRANCH   1  18
ATOM     18  C   UNL     1       3.034   5.510  19.796  0.00  0.00    +0.000 C 
ATOM     19  S   UNL     1       1.873   4.573  20.551  0.00  0.00    +0.000 S 
BRANCH  18  20
ATOM     20  N   UNL     1       2.686   6.813  19.474  0.00  0.00    +0.000 N 
ATOM     21  H   UNL     1       3.284   7.270  18.797  0.00  0.00    +0.000 HD
BRANCH  20  24
ATOM     22  C   UNL     1       1.389   9.188  18.480  0.00  0.00    +0.000 C 
ATOM     23  C   UNL     1       1.349   8.653  19.901  0.00  0.00    +0.000 C 
ATOM     24  N   UNL     1       1.901   7.545  20.313  0.00  0.00    +0.000 NA
BRANCH  23  25
ATOM     25  C   UNL     1       0.588   9.475  20.912  0.00  0.00    +0.000 A 
ATOM     26  C   UNL     1       0.351  10.846  20.728  0.00  0.00    +0.000 A 
ATOM     27  C   UNL     1      -0.351  11.579  21.689  0.00  0.00    +0.000 A 
ATOM     28  C   UNL     1      -0.821  10.953  22.841  0.00  0.00    +0.000 A 
ATOM     29  C   UNL     1      -0.593   9.593  23.036  0.00  0.00    +0.000 A 
ATOM     30  C   UNL     1       0.110   8.857  22.077  0.00  0.00    +0.000 A 
ENDBRANCH  23  25
ENDBRANCH  20  24
ENDBRANCH  18  20
ENDBRANCH   1  18
TORSDOF 9
ENDMDL
MODEL 2
REMARK VINA RESULT:      -7.9      1.353      2.223
REMARK  Name = 
REMARK  10 active torsions:
REMARK  status: ('A' for Active; 'I' for Inactive)
REMARK    1  A    between atoms: C_1  and  C_2
REMARK    2  A    between atoms: C_2  and  C_21
REMARK    3  A    between atoms: N_3  and  N_4
REMARK    4  A    between atoms: N_4  and  C_5
REMARK    5  A    between atoms: C_5  and  N_7
REMARK    6  A    between atoms: N_7  and  C_8
REMARK    7  A    between atoms: C_11  and  C_12
REMARK    8  A    between atoms: N_14  and  C_15
REMARK    9  A    between atoms: C_15  and  C_16
REMARK   10  A    between atoms: C_16  and  O_18
REMARK                            x       y       z     vdW  Elec       q    Type
REMARK                         _______ _______ _______ _____ _____    ______ ____
ROOT
ATOM      1  N   UNL     1       2.225   6.052  18.757  0.00  0.00    +0.000 N 
ATOM      2  H   UNL     1       1.481   6.638  18.396  0.00  0.00    +0.000 HD
ENDROOT
BRANCH   1   3
ATOM      3  C   UNL     1       3.244   5.663  17.865  0.00  0.00    +0.000 A 
ATOM      4  C   UNL     1       3.431   4.339  17.463  0.00  0.00    +0.000 A 
ATOM      5  C   UNL     1       4.423   4.000  16.537  0.00  0.00    +0.000 A 
ATOM      6  C   UNL     1       5.249   4.987  15.989  0.00  0.00    +0.000 A 
ATOM      7  C   UNL     1       5.062   6.321  16.377  0.00  0.00    +0.000 A 
ATOM      8  C   UNL     1       4.059   6.653  17.300  0.00  0.00    +0.000 A 
BRANCH   6   9
ATOM      9  C   UNL     1       6.263   4.643  14.953  0.00  0.00    +0.000 C 
ATOM     10  O   UNL     1       7.453   4.873  15.137  0.00  0.00    +0.000 OA
ATOM     11  N   UNL     1       5.783   4.071  13.798  0.00  0.00    +0.000 N 
ATOM     12  H   UNL     1       4.815   3.775  13.723  0.00  0.00    +0.000 HD
BRANCH  11  13
ATOM     13  C   UNL     1       6.647   3.754  12.677  0.00  0.00    +0.000 C 
BRANCH  13  14
ATOM     14  C   UNL     1       6.003   2.673  11.828  0.00  0.00    +0.000 C 
ATOM     15  O   UNL     1       4.819   2.672  11.491  0.00  0.00    +0.000 OA
BRANCH  14  16
ATOM     16  O   UNL     1       6.855   1.682  11.462  0.00  0.00    +0.000 OA
ATOM     17  H   UNL     1       6.548   1.154  10.706  0.00  0.00    +0.000 HD
ENDBRANCH  14  16
ENDBRANCH  13  14
ENDBRANCH  11  13
ENDBRANCH   6   9
ENDBRANCH   1   3
BRANCH   1  18
ATOM     18  C   UNL     1       2.122   5.913  20.129  0.00  0.00    +0.000 C 
ATOM     19  S   UNL     1       2.150   4.526  21.062  0.00  0.00    +0.000 S 
BRANCH  18  20
ATOM     20  N   UNL     1       2.070   7.127  20.798  0.00  0.00    +0.000 N 
ATOM     21  H   UNL     1       2.036   7.067  21.808  0.00  0.00    +0.000 HD
BRANCH  20  24
ATOM     22  C   UNL     1       0.469   9.054  22.223  0.00  0.00    +0.000 C 
ATOM     23  C   UNL     1       0.881   9.112  20.762  0.00  0.00    +0.000 C 
ATOM     24  N   UNL     1       1.652   8.253  20.154  0.00  0.00    +0.000 NA
BRANCH  23  25
ATOM     25  C   UNL     1       0.360  10.277  19.957  0.00  0.00    +0.000 A 
ATOM     26  C   UNL     1      -0.744  10.153  19.100  0.00  0.00    +0.000 A 
ATOM     27  C   UNL     1      -1.196  11.251  18.363  0.00  0.00    +0.000 A 
ATOM     28  C   UNL     1      -0.550  12.481  18.471  0.00  0.00    +0.000 A 
ATOM     29  C   UNL     1       0.548  12.617  19.318  0.00  0.00    +0.000 A 
ATOM     30  C   UNL     1       1.002  11.520  20.056  0.00  0.00    +0.000 A 
ENDBRANCH  23  25
ENDBRANCH  20  24
ENDBRANCH  18  20
ENDBRANCH   1  18
TORSDOF 9
ENDMDL
MODEL 3
REMARK VINA RESULT:      -7.8      1.220      1.979
REMARK  Name = 
REMARK  10 active torsions:
REMARK  status: ('A' for Active; 'I' for Inactive)
REMARK    1  A    between atoms: C_1  and  C_2
REMARK    2  A    between atoms: C_2  and  C_21
REMARK    3  A    between atoms: N_3  and  N_4
REMARK    4  A    between atoms: N_4  and  C_5
REMARK    5  A    between atoms: C_5  and  N_7
REMARK    6  A    between atoms: N_7  and  C_8
REMARK    7  A    between atoms: C_11  and  C_12
REMARK    8  A    between atoms: N_14  and  C_15
REMARK    9  A    between atoms: C_15  and  C_16
REMARK   10  A    between atoms: C_16  and  O_18
REMARK                            x       y       z     vdW  Elec       q    Type
REMARK                         _______ _______ _______ _____ _____    ______ ____
ROOT
ATOM      1  N   UNL     1       3.641   6.255  19.576  0.00  0.00    +0.000 N 
ATOM      2  H   UNL     1       4.199   6.730  20.277  0.00  0.00    +0.000 HD
ENDROOT
BRANCH   1   3
ATOM      3  C   UNL     1       4.261   5.931  18.353  0.00  0.00    +0.000 A 
ATOM      4  C   UNL     1       4.397   6.847  17.309  0.00  0.00    +0.000 A 
ATOM      5  C   UNL     1       5.063   6.502  16.128  0.00  0.00    +0.000 A 
ATOM      6  C   UNL     1       5.615   5.226  15.972  0.00  0.00    +0.000 A 
ATOM      7  C   UNL     1       5.494   4.302  17.019  0.00  0.00    +0.000 A 
ATOM      8  C   UNL     1       4.832   4.660  18.203  0.00  0.00    +0.000 A 
BRANCH   6   9
ATOM      9  C   UNL     1       6.384   4.872  14.746  0.00  0.00    +0.000 C 
ATOM     10  O   UNL     1       7.502   5.336  14.548  0.00  0.00    +0.000 OA
ATOM     11  N   UNL     1       5.764   4.017  13.866  0.00  0.00    +0.000 N 
ATOM     12  H   UNL     1       4.897   3.549  14.112  0.00  0.00    +0.000 HD
BRANCH  11  13
ATOM     13  C   UNL     1       6.363   3.646  12.598  0.00  0.00    +0.000 C 
BRANCH  13  14
ATOM     14  C   UNL     1       5.411   2.749  11.828  0.00  0.00    +0.000 C 
ATOM     15  O   UNL     1       4.286   3.088  11.459  0.00  0.00    +0.000 OA
BRANCH  14  16
ATOM     16  O   UNL     1       5.907   1.511  11.574  0.00  0.00    +0.000 OA
ATOM     17  H   UNL     1       5.679   0.847  12.246  0.00  0.00    +0.000 HD
ENDBRANCH  14  16
ENDBRANCH  13  14
ENDBRANCH  11  13
ENDBRANCH   6   9
ENDBRANCH   1   3
BRANCH   1  18
ATOM     18  C   UNL     1       2.408   5.895  20.088  0.00  0.00    +0.000 C 
ATOM     19  S   UNL     1       1.594   4.439  19.975  0.00  0.00    +0.000 S 
BRANCH  18  20
ATOM     20  N   UNL     1       1.832   6.884  20.871  0.00  0.00    +0.000 N 
ATOM     21  H   UNL     1       1.640   6.624  21.831  0.00  0.00    +0.000 HD
BRANCH  20  24
ATOM     22  C   UNL     1       1.178   9.194  22.466  0.00  0.00    +0.000 C 
ATOM     23  C   UNL     1       0.827   8.965  21.006  0.00  0.00    +0.000 C 
ATOM     24  N   UNL     1       1.183   7.932  20.291  0.00  0.00    +0.000 NA
BRANCH  23  25
ATOM     25  C   UNL     1       0.011  10.037  20.328  0.00  0.00    +0.000 A 
ATOM     26  C   UNL     1      -0.124  10.097  18.933  0.00  0.00    +0.000 A 
ATOM     27  C   UNL     1      -0.882  11.109  18.337  0.00  0.00    +0.000 A 
ATOM     28  C   UNL     1      -1.510  12.070  19.126  0.00  0.00    +0.000 A 
ATOM     29  C   UNL     1      -1.384  12.022  20.513  0.00  0.00    +0.000 A 
ATOM     30  C   UNL     1      -0.626  11.011  21.111  0.00  0.00    +0.000 A 
ENDBRANCH  23  25
ENDBRANCH  20  24
ENDBRANCH  18  20
ENDBRANCH   1  18
TORSDOF 9
ENDMDL
MODEL 4
REMARK VINA RESULT:      -7.6      1.271      2.108
REMARK  Name = 
REMARK  10 active torsions:
REMARK  status: ('A' for Active; 'I' for Inactive)
REMARK    1  A    between atoms: C_1  and  C_2
REMARK    2  A    between atoms: C_2  and  C_21
REMARK    3  A    between atoms: N_3  and  N_4
REMARK    4  A    between atoms: N_4  and  C_5
REMARK    5  A    between atoms: C_5  and  N_7
REMARK    6  A    between atoms: N_7  and  C_8
REMARK    7  A    between atoms: C_11  and  C_12
REMARK    8  A    between atoms: N_14  and  C_15
REMARK    9  A    between atoms: C_15  and  C_16
REMARK   10  A    between atoms: C_16  and  O_18
REMARK                            x       y       z     vdW  Elec       q    Type
REMARK                         _______ _______ _______ _____ _____    ______ ____
ROOT
ATOM      1  N   UNL     1       2.501   6.512  18.766  0.00  0.00    +0.000 N 
ATOM      2  H   UNL     1       2.002   7.366  18.544  0.00  0.00    +0.000 HD
ENDROOT
BRANCH   1   3
ATOM      3  C   UNL     1       3.445   6.044  17.830  0.00  0.00    +0.000 A 
ATOM      4  C   UNL     1       3.562   4.697  17.485  0.00  0.00    +0.000 A 
ATOM      5  C   UNL     1       4.479   4.278  16.514  0.00  0.00    +0.000 A 
ATOM      6  C   UNL     1       5.297   5.207  15.863  0.00  0.00    +0.000 A 
ATOM      7  C   UNL     1       5.179   6.564  16.194  0.00  0.00    +0.000 A 
ATOM      8  C   UNL     1       4.251   6.976  17.162  0.00  0.00    +0.000 A 
BRANCH   6   9
ATOM      9  C   UNL     1       6.228   4.778  14.782  0.00  0.00    +0.000 C 
ATOM     10  O   UNL     1       7.403   5.128  14.788  0.00  0.00    +0.000 OA
ATOM     11  N   UNL     1       5.689   3.988  13.793  0.00  0.00    +0.000 N 
ATOM     12  H   UNL     1       4.752   3.609  13.879  0.00  0.00    +0.000 HD
BRANCH  11  13
ATOM     13  C   UNL     1       6.460   3.559  12.642  0.00  0.00    +0.000 C 
BRANCH  13  14
ATOM     14  C   UNL     1       5.594   2.696  11.743  0.00  0.00    +0.000 C 
ATOM     15  O   UNL     1       5.938   1.604  11.290  0.00  0.00    +0.000 OA
BRANCH  14  16
ATOM     16  O   UNL     1       4.379   3.237  11.467  0.00  0.00    +0.000 OA
ATOM     17  H   UNL     1       4.361   4.208  11.497  0.00  0.00    +0.000 HD
ENDBRANCH  14  16
ENDBRANCH  13  14
ENDBRANCH  11  13
ENDBRANCH   6   9
ENDBRANCH   1   3
BRANCH   1  18
ATOM     18  C   UNL     1       2.225   6.099  20.056  0.00  0.00    +0.000 C 
ATOM     19  S   UNL     1       2.431   4.596  20.758  0.00  0.00    +0.000 S 
BRANCH  18  20
ATOM     20  N   UNL     1       1.793   7.129  20.877  0.00  0.00    +0.000 N 
ATOM     21  H   UNL     1       1.719   6.901  21.861  0.00  0.00    +0.000 HD
BRANCH  20  24
ATOM     22  C   UNL     1       1.037   9.308  22.606  0.00  0.00    +0.000 C 
ATOM     23  C   UNL     1       0.710   9.159  21.130  0.00  0.00    +0.000 C 
ATOM     24  N   UNL     1       1.111   8.188  20.357  0.00  0.00    +0.000 NA
BRANCH  23  25
ATOM     25  C   UNL     1      -0.138  10.242  20.512  0.00  0.00    +0.000 A 
ATOM     26  C   UNL     1      -0.305  10.352  19.122  0.00  0.00    +0.000 A 
ATOM     27  C   UNL     1      -1.092  11.373  18.582  0.00  0.00    +0.000 A 
ATOM     28  C   UNL     1      -1.717  12.294  19.420  0.00  0.00    +0.000 A 
ATOM     29  C   UNL     1      -1.559  12.196  20.800  0.00  0.00    +0.000 A 
ATOM     30  C   UNL     1      -0.772  11.176  21.344  0.00  0.00    +0.000 A 
ENDBRANCH  23  25
ENDBRANCH  20  24
ENDBRANCH  18  20
ENDBRANCH   1  18
TORSDOF 9
ENDMDL
MODEL 5
REMARK VINA RESULT:      -7.5      4.617      9.802
REMARK  Name = 
REMARK  10 active torsions:
REMARK  status: ('A' for Active; 'I' for Inactive)
REMARK    1  A    between atoms: C_1  and  C_2
REMARK    2  A    between atoms: C_2  and  C_21
REMARK    3  A    between atoms: N_3  and  N_4
REMARK    4  A    between atoms: N_4  and  C_5
REMARK    5  A    between atoms: C_5  and  N_7
REMARK    6  A    between atoms: N_7  and  C_8
REMARK    7  A    between atoms: C_11  and  C_12
REMARK    8  A    between atoms: N_14  and  C_15
REMARK    9  A    between atoms: C_15  and  C_16
REMARK   10  A    between atoms: C_16  and  O_18
REMARK                            x       y       z     vdW  Elec       q    Type
REMARK                         _______ _______ _______ _____ _____    ______ ____
ROOT
ATOM      1  N   UNL     1       3.407   4.260  18.460  0.00  0.00    +0.000 N 
ATOM      2  H   UNL     1       2.858   3.704  17.814  0.00  0.00    +0.000 HD
ENDROOT
BRANCH   1   3
ATOM      3  C   UNL     1       2.884   5.506  18.860  0.00  0.00    +0.000 A 
ATOM      4  C   UNL     1       2.952   6.646  18.058  0.00  0.00    +0.000 A 
ATOM      5  C   UNL     1       2.377   7.854  18.470  0.00  0.00    +0.000 A 
ATOM      6  C   UNL     1       1.713   7.940  19.699  0.00  0.00    +0.000 A 
ATOM      7  C   UNL     1       1.630   6.797  20.507  0.00  0.00    +0.000 A 
ATOM      8  C   UNL     1       2.202   5.590  20.082  0.00  0.00    +0.000 A 
BRANCH   6   9
ATOM      9  C   UNL     1       1.041   9.203  20.115  0.00  0.00    +0.000 C 
ATOM     10  O   UNL     1       0.504   9.932  19.288  0.00  0.00    +0.000 OA
ATOM     11  N   UNL     1       1.071   9.493  21.459  0.00  0.00    +0.000 N 
ATOM     12  H   UNL     1       1.407   8.814  22.135  0.00  0.00    +0.000 HD
BRANCH  11  13
ATOM     13  C   UNL     1       0.522  10.724  21.996  0.00  0.00    +0.000 C 
BRANCH  13  14
ATOM     14  C   UNL     1      -0.661  10.405  22.891  0.00  0.00    +0.000 C 
ATOM     15  O   UNL     1      -1.612  11.165  23.077  0.00  0.00    +0.000 OA
BRANCH  14  16
ATOM     16  O   UNL     1      -0.587   9.188  23.488  0.00  0.00    +0.000 OA
ATOM     17  H   UNL     1      -1.276   8.565  23.206  0.00  0.00    +0.000 HD
ENDBRANCH  14  16
ENDBRANCH  13  14
ENDBRANCH  11  13
ENDBRANCH   6   9
ENDBRANCH   1   3
BRANCH   1  18
ATOM     18  C   UNL     1       4.499   3.548  18.921  0.00  0.00    +0.000 C 
ATOM     19  S   UNL     1       4.548   2.180  19.880  0.00  0.00    +0.000 S 
BRANCH  18  20
ATOM     20  N   UNL     1       5.706   4.020  18.427  0.00  0.00    +0.000 N 
ATOM     21  H   UNL     1       6.153   4.739  18.983  0.00  0.00    +0.000 HD
BRANCH  20  24
ATOM     22  C   UNL     1       6.509   6.315  16.879  0.00  0.00    +0.000 C 
ATOM     23  C   UNL     1       6.338   4.891  16.378  0.00  0.00    +0.000 C 
ATOM     24  N   UNL     1       6.025   3.859  17.113  0.00  0.00    +0.000 NA
BRANCH  23  25
ATOM     25  C   UNL     1       6.567   4.658  14.905  0.00  0.00    +0.000 A 
ATOM     26  C   UNL     1       7.546   5.362  14.187  0.00  0.00    +0.000 A 
ATOM     27  C   UNL     1       7.727   5.127  12.820  0.00  0.00    +0.000 A 
ATOM     28  C   UNL     1       6.934   4.193  12.159  0.00  0.00    +0.000 A 
ATOM     29  C   UNL     1       5.958   3.488  12.861  0.00  0.00    +0.000 A 
ATOM     30  C   UNL     1       5.775   3.721  14.228  0.00  0.00    +0.000 A 
ENDBRANCH  23  25
ENDBRANCH  20  24
ENDBRANCH  18  20
ENDBRANCH   1  18
TORSDOF 9
ENDMDL
MODEL 6
REMARK VINA RESULT:      -7.5      4.843      9.326
REMARK  Name = 
REMARK  10 active torsions:
REMARK  status: ('A' for Active; 'I' for Inactive)
REMARK    1  A    between atoms: C_1  and  C_2
REMARK    2  A    between atoms: C_2  and  C_21
REMARK    3  A    between atoms: N_3  and  N_4
REMARK    4  A    between atoms: N_4  and  C_5
REMARK    5  A    between atoms: C_5  and  N_7
REMARK    6  A    between atoms: N_7  and  C_8
REMARK    7  A    between atoms: C_11  and  C_12
REMARK    8  A    between atoms: N_14  and  C_15
REMARK    9  A    between atoms: C_15  and  C_16
REMARK   10  A    between atoms: C_16  and  O_18
REMARK                            x       y       z     vdW  Elec       q    Type
REMARK                         _______ _______ _______ _____ _____    ______ ____
ROOT
ATOM      1  N   UNL     1       2.987   6.183  20.126  0.00  0.00    +0.000 N 
ATOM      2  H   UNL     1       3.965   6.264  20.378  0.00  0.00    +0.000 HD
ENDROOT
BRANCH   1   3
ATOM      3  C   UNL     1       2.316   7.353  19.717  0.00  0.00    +0.000 A 
ATOM      4  C   UNL     1       2.344   7.820  18.402  0.00  0.00    +0.000 A 
ATOM      5  C   UNL     1       1.625   8.960  18.025  0.00  0.00    +0.000 A 
ATOM      6  C   UNL     1       0.854   9.654  18.964  0.00  0.00    +0.000 A 
ATOM      7  C   UNL     1       0.810   9.186  20.285  0.00  0.00    +0.000 A 
ATOM      8  C   UNL     1       1.527   8.038  20.652  0.00  0.00    +0.000 A 
BRANCH   6   9
ATOM      9  C   UNL     1       0.032  10.828  18.557  0.00  0.00    +0.000 C 
ATOM     10  O   UNL     1       0.375  11.968  18.852  0.00  0.00    +0.000 OA
ATOM     11  N   UNL     1      -1.115  10.552  17.851  0.00  0.00    +0.000 N 
ATOM     12  H   UNL     1      -1.308   9.616  17.510  0.00  0.00    +0.000 HD
BRANCH  11  13
ATOM     13  C   UNL     1      -2.047  11.591  17.455  0.00  0.00    +0.000 C 
BRANCH  13  14
ATOM     14  C   UNL     1      -3.142  11.716  18.498  0.00  0.00    +0.000 C 
ATOM     15  O   UNL     1      -4.323  11.427  18.299  0.00  0.00    +0.000 OA
BRANCH  14  16
ATOM     16  O   UNL     1      -2.710  12.184  19.696  0.00  0.00    +0.000 OA
ATOM     17  H   UNL     1      -3.423  12.456  20.297  0.00  0.00    +0.000 HD
ENDBRANCH  14  16
ENDBRANCH  13  14
ENDBRANCH  11  13
ENDBRANCH   6   9
ENDBRANCH   1   3
BRANCH   1  18
ATOM     18  C   UNL     1       2.593   4.858  20.097  0.00  0.00    +0.000 C 
ATOM     19  S   UNL     1       1.067   4.198  20.277  0.00  0.00    +0.000 S 
BRANCH  18  20
ATOM     20  N   UNL     1       3.628   3.987  19.792  0.00  0.00    +0.000 N 
ATOM     21  H   UNL     1       4.155   3.642  20.585  0.00  0.00    +0.000 HD
BRANCH  20  24
ATOM     22  C   UNL     1       6.217   5.169  19.331  0.00  0.00    +0.000 C 
ATOM     23  C   UNL     1       5.305   4.536  18.294  0.00  0.00    +0.000 C 
ATOM     24  N   UNL     1       4.160   3.959  18.538  0.00  0.00    +0.000 NA
BRANCH  23  25
ATOM     25  C   UNL     1       5.781   4.568  16.863  0.00  0.00    +0.000 A 
ATOM     26  C   UNL     1       7.092   4.941  16.526  0.00  0.00    +0.000 A 
ATOM     27  C   UNL     1       7.498   4.968  15.188  0.00  0.00    +0.000 A 
ATOM     28  C   UNL     1       6.603   4.627  14.177  0.00  0.00    +0.000 A 
ATOM     29  C   UNL     1       5.299   4.255  14.500  0.00  0.00    +0.000 A 
ATOM     30  C   UNL     1       4.890   4.228  15.836  0.00  0.00    +0.000 A 
ENDBRANCH  23  25
ENDBRANCH  20  24
ENDBRANCH  18  20
ENDBRANCH   1  18
TORSDOF 9
ENDMDL
MODEL 7
REMARK VINA RESULT:      -7.4      4.670      9.174
REMARK  Name = 
REMARK  10 active torsions:
REMARK  status: ('A' for Active; 'I' for Inactive)
REMARK    1  A    between atoms: C_1  and  C_2
REMARK    2  A    between atoms: C_2  and  C_21
REMARK    3  A    between atoms: N_3  and  N_4
REMARK    4  A    between atoms: N_4  and  C_5
REMARK    5  A    between atoms: C_5  and  N_7
REMARK    6  A    between atoms: N_7  and  C_8
REMARK    7  A    between atoms: C_11  and  C_12
REMARK    8  A    between atoms: N_14  and  C_15
REMARK    9  A    between atoms: C_15  and  C_16
REMARK   10  A    between atoms: C_16  and  O_18
REMARK                            x       y       z     vdW  Elec       q    Type
REMARK                         _______ _______ _______ _____ _____    ______ ____
ROOT
ATOM      1  N   UNL     1       3.121   6.158  20.000  0.00  0.00    +0.000 N 
ATOM      2  H   UNL     1       4.129   6.247  19.941  0.00  0.00    +0.000 HD
ENDROOT
BRANCH   1   3
ATOM      3  C   UNL     1       2.349   7.317  19.788  0.00  0.00    +0.000 A 
ATOM      4  C   UNL     1       2.235   7.932  18.541  0.00  0.00    +0.000 A 
ATOM      5  C   UNL     1       1.418   9.054  18.360  0.00  0.00    +0.000 A 
ATOM      6  C   UNL     1       0.691   9.581  19.433  0.00  0.00    +0.000 A 
ATOM      7  C   UNL     1       0.789   8.964  20.688  0.00  0.00    +0.000 A 
ATOM      8  C   UNL     1       1.604   7.835  20.857  0.00  0.00    +0.000 A 
BRANCH   6   9
ATOM      9  C   UNL     1      -0.232  10.734  19.235  0.00  0.00    +0.000 C 
ATOM     10  O   UNL     1      -0.505  11.488  20.162  0.00  0.00    +0.000 OA
ATOM     11  N   UNL     1      -0.752  10.887  17.970  0.00  0.00    +0.000 N 
ATOM     12  H   UNL     1      -0.411  10.330  17.194  0.00  0.00    +0.000 HD
BRANCH  11  13
ATOM     13  C   UNL     1      -1.719  11.919  17.653  0.00  0.00    +0.000 C 
BRANCH  13  14
ATOM     14  C   UNL     1      -2.828  11.333  16.799  0.00  0.00    +0.000 C 
ATOM     15  O   UNL     1      -4.022  11.366  17.096  0.00  0.00    +0.000 OA
BRANCH  14  16
ATOM     16  O   UNL     1      -2.389  10.752  15.653  0.00  0.00    +0.000 OA
ATOM     17  H   UNL     1      -2.014   9.864  15.776  0.00  0.00    +0.000 HD
ENDBRANCH  14  16
ENDBRANCH  13  14
ENDBRANCH  11  13
ENDBRANCH   6   9
ENDBRANCH   1   3
BRANCH   1  18
ATOM     18  C   UNL     1       2.748   4.833  20.122  0.00  0.00    +0.000 C 
ATOM     19  S   UNL     1       1.277   4.179  20.572  0.00  0.00    +0.000 S 
BRANCH  18  20
ATOM     20  N   UNL     1       3.741   3.948  19.728  0.00  0.00    +0.000 N 
ATOM     21  H   UNL     1       4.005   3.253  20.416  0.00  0.00    +0.000 HD
BRANCH  20  24
ATOM     22  C   UNL     1       2.970   3.316  17.024  0.00  0.00    +0.000 C 
ATOM     23  C   UNL     1       4.279   3.939  17.477  0.00  0.00    +0.000 C 
ATOM     24  N   UNL     1       4.582   4.265  18.704  0.00  0.00    +0.000 NA
BRANCH  23  25
ATOM     25  C   UNL     1       5.305   4.216  16.406  0.00  0.00    +0.000 A 
ATOM     26  C   UNL     1       6.570   4.742  16.708  0.00  0.00    +0.000 A 
ATOM     27  C   UNL     1       7.494   4.994  15.690  0.00  0.00    +0.000 A 
ATOM     28  C   UNL     1       7.165   4.726  14.363  0.00  0.00    +0.000 A 
ATOM     29  C   UNL     1       5.912   4.204  14.051  0.00  0.00    +0.000 A 
ATOM     30  C   UNL     1       4.985   3.952  15.067  0.00  0.00    +0.000 A 
ENDBRANCH  23  25
ENDBRANCH  20  24
ENDBRANCH  18  20
ENDBRANCH   1  18
TORSDOF 9
ENDMDL
MODEL 8
REMARK VINA RESULT:      -7.4      3.211      4.921
REMARK  Name = 
REMARK  10 active torsions:
REMARK  status: ('A' for Active; 'I' for Inactive)
REMARK    1  A    between atoms: C_1  and  C_2
REMARK    2  A    between atoms: C_2  and  C_21
REMARK    3  A    between atoms: N_3  and  N_4
REMARK    4  A    between atoms: N_4  and  C_5
REMARK    5  A    between atoms: C_5  and  N_7
REMARK    6  A    between atoms: N_7  and  C_8
REMARK    7  A    between atoms: C_11  and  C_12
REMARK    8  A    between atoms: N_14  and  C_15
REMARK    9  A    between atoms: C_15  and  C_16
REMARK   10  A    between atoms: C_16  and  O_18
REMARK                            x       y       z     vdW  Elec       q    Type
REMARK                         _______ _______ _______ _____ _____    ______ ____
ROOT
ATOM      1  N   UNL     1       0.645   7.582  20.986  0.00  0.00    +0.000 N 
ATOM      2  H   UNL     1      -0.303   7.230  20.919  0.00  0.00    +0.000 HD
ENDROOT
BRANCH   1   3
ATOM      3  C   UNL     1       1.674   6.804  20.418  0.00  0.00    +0.000 A 
ATOM      4  C   UNL     1       1.919   5.483  20.796  0.00  0.00    +0.000 A 
ATOM      5  C   UNL     1       2.919   4.728  20.173  0.00  0.00    +0.000 A 
ATOM      6  C   UNL     1       3.692   5.283  19.148  0.00  0.00    +0.000 A 
ATOM      7  C   UNL     1       3.446   6.605  18.753  0.00  0.00    +0.000 A 
ATOM      8  C   UNL     1       2.437   7.352  19.377  0.00  0.00    +0.000 A 
BRANCH   6   9
ATOM      9  C   UNL     1       4.713   4.466  18.435  0.00  0.00    +0.000 C 
ATOM     10  O   UNL     1       5.426   3.677  19.045  0.00  0.00    +0.000 OA
ATOM     11  N   UNL     1       4.805   4.658  17.076  0.00  0.00    +0.000 N 
ATOM     12  H   UNL     1       4.120   5.218  16.579  0.00  0.00    +0.000 HD
BRANCH  11  13
ATOM     13  C   UNL     1       5.803   3.985  16.267  0.00  0.00    +0.000 C 
BRANCH  13  14
ATOM     14  C   UNL     1       7.118   4.736  16.353  0.00  0.00    +0.000 C 
ATOM     15  O   UNL     1       7.381   5.749  15.703  0.00  0.00    +0.000 OA
BRANCH  14  16
ATOM     16  O   UNL     1       8.007   4.192  17.223  0.00  0.00    +0.000 OA
ATOM     17  H   UNL     1       8.810   4.722  17.354  0.00  0.00    +0.000 HD
ENDBRANCH  14  16
ENDBRANCH  13  14
ENDBRANCH  11  13
ENDBRANCH   6   9
ENDBRANCH   1   3
BRANCH   1  18
ATOM     18  C   UNL     1       0.661   8.864  21.502  0.00  0.00    +0.000 C 
ATOM     19  S   UNL     1       0.835   9.371  23.085  0.00  0.00    +0.000 S 
BRANCH  18  20
ATOM     20  N   UNL     1       0.602   9.846  20.525  0.00  0.00    +0.000 N 
ATOM     21  H   UNL     1       1.309  10.568  20.589  0.00  0.00    +0.000 HD
BRANCH  20  24
ATOM     22  C   UNL     1       0.633   9.677  17.647  0.00  0.00    +0.000 C 
ATOM     23  C   UNL     1      -0.550  10.045  18.527  0.00  0.00    +0.000 C 
ATOM     24  N   UNL     1      -0.551  10.062  19.831  0.00  0.00    +0.000 NA
BRANCH  23  25
ATOM     25  C   UNL     1      -1.833  10.406  17.820  0.00  0.00    +0.000 A 
ATOM     26  C   UNL     1      -2.143   9.908  16.546  0.00  0.00    +0.000 A 
ATOM     27  C   UNL     1      -3.339  10.268  15.916  0.00  0.00    +0.000 A 
ATOM     28  C   UNL     1      -4.232  11.129  16.550  0.00  0.00    +0.000 A 
ATOM     29  C   UNL     1      -3.935  11.630  17.815  0.00  0.00    +0.000 A 
ATOM     30  C   UNL     1      -2.740  11.272  18.447  0.00  0.00    +0.000 A 
ENDBRANCH  23  25
ENDBRANCH  20  24
ENDBRANCH  18  20
ENDBRANCH   1  18
TORSDOF 9
ENDMDL
MODEL 9
REMARK VINA RESULT:      -7.4      1.211      1.963
REMARK  Name = 
REMARK  10 active torsions:
REMARK  status: ('A' for Active; 'I' for Inactive)
REMARK    1  A    between atoms: C_1  and  C_2
REMARK    2  A    between atoms: C_2  and  C_21
REMARK    3  A    between atoms: N_3  and  N_4
REMARK    4  A    between atoms: N_4  and  C_5
REMARK    5  A    between atoms: C_5  and  N_7
REMARK    6  A    between atoms: N_7  and  C_8
REMARK    7  A    between atoms: C_11  and  C_12
REMARK    8  A    between atoms: N_14  and  C_15
REMARK    9  A    between atoms: C_15  and  C_16
REMARK   10  A    between atoms: C_16  and  O_18
REMARK                            x       y       z     vdW  Elec       q    Type
REMARK                         _______ _______ _______ _____ _____    ______ ____
ROOT
ATOM      1  N   UNL     1       3.802   6.283  19.387  0.00  0.00    +0.000 N 
ATOM      2  H   UNL     1       4.304   6.872  20.043  0.00  0.00    +0.000 HD
ENDROOT
BRANCH   1   3
ATOM      3  C   UNL     1       4.488   5.857  18.233  0.00  0.00    +0.000 A 
ATOM      4  C   UNL     1       4.047   4.795  17.441  0.00  0.00    +0.000 A 
ATOM      5  C   UNL     1       4.729   4.433  16.274  0.00  0.00    +0.000 A 
ATOM      6  C   UNL     1       5.869   5.137  15.872  0.00  0.00    +0.000 A 
ATOM      7  C   UNL     1       6.314   6.213  16.654  0.00  0.00    +0.000 A 
ATOM      8  C   UNL     1       5.619   6.573  17.818  0.00  0.00    +0.000 A 
BRANCH   6   9
ATOM      9  C   UNL     1       6.562   4.801  14.596  0.00  0.00    +0.000 C 
ATOM     10  O   UNL     1       7.638   5.315  14.310  0.00  0.00    +0.000 OA
ATOM     11  N   UNL     1       5.922   3.902  13.775  0.00  0.00    +0.000 N 
ATOM     12  H   UNL     1       5.100   3.397  14.091  0.00  0.00    +0.000 HD
BRANCH  11  13
ATOM     13  C   UNL     1       6.444   3.541  12.471  0.00  0.00    +0.000 C 
BRANCH  13  14
ATOM     14  C   UNL     1       5.429   2.683  11.737  0.00  0.00    +0.000 C 
ATOM     15  O   UNL     1       4.315   3.075  11.390  0.00  0.00    +0.000 OA
BRANCH  14  16
ATOM     16  O   UNL     1       5.856   1.419  11.488  0.00  0.00    +0.000 OA
ATOM     17  H   UNL     1       6.133   1.267  10.570  0.00  0.00    +0.000 HD
ENDBRANCH  14  16
ENDBRANCH  13  14
ENDBRANCH  11  13
ENDBRANCH   6   9
ENDBRANCH   1   3
BRANCH   1  18
ATOM     18  C   UNL     1       2.574   5.909  19.900  0.00  0.00    +0.000 C 
ATOM     19  S   UNL     1       1.773   4.447  19.780  0.00  0.00    +0.000 S 
BRANCH  18  20
ATOM     20  N   UNL     1       1.991   6.889  20.689  0.00  0.00    +0.000 N 
ATOM     21  H   UNL     1       1.700   6.590  21.612  0.00  0.00    +0.000 HD
BRANCH  20  24
ATOM     22  C   UNL     1       1.254   9.112  22.370  0.00  0.00    +0.000 C 
ATOM     23  C   UNL     1       1.067   9.004  20.867  0.00  0.00    +0.000 C 
ATOM     24  N   UNL     1       1.459   8.007  20.121  0.00  0.00    +0.000 NA
BRANCH  23  25
ATOM     25  C   UNL     1       0.381  10.161  20.185  0.00  0.00    +0.000 A 
ATOM     26  C   UNL     1       0.359  11.447  20.748  0.00  0.00    +0.000 A 
ATOM     27  C   UNL     1      -0.293  12.496  20.092  0.00  0.00    +0.000 A 
ATOM     28  C   UNL     1      -0.928  12.273  18.873  0.00  0.00    +0.000 A 
ATOM     29  C   UNL     1      -0.913  11.001  18.304  0.00  0.00    +0.000 A 
ATOM     30  C   UNL     1      -0.263   9.950  18.957  0.00  0.00    +0.000 A 
ENDBRANCH  23  25
ENDBRANCH  20  24
ENDBRANCH  18  20
ENDBRANCH   1  18
TORSDOF 9
ENDMDL
