MODEL 1
REMARK VINA RESULT:      -7.5      0.000      0.000
REMARK  Name = 
REMARK  10 active torsions:
REMARK  status: ('A' for Active; 'I' for Inactive)
REMARK    1  A    between atoms: C_1  and  C_2
REMARK    2  A    between atoms: C_6  and  C_7
REMARK    3  A    between atoms: C_7  and  C_8
REMARK    4  A    between atoms: C_7  and  N_17
REMARK    5  A    between atoms: C_11  and  C_12
REMARK    6  A    between atoms: C_12  and  C_13
REMARK    7  A    between atoms: C_12  and  C_14
REMARK    8  A    between atoms: N_20  and  C_21
REMARK    9  A    between atoms: C_21  and  C_22
REMARK   10  A    between atoms: C_22  and  O_23
REMARK                            x       y       z     vdW  Elec       q    Type
REMARK                         _______ _______ _______ _____ _____    ______ ____
ROOT
ATOM      1  C   UNL     1       2.818   5.994  18.301  0.00  0.00    +0.000 C 
ENDROOT
BRANCH   1   7
ATOM      2  C   UNL     1       2.280   2.970  17.334  0.00  0.00    +0.000 C 
ATOM      3  C   UNL     1       2.022   3.524  18.694  0.00  0.00    +0.000 A 
ATOM      4  C   UNL     1       1.385   2.788  19.745  0.00  0.00    +0.000 A 
ATOM      5  N   UNL     1       1.196   3.414  20.899  0.00  0.00    +0.000 NA
ATOM      6  S   UNL     1       1.763   4.954  20.746  0.00  0.00    +0.000 S 
ATOM      7  C   UNL     1       2.299   4.824  19.125  0.00  0.00    +0.000 A 
ENDBRANCH   1   7
BRANCH   1   8
ATOM      8  C   UNL     1       2.207   7.332  18.741  0.00  0.00    +0.000 A 
ATOM      9  C   UNL     1       1.939   7.644  20.084  0.00  0.00    +0.000 A 
ATOM     10  C   UNL     1       1.383   8.872  20.442  0.00  0.00    +0.000 A 
ATOM     11  C   UNL     1       1.055   9.828  19.469  0.00  0.00    +0.000 A 
ATOM     12  C   UNL     1       1.316   9.523  18.129  0.00  0.00    +0.000 A 
ATOM     13  C   UNL     1       1.882   8.296  17.771  0.00  0.00    +0.000 A 
BRANCH  11  14
ATOM     14  C   UNL     1       0.498  11.171  19.907  0.00  0.00    +0.000 C 
ATOM     15  C   UNL     1       1.106  12.284  19.051  0.00  0.00    +0.000 C 
ATOM     16  C   UNL     1      -1.031  11.248  19.885  0.00  0.00    +0.000 C 
ENDBRANCH  11  14
ENDBRANCH   1   8
BRANCH   1  17
ATOM     17  N   UNL     1       4.241   6.113  17.985  0.00  0.00    +0.000 NA
ATOM     18  C   UNL     1       5.240   5.158  18.400  0.00  0.00    +0.000 C 
ATOM     19  C   UNL     1       5.795   4.256  17.273  0.00  0.00    +0.000 C 
ATOM     20  N   UNL     1       5.951   4.816  15.921  0.00  0.00    +0.000 NA
ATOM     21  C   UNL     1       5.137   6.003  15.632  0.00  0.00    +0.000 C 
ATOM     22  C   UNL     1       4.656   6.868  16.815  0.00  0.00    +0.000 C 
BRANCH  20  23
ATOM     23  C   UNL     1       7.342   4.904  15.452  0.00  0.00    +0.000 C 
BRANCH  23  24
ATOM     24  C   UNL     1       7.446   4.918  13.916  0.00  0.00    +0.000 C 
BRANCH  24  25
ATOM     25  O   UNL     1       8.444   5.848  13.498  0.00  0.00    +0.000 OA
ATOM     26  H   UNL     1       7.986   6.456  12.886  0.00  0.00    +0.000 HD
ENDBRANCH  24  25
ENDBRANCH  23  24
ENDBRANCH  20  23
ENDBRANCH   1  17
TORSDOF 7
ENDMDL
MODEL 2
REMARK VINA RESULT:      -7.4      0.801      1.350
REMARK  Name = 
REMARK  10 active torsions:
REMARK  status: ('A' for Active; 'I' for Inactive)
REMARK    1  A    between atoms: C_1  and  C_2
REMARK    2  A    between atoms: C_6  and  C_7
REMARK    3  A    between atoms: C_7  and  C_8
REMARK    4  A    between atoms: C_7  and  N_17
REMARK    5  A    between atoms: C_11  and  C_12
REMARK    6  A    between atoms: C_12  and  C_13
REMARK    7  A    between atoms: C_12  and  C_14
REMARK    8  A    between atoms: N_20  and  C_21
REMARK    9  A    between atoms: C_21  and  C_22
REMARK   10  A    between atoms: C_22  and  O_23
REMARK                            x       y       z     vdW  Elec       q    Type
REMARK                         _______ _______ _______ _____ _____    ______ ____
ROOT
ATOM      1  C   UNL     1       2.663   6.044  18.606  0.00  0.00    +0.000 C 
ENDROOT
BRANCH   1   7
ATOM      2  C   UNL     1       2.296   3.171  17.199  0.00  0.00    +0.000 C 
ATOM      3  C   UNL     1       1.958   3.515  18.610  0.00  0.00    +0.000 A 
ATOM      4  C   UNL     1       1.311   2.614  19.516  0.00  0.00    +0.000 A 
ATOM      5  N   UNL     1       1.048   3.062  20.736  0.00  0.00    +0.000 NA
ATOM      6  S   UNL     1       1.555   4.628  20.829  0.00  0.00    +0.000 S 
ATOM      7  C   UNL     1       2.161   4.750  19.232  0.00  0.00    +0.000 A 
ENDBRANCH   1   7
BRANCH   1   8
ATOM      8  C   UNL     1       2.056   7.286  19.273  0.00  0.00    +0.000 A 
ATOM      9  C   UNL     1       1.691   8.437  18.557  0.00  0.00    +0.000 A 
ATOM     10  C   UNL     1       1.142   9.545  19.202  0.00  0.00    +0.000 A 
ATOM     11  C   UNL     1       0.953   9.551  20.592  0.00  0.00    +0.000 A 
ATOM     12  C   UNL     1       1.317   8.409  21.313  0.00  0.00    +0.000 A 
ATOM     13  C   UNL     1       1.859   7.296  20.666  0.00  0.00    +0.000 A 
BRANCH  11  14
ATOM     14  C   UNL     1       0.305  10.758  21.247  0.00  0.00    +0.000 C 
ATOM     15  C   UNL     1      -0.702  11.389  20.283  0.00  0.00    +0.000 C 
ATOM     16  C   UNL     1      -0.356  10.454  22.595  0.00  0.00    +0.000 C 
ENDBRANCH  11  14
ENDBRANCH   1   8
BRANCH   1  17
ATOM     17  N   UNL     1       4.080   6.222  18.291  0.00  0.00    +0.000 NA
ATOM     18  C   UNL     1       5.127   5.351  18.770  0.00  0.00    +0.000 C 
ATOM     19  C   UNL     1       5.739   4.413  17.705  0.00  0.00    +0.000 C 
ATOM     20  N   UNL     1       5.876   4.895  16.320  0.00  0.00    +0.000 NA
ATOM     21  C   UNL     1       5.000   6.015  15.954  0.00  0.00    +0.000 C 
ATOM     22  C   UNL     1       4.463   6.923  17.078  0.00  0.00    +0.000 C 
BRANCH  20  23
ATOM     23  C   UNL     1       7.264   5.031  15.854  0.00  0.00    +0.000 C 
BRANCH  23  24
ATOM     24  C   UNL     1       7.402   4.797  14.338  0.00  0.00    +0.000 C 
BRANCH  24  25
ATOM     25  O   UNL     1       8.305   5.746  13.774  0.00  0.00    +0.000 OA
ATOM     26  H   UNL     1       8.000   5.873  12.854  0.00  0.00    +0.000 HD
ENDBRANCH  24  25
ENDBRANCH  23  24
ENDBRANCH  20  23
ENDBRANCH   1  17
TORSDOF 7
ENDMDL
MODEL 3
REMARK VINA RESULT:      -7.3      3.671      7.640
REMARK  Name = 
REMARK  10 active torsions:
REMARK  status: ('A' for Active; 'I' for Inactive)
REMARK    1  A    between atoms: C_1  and  C_2
REMARK    2  A    between atoms: C_6  and  C_7
REMARK    3  A    between atoms: C_7  and  C_8
REMARK    4  A    between atoms: C_7  and  N_17
REMARK    5  A    between atoms: C_11  and  C_12
REMARK    6  A    between atoms: C_12  and  C_13
REMARK    7  A    between atoms: C_12  and  C_14
REMARK    8  A    between atoms: N_20  and  C_21
REMARK    9  A    between atoms: C_21  and  C_22
REMARK   10  A    between atoms: C_22  and  O_23
REMARK                            x       y       z     vdW  Elec       q    Type
REMARK                         _______ _______ _______ _____ _____    ______ ____
ROOT
ATOM      1  C   UNL     1       4.995   6.033  17.361  0.00  0.00    +0.000 C 
ENDROOT
BRANCH   1   7
ATOM      2  C   UNL     1       7.641   7.869  17.386  0.00  0.00    +0.000 C 
ATOM      3  C   UNL     1       7.328   6.754  18.326  0.00  0.00    +0.000 A 
ATOM      4  C   UNL     1       8.238   6.274  19.323  0.00  0.00    +0.000 A 
ATOM      5  N   UNL     1       7.836   5.258  20.075  0.00  0.00    +0.000 NA
ATOM      6  S   UNL     1       6.328   4.815  19.577  0.00  0.00    +0.000 S 
ATOM      7  C   UNL     1       6.158   5.989  18.342  0.00  0.00    +0.000 A 
ENDBRANCH   1   7
BRANCH   1   8
ATOM      8  C   UNL     1       5.325   5.330  16.037  0.00  0.00    +0.000 A 
ATOM      9  C   UNL     1       5.152   5.940  14.784  0.00  0.00    +0.000 A 
ATOM     10  C   UNL     1       5.464   5.266  13.604  0.00  0.00    +0.000 A 
ATOM     11  C   UNL     1       5.944   3.948  13.630  0.00  0.00    +0.000 A 
ATOM     12  C   UNL     1       6.116   3.333  14.874  0.00  0.00    +0.000 A 
ATOM     13  C   UNL     1       5.811   4.011  16.057  0.00  0.00    +0.000 A 
BRANCH  11  14
ATOM     14  C   UNL     1       6.319   3.269  12.324  0.00  0.00    +0.000 C 
ATOM     15  C   UNL     1       5.052   2.934  11.535  0.00  0.00    +0.000 C 
ATOM     16  C   UNL     1       7.294   4.076  11.462  0.00  0.00    +0.000 C 
ENDBRANCH  11  14
ENDBRANCH   1   8
BRANCH   1  17
ATOM     17  N   UNL     1       3.629   5.761  17.808  0.00  0.00    +0.000 NA
ATOM     18  C   UNL     1       2.924   4.531  17.537  0.00  0.00    +0.000 C 
ATOM     19  C   UNL     1       2.750   3.592  18.752  0.00  0.00    +0.000 C 
ATOM     20  N   UNL     1       2.545   4.180  20.087  0.00  0.00    +0.000 NA
ATOM     21  C   UNL     1       2.996   5.569  20.239  0.00  0.00    +0.000 C 
ATOM     22  C   UNL     1       3.107   6.447  18.976  0.00  0.00    +0.000 C 
BRANCH  20  23
ATOM     23  C   UNL     1       1.231   3.898  20.684  0.00  0.00    +0.000 C 
BRANCH  23  24
ATOM     24  C   UNL     1       1.267   2.698  21.648  0.00  0.00    +0.000 C 
BRANCH  24  25
ATOM     25  O   UNL     1       2.589   2.508  22.149  0.00  0.00    +0.000 OA
ATOM     26  H   UNL     1       2.519   2.647  23.114  0.00  0.00    +0.000 HD
ENDBRANCH  24  25
ENDBRANCH  23  24
ENDBRANCH  20  23
ENDBRANCH   1  17
TORSDOF 7
ENDMDL
MODEL 4
REMARK VINA RESULT:      -7.2      0.881      1.401
REMARK  Name = 
REMARK  10 active torsions:
REMARK  status: ('A' for Active; 'I' for Inactive)
REMARK    1  A    between atoms: C_1  and  C_2
REMARK    2  A    between atoms: C_6  and  C_7
REMARK    3  A    between atoms: C_7  and  C_8
REMARK    4  A    between atoms: C_7  and  N_17
REMARK    5  A    between atoms: C_11  and  C_12
REMARK    6  A    between atoms: C_12  and  C_13
REMARK    7  A    between atoms: C_12  and  C_14
REMARK    8  A    between atoms: N_20  and  C_21
REMARK    9  A    between atoms: C_21  and  C_22
REMARK   10  A    between atoms: C_22  and  O_23
REMARK                            x       y       z     vdW  Elec       q    Type
REMARK                         _______ _______ _______ _____ _____    ______ ____
ROOT
ATOM      1  C   UNL     1       2.940   5.318  18.713  0.00  0.00    +0.000 C 
ENDROOT
BRANCH   1   7
ATOM      2  C   UNL     1       0.809   2.939  18.302  0.00  0.00    +0.000 C 
ATOM      3  C   UNL     1       1.470   3.323  19.581  0.00  0.00    +0.000 A 
ATOM      4  C   UNL     1       1.155   2.734  20.849  0.00  0.00    +0.000 A 
ATOM      5  N   UNL     1       1.805   3.190  21.911  0.00  0.00    +0.000 NA
ATOM      6  S   UNL     1       2.820   4.391  21.415  0.00  0.00    +0.000 S 
ATOM      7  C   UNL     1       2.430   4.326  19.749  0.00  0.00    +0.000 A 
ENDBRANCH   1   7
BRANCH   1   8
ATOM      8  C   UNL     1       2.349   6.721  18.911  0.00  0.00    +0.000 A 
ATOM      9  C   UNL     1       2.153   7.623  17.854  0.00  0.00    +0.000 A 
ATOM     10  C   UNL     1       1.613   8.890  18.077  0.00  0.00    +0.000 A 
ATOM     11  C   UNL     1       1.264   9.309  19.370  0.00  0.00    +0.000 A 
ATOM     12  C   UNL     1       1.460   8.416  20.429  0.00  0.00    +0.000 A 
ATOM     13  C   UNL     1       1.993   7.144  20.204  0.00  0.00    +0.000 A 
BRANCH  11  14
ATOM     14  C   UNL     1       0.632  10.676  19.561  0.00  0.00    +0.000 C 
ATOM     15  C   UNL     1      -0.775  10.682  18.959  0.00  0.00    +0.000 C 
ATOM     16  C   UNL     1       0.597  11.147  21.018  0.00  0.00    +0.000 C 
ENDBRANCH  11  14
ENDBRANCH   1   8
BRANCH   1  17
ATOM     17  N   UNL     1       4.357   5.360  18.352  0.00  0.00    +0.000 NA
ATOM     18  C   UNL     1       5.202   4.192  18.275  0.00  0.00    +0.000 C 
ATOM     19  C   UNL     1       5.583   3.750  16.843  0.00  0.00    +0.000 C 
ATOM     20  N   UNL     1       5.795   4.778  15.810  0.00  0.00    +0.000 NA
ATOM     21  C   UNL     1       5.171   6.080  16.079  0.00  0.00    +0.000 C 
ATOM     22  C   UNL     1       4.859   6.455  17.542  0.00  0.00    +0.000 C 
BRANCH  20  23
ATOM     23  C   UNL     1       7.172   4.857  15.300  0.00  0.00    +0.000 C 
BRANCH  23  24
ATOM     24  C   UNL     1       7.226   4.958  13.764  0.00  0.00    +0.000 C 
BRANCH  24  25
ATOM     25  O   UNL     1       8.324   5.776  13.363  0.00  0.00    +0.000 OA
ATOM     26  H   UNL     1       9.001   5.152  13.036  0.00  0.00    +0.000 HD
ENDBRANCH  24  25
ENDBRANCH  23  24
ENDBRANCH  20  23
ENDBRANCH   1  17
TORSDOF 7
ENDMDL
MODEL 5
REMARK VINA RESULT:      -7.2      1.180      1.285
REMARK  Name = 
REMARK  10 active torsions:
REMARK  status: ('A' for Active; 'I' for Inactive)
REMARK    1  A    between atoms: C_1  and  C_2
REMARK    2  A    between atoms: C_6  and  C_7
REMARK    3  A    between atoms: C_7  and  C_8
REMARK    4  A    between atoms: C_7  and  N_17
REMARK    5  A    between atoms: C_11  and  C_12
REMARK    6  A    between atoms: C_12  and  C_13
REMARK    7  A    between atoms: C_12  and  C_14
REMARK    8  A    between atoms: N_20  and  C_21
REMARK    9  A    between atoms: C_21  and  C_22
REMARK   10  A    between atoms: C_22  and  O_23
REMARK                            x       y       z     vdW  Elec       q    Type
REMARK                         _______ _______ _______ _____ _____    ______ ____
ROOT
ATOM      1  C   UNL     1       2.573   5.972  18.969  0.00  0.00    +0.000 C 
ENDROOT
BRANCH   1   7
ATOM      2  C   UNL     1       1.065   3.409  17.735  0.00  0.00    +0.000 C 
ATOM      3  C   UNL     1       1.442   3.610  19.163  0.00  0.00    +0.000 A 
ATOM      4  C   UNL     1       1.078   2.711  20.217  0.00  0.00    +0.000 A 
ATOM      5  N   UNL     1       1.461   3.028  21.447  0.00  0.00    +0.000 NA
ATOM      6  S   UNL     1       2.264   4.467  21.380  0.00  0.00    +0.000 S 
ATOM      7  C   UNL     1       2.138   4.703  19.689  0.00  0.00    +0.000 A 
ENDBRANCH   1   7
BRANCH   1   8
ATOM      8  C   UNL     1       1.987   7.236  19.614  0.00  0.00    +0.000 A 
ATOM      9  C   UNL     1       1.649   7.313  20.975  0.00  0.00    +0.000 A 
ATOM     10  C   UNL     1       1.118   8.481  21.522  0.00  0.00    +0.000 A 
ATOM     11  C   UNL     1       0.888   9.611  20.725  0.00  0.00    +0.000 A 
ATOM     12  C   UNL     1       1.219   9.542  19.368  0.00  0.00    +0.000 A 
ATOM     13  C   UNL     1       1.759   8.374  18.822  0.00  0.00    +0.000 A 
BRANCH  11  14
ATOM     14  C   UNL     1       0.357  10.879  21.372  0.00  0.00    +0.000 C 
ATOM     15  C   UNL     1      -0.372  11.724  20.325  0.00  0.00    +0.000 C 
ATOM     16  C   UNL     1      -0.544  10.628  22.585  0.00  0.00    +0.000 C 
ENDBRANCH  11  14
ENDBRANCH   1   8
BRANCH   1  17
ATOM     17  N   UNL     1       3.963   6.156  18.554  0.00  0.00    +0.000 NA
ATOM     18  C   UNL     1       5.082   5.480  19.164  0.00  0.00    +0.000 C 
ATOM     19  C   UNL     1       5.721   4.362  18.309  0.00  0.00    +0.000 C 
ATOM     20  N   UNL     1       5.777   4.525  16.846  0.00  0.00    +0.000 NA
ATOM     21  C   UNL     1       4.815   5.479  16.281  0.00  0.00    +0.000 C 
ATOM     22  C   UNL     1       4.255   6.586  17.197  0.00  0.00    +0.000 C 
BRANCH  20  23
ATOM     23  C   UNL     1       7.136   4.632  16.295  0.00  0.00    +0.000 C 
BRANCH  23  24
ATOM     24  C   UNL     1       7.137   4.838  14.768  0.00  0.00    +0.000 C 
BRANCH  24  25
ATOM     25  O   UNL     1       6.588   3.695  14.116  0.00  0.00    +0.000 OA
ATOM     26  H   UNL     1       5.622   3.768  14.243  0.00  0.00    +0.000 HD
ENDBRANCH  24  25
ENDBRANCH  23  24
ENDBRANCH  20  23
ENDBRANCH   1  17
TORSDOF 7
ENDMDL
MODEL 6
REMARK VINA RESULT:      -7.0      1.208      1.563
REMARK  Name = 
REMARK  10 active torsions:
REMARK  status: ('A' for Active; 'I' for Inactive)
REMARK    1  A    between atoms: C_1  and  C_2
REMARK    2  A    between atoms: C_6  and  C_7
REMARK    3  A    between atoms: C_7  and  C_8
REMARK    4  A    between atoms: C_7  and  N_17
REMARK    5  A    between atoms: C_11  and  C_12
REMARK    6  A    between atoms: C_12  and  C_13
REMARK    7  A    between atoms: C_12  and  C_14
REMARK    8  A    between atoms: N_20  and  C_21
REMARK    9  A    between atoms: C_21  and  C_22
REMARK   10  A    between atoms: C_22  and  O_23
REMARK                            x       y       z     vdW  Elec       q    Type
REMARK                         _______ _______ _______ _____ _____    ______ ____
ROOT
ATOM      1  C   UNL     1       2.283   5.445  18.495  0.00  0.00    +0.000 C 
ENDROOT
BRANCH   1   7
ATOM      2  C   UNL     1       0.533   2.742  18.570  0.00  0.00    +0.000 C 
ATOM      3  C   UNL     1       1.351   3.298  19.686  0.00  0.00    +0.000 A 
ATOM      4  C   UNL     1       1.380   2.741  21.005  0.00  0.00    +0.000 A 
ATOM      5  N   UNL     1       2.135   3.353  21.908  0.00  0.00    +0.000 NA
ATOM      6  S   UNL     1       2.827   4.668  21.193  0.00  0.00    +0.000 S 
ATOM      7  C   UNL     1       2.147   4.446  19.636  0.00  0.00    +0.000 A 
ENDBRANCH   1   7
BRANCH   1   8
ATOM      8  C   UNL     1       1.896   6.868  18.919  0.00  0.00    +0.000 A 
ATOM      9  C   UNL     1       1.664   7.231  20.256  0.00  0.00    +0.000 A 
ATOM     10  C   UNL     1       1.314   8.536  20.599  0.00  0.00    +0.000 A 
ATOM     11  C   UNL     1       1.164   9.526  19.617  0.00  0.00    +0.000 A 
ATOM     12  C   UNL     1       1.391   9.172  18.283  0.00  0.00    +0.000 A 
ATOM     13  C   UNL     1       1.750   7.866  17.939  0.00  0.00    +0.000 A 
BRANCH  11  14
ATOM     14  C   UNL     1       0.832  10.947  20.039  0.00  0.00    +0.000 C 
ATOM     15  C   UNL     1      -0.081  11.594  18.995  0.00  0.00    +0.000 C 
ATOM     16  C   UNL     1       0.214  11.052  21.436  0.00  0.00    +0.000 C 
ENDBRANCH  11  14
ENDBRANCH   1   8
BRANCH   1  17
ATOM     17  N   UNL     1       3.456   5.427  17.622  0.00  0.00    +0.000 NA
ATOM     18  C   UNL     1       4.482   6.442  17.632  0.00  0.00    +0.000 C 
ATOM     19  C   UNL     1       5.827   6.010  18.261  0.00  0.00    +0.000 C 
ATOM     20  N   UNL     1       6.286   4.622  18.086  0.00  0.00    +0.000 NA
ATOM     21  C   UNL     1       5.237   3.649  17.757  0.00  0.00    +0.000 C 
ATOM     22  C   UNL     1       3.941   4.162  17.098  0.00  0.00    +0.000 C 
BRANCH  20  23
ATOM     23  C   UNL     1       7.517   4.480  17.294  0.00  0.00    +0.000 C 
BRANCH  23  24
ATOM     24  C   UNL     1       7.246   4.480  15.778  0.00  0.00    +0.000 C 
BRANCH  24  25
ATOM     25  O   UNL     1       7.719   5.691  15.193  0.00  0.00    +0.000 OA
ATOM     26  H   UNL     1       6.966   6.312  15.246  0.00  0.00    +0.000 HD
ENDBRANCH  24  25
ENDBRANCH  23  24
ENDBRANCH  20  23
ENDBRANCH   1  17
TORSDOF 7
ENDMDL
MODEL 7
REMARK VINA RESULT:      -7.0      1.398      1.955
REMARK  Name = 
REMARK  10 active torsions:
REMARK  status: ('A' for Active; 'I' for Inactive)
REMARK    1  A    between atoms: C_1  and  C_2
REMARK    2  A    between atoms: C_6  and  C_7
REMARK    3  A    between atoms: C_7  and  C_8
REMARK    4  A    between atoms: C_7  and  N_17
REMARK    5  A    between atoms: C_11  and  C_12
REMARK    6  A    between atoms: C_12  and  C_13
REMARK    7  A    between atoms: C_12  and  C_14
REMARK    8  A    between atoms: N_20  and  C_21
REMARK    9  A    between atoms: C_21  and  C_22
REMARK   10  A    between atoms: C_22  and  O_23
REMARK                            x       y       z     vdW  Elec       q    Type
REMARK                         _______ _______ _______ _____ _____    ______ ____
ROOT
ATOM      1  C   UNL     1       2.363   5.575  18.814  0.00  0.00    +0.000 C 
ENDROOT
BRANCH   1   7
ATOM      2  C   UNL     1       0.622   2.881  18.527  0.00  0.00    +0.000 C 
ATOM      3  C   UNL     1       1.404   3.306  19.723  0.00  0.00    +0.000 A 
ATOM      4  C   UNL     1       1.395   2.603  20.971  0.00  0.00    +0.000 A 
ATOM      5  N   UNL     1       2.119   3.108  21.960  0.00  0.00    +0.000 NA
ATOM      6  S   UNL     1       2.828   4.496  21.421  0.00  0.00    +0.000 S 
ATOM      7  C   UNL     1       2.196   4.453  19.829  0.00  0.00    +0.000 A 
ENDBRANCH   1   7
BRANCH   1   8
ATOM      8  C   UNL     1       1.858   6.922  19.348  0.00  0.00    +0.000 A 
ATOM      9  C   UNL     1       1.804   8.084  18.562  0.00  0.00    +0.000 A 
ATOM     10  C   UNL     1       1.338   9.289  19.086  0.00  0.00    +0.000 A 
ATOM     11  C   UNL     1       0.925   9.384  20.423  0.00  0.00    +0.000 A 
ATOM     12  C   UNL     1       0.980   8.232  21.214  0.00  0.00    +0.000 A 
ATOM     13  C   UNL     1       1.438   7.021  20.686  0.00  0.00    +0.000 A 
BRANCH  11  14
ATOM     14  C   UNL     1       0.377  10.703  20.939  0.00  0.00    +0.000 C 
ATOM     15  C   UNL     1      -0.565  11.312  19.898  0.00  0.00    +0.000 C 
ATOM     16  C   UNL     1      -0.319  10.597  22.299  0.00  0.00    +0.000 C 
ENDBRANCH  11  14
ENDBRANCH   1   8
BRANCH   1  17
ATOM     17  N   UNL     1       3.602   5.711  18.048  0.00  0.00    +0.000 NA
ATOM     18  C   UNL     1       4.740   6.483  18.489  0.00  0.00    +0.000 C 
ATOM     19  C   UNL     1       5.957   5.651  18.955  0.00  0.00    +0.000 C 
ATOM     20  N   UNL     1       6.255   4.379  18.276  0.00  0.00    +0.000 NA
ATOM     21  C   UNL     1       5.130   3.769  17.556  0.00  0.00    +0.000 C 
ATOM     22  C   UNL     1       3.974   4.680  17.096  0.00  0.00    +0.000 C 
BRANCH  20  23
ATOM     23  C   UNL     1       7.528   4.363  17.540  0.00  0.00    +0.000 C 
BRANCH  23  24
ATOM     24  C   UNL     1       7.346   4.671  16.041  0.00  0.00    +0.000 C 
BRANCH  24  25
ATOM     25  O   UNL     1       7.506   6.068  15.803  0.00  0.00    +0.000 OA
ATOM     26  H   UNL     1       6.698   6.483  16.164  0.00  0.00    +0.000 HD
ENDBRANCH  24  25
ENDBRANCH  23  24
ENDBRANCH  20  23
ENDBRANCH   1  17
TORSDOF 7
ENDMDL
MODEL 8
REMARK VINA RESULT:      -7.0      1.373      1.726
REMARK  Name = 
REMARK  10 active torsions:
REMARK  status: ('A' for Active; 'I' for Inactive)
REMARK    1  A    between atoms: C_1  and  C_2
REMARK    2  A    between atoms: C_6  and  C_7
REMARK    3  A    between atoms: C_7  and  C_8
REMARK    4  A    between atoms: C_7  and  N_17
REMARK    5  A    between atoms: C_11  and  C_12
REMARK    6  A    between atoms: C_12  and  C_13
REMARK    7  A    between atoms: C_12  and  C_14
REMARK    8  A    between atoms: N_20  and  C_21
REMARK    9  A    between atoms: C_21  and  C_22
REMARK   10  A    between atoms: C_22  and  O_23
REMARK                            x       y       z     vdW  Elec       q    Type
REMARK                         _______ _______ _______ _____ _____    ______ ____
ROOT
ATOM      1  C   UNL     1       2.694   5.181  18.359  0.00  0.00    +0.000 C 
ENDROOT
BRANCH   1   7
ATOM      2  C   UNL     1       0.432   3.154  19.429  0.00  0.00    +0.000 C 
ATOM      3  C   UNL     1       1.868   3.168  19.829  0.00  0.00    +0.000 A 
ATOM      4  C   UNL     1       2.418   2.327  20.849  0.00  0.00    +0.000 A 
ATOM      5  N   UNL     1       3.710   2.463  21.120  0.00  0.00    +0.000 NA
ATOM      6  S   UNL     1       4.313   3.658  20.157  0.00  0.00    +0.000 S 
ATOM      7  C   UNL     1       2.858   4.019  19.329  0.00  0.00    +0.000 A 
ENDBRANCH   1   7
BRANCH   1   8
ATOM      8  C   UNL     1       2.189   6.452  19.054  0.00  0.00    +0.000 A 
ATOM      9  C   UNL     1       1.851   6.495  20.417  0.00  0.00    +0.000 A 
ATOM     10  C   UNL     1       1.396   7.672  21.011  0.00  0.00    +0.000 A 
ATOM     11  C   UNL     1       1.244   8.847  20.261  0.00  0.00    +0.000 A 
ATOM     12  C   UNL     1       1.575   8.812  18.903  0.00  0.00    +0.000 A 
ATOM     13  C   UNL     1       2.040   7.635  18.309  0.00  0.00    +0.000 A 
BRANCH  11  14
ATOM     14  C   UNL     1       0.794  10.120  20.959  0.00  0.00    +0.000 C 
ATOM     15  C   UNL     1      -0.155  10.899  20.046  0.00  0.00    +0.000 C 
ATOM     16  C   UNL     1       0.153   9.884  22.329  0.00  0.00    +0.000 C 
ENDBRANCH  11  14
ENDBRANCH   1   8
BRANCH   1  17
ATOM     17  N   UNL     1       3.719   5.468  17.356  0.00  0.00    +0.000 NA
ATOM     18  C   UNL     1       4.807   6.394  17.560  0.00  0.00    +0.000 C 
ATOM     19  C   UNL     1       6.195   5.744  17.759  0.00  0.00    +0.000 C 
ATOM     20  N   UNL     1       6.519   4.510  17.023  0.00  0.00    +0.000 NA
ATOM     21  C   UNL     1       5.365   3.740  16.545  0.00  0.00    +0.000 C 
ATOM     22  C   UNL     1       4.026   4.477  16.339  0.00  0.00    +0.000 C 
BRANCH  20  23
ATOM     23  C   UNL     1       7.604   4.651  16.041  0.00  0.00    +0.000 C 
BRANCH  23  24
ATOM     24  C   UNL     1       7.079   4.827  14.604  0.00  0.00    +0.000 C 
BRANCH  24  25
ATOM     25  O   UNL     1       7.986   5.622  13.842  0.00  0.00    +0.000 OA
ATOM     26  H   UNL     1       8.295   6.317  14.456  0.00  0.00    +0.000 HD
ENDBRANCH  24  25
ENDBRANCH  23  24
ENDBRANCH  20  23
ENDBRANCH   1  17
TORSDOF 7
ENDMDL
MODEL 9
REMARK VINA RESULT:      -7.0      4.979      8.873
REMARK  Name = 
REMARK  10 active torsions:
REMARK  status: ('A' for Active; 'I' for Inactive)
REMARK    1  A    between atoms: C_1  and  C_2
REMARK    2  A    between atoms: C_6  and  C_7
REMARK    3  A    between atoms: C_7  and  C_8
REMARK    4  A    between atoms: C_7  and  N_17
REMARK    5  A    between atoms: C_11  and  C_12
REMARK    6  A    between atoms: C_12  and  C_13
REMARK    7  A    between atoms: C_12  and  C_14
REMARK    8  A    between atoms: N_20  and  C_21
REMARK    9  A    between atoms: C_21  and  C_22
REMARK   10  A    between atoms: C_22  and  O_23
REMARK                            x       y       z     vdW  Elec       q    Type
REMARK                         _______ _______ _______ _____ _____    ______ ____
ROOT
ATOM      1  C   UNL     1       0.290  10.714  18.691  0.00  0.00    +0.000 C 
ENDROOT
BRANCH   1   7
ATOM      2  C   UNL     1       2.645  12.810  18.036  0.00  0.00    +0.000 C 
ATOM      3  C   UNL     1       1.858  12.730  19.299  0.00  0.00    +0.000 A 
ATOM      4  C   UNL     1       2.127  13.530  20.457  0.00  0.00    +0.000 A 
ATOM      5  N   UNL     1       1.361  13.336  21.522  0.00  0.00    +0.000 NA
ATOM      6  S   UNL     1       0.286  12.137  21.171  0.00  0.00    +0.000 S 
ATOM      7  C   UNL     1       0.805  11.849  19.564  0.00  0.00    +0.000 A 
ENDBRANCH   1   7
BRANCH   1   8
ATOM      8  C   UNL     1       1.141   9.444  18.828  0.00  0.00    +0.000 A 
ATOM      9  C   UNL     1       1.924   8.933  17.780  0.00  0.00    +0.000 A 
ATOM     10  C   UNL     1       2.684   7.775  17.945  0.00  0.00    +0.000 A 
ATOM     11  C   UNL     1       2.676   7.073  19.159  0.00  0.00    +0.000 A 
ATOM     12  C   UNL     1       1.897   7.574  20.207  0.00  0.00    +0.000 A 
ATOM     13  C   UNL     1       1.142   8.739  20.044  0.00  0.00    +0.000 A 
BRANCH  11  14
ATOM     14  C   UNL     1       3.558   5.846  19.313  0.00  0.00    +0.000 C 
ATOM     15  C   UNL     1       2.844   4.803  20.176  0.00  0.00    +0.000 C 
ATOM     16  C   UNL     1       4.005   5.231  17.984  0.00  0.00    +0.000 C 
ENDBRANCH  11  14
ENDBRANCH   1   8
BRANCH   1  17
ATOM     17  N   UNL     1      -1.140  10.416  18.619  0.00  0.00    +0.000 NA
ATOM     18  C   UNL     1      -2.156  11.171  19.314  0.00  0.00    +0.000 C 
ATOM     19  C   UNL     1      -3.025  12.083  18.418  0.00  0.00    +0.000 C 
ATOM     20  N   UNL     1      -3.363  11.636  17.057  0.00  0.00    +0.000 NA
ATOM     21  C   UNL     1      -2.475  10.614  16.490  0.00  0.00    +0.000 C 
ATOM     22  C   UNL     1      -1.671   9.723  17.458  0.00  0.00    +0.000 C 
BRANCH  20  23
ATOM     23  C   UNL     1      -4.795  11.388  16.833  0.00  0.00    +0.000 C 
BRANCH  23  24
ATOM     24  C   UNL     1      -5.638  11.619  18.101  0.00  0.00    +0.000 C 
BRANCH  24  25
ATOM     25  O   UNL     1      -6.091  10.372  18.625  0.00  0.00    +0.000 OA
ATOM     26  H   UNL     1      -5.798  10.365  19.558  0.00  0.00    +0.000 HD
ENDBRANCH  24  25
ENDBRANCH  23  24
ENDBRANCH  20  23
ENDBRANCH   1  17
TORSDOF 7
ENDMDL
