MODEL 1
REMARK VINA RESULT:      -7.5      0.000      0.000
REMARK  Name = 
REMARK  7 active torsions:
REMARK  status: ('A' for Active; 'I' for Inactive)
REMARK    1  A    between atoms: C_1  and  O_2
REMARK    2  A    between atoms: O_2  and  C_3
REMARK    3  A    between atoms: C_6  and  C_7
REMARK    4  A    between atoms: C_11  and  C_12
REMARK    5  A    between atoms: C_13  and  C_14
REMARK    6  A    between atoms: C_19  and  O_20
REMARK    7  A    between atoms: O_20  and  C_21
REMARK                            x       y       z     vdW  Elec       q    Type
REMARK                         _______ _______ _______ _____ _____    ______ ____
ROOT
ATOM      1  C   UNL     1       2.975   7.036  18.531  0.00  0.00    +0.000 A 
ATOM      2  C   UNL     1       2.388   8.191  18.065  0.00  0.00    +0.000 A 
ATOM      3  N   UNL     1       1.620   8.650  19.090  0.00  0.00    +0.000 N 
ATOM      4  N   UNL     1       0.885   9.787  19.052  0.00  0.00    +0.000 NA
ATOM      5  C   UNL     1       0.258  10.012  20.168  0.00  0.00    +0.000 A 
ATOM      6  C   UNL     1      -0.590  11.243  20.278  0.00  0.00    +0.000 C 
ATOM      7  C   UNL     1       0.366   9.060  21.370  0.00  0.00    +0.000 A 
ATOM      8  C   UNL     1      -0.368   9.381  22.642  0.00  0.00    +0.000 C 
ATOM      9  N   UNL     1       1.088   7.978  21.320  0.00  0.00    +0.000 NA
ATOM     10  C   UNL     1       1.744   7.761  20.149  0.00  0.00    +0.000 A 
ATOM     11  N   UNL     1       2.558   6.774  19.820  0.00  0.00    +0.000 NA
ENDROOT
BRANCH   1  15
ATOM     12  C   UNL     1       5.663   4.602  16.247  0.00  0.00    +0.000 A 
ATOM     13  C   UNL     1       4.402   4.121  16.633  0.00  0.00    +0.000 A 
ATOM     14  C   UNL     1       3.521   4.915  17.377  0.00  0.00    +0.000 A 
ATOM     15  C   UNL     1       3.897   6.196  17.781  0.00  0.00    +0.000 A 
ATOM     16  C   UNL     1       5.183   6.644  17.449  0.00  0.00    +0.000 A 
ATOM     17  C   UNL     1       6.075   5.864  16.695  0.00  0.00    +0.000 A 
BRANCH  12  19
ATOM     18  C   UNL     1       6.298   3.938  14.064  0.00  0.00    +0.000 C 
ATOM     19  O   UNL     1       6.506   3.853  15.473  0.00  0.00    +0.000 OA
ENDBRANCH  12  19
BRANCH  17  20
ATOM     20  O   UNL     1       7.259   6.517  16.487  0.00  0.00    +0.000 OA
ATOM     21  C   UNL     1       7.701   7.476  17.431  0.00  0.00    +0.000 C 
ENDBRANCH  17  20
ENDBRANCH   1  15
TORSDOF 3
ENDMDL
MODEL 2
REMARK VINA RESULT:      -7.4      1.091      2.211
REMARK  Name = 
REMARK  7 active torsions:
REMARK  status: ('A' for Active; 'I' for Inactive)
REMARK    1  A    between atoms: C_1  and  O_2
REMARK    2  A    between atoms: O_2  and  C_3
REMARK    3  A    between atoms: C_6  and  C_7
REMARK    4  A    between atoms: C_11  and  C_12
REMARK    5  A    between atoms: C_13  and  C_14
REMARK    6  A    between atoms: C_19  and  O_20
REMARK    7  A    between atoms: O_20  and  C_21
REMARK                            x       y       z     vdW  Elec       q    Type
REMARK                         _______ _______ _______ _____ _____    ______ ____
ROOT
ATOM      1  C   UNL     1       2.754   7.120  18.500  0.00  0.00    +0.000 A 
ATOM      2  C   UNL     1       2.229   8.319  18.072  0.00  0.00    +0.000 A 
ATOM      3  N   UNL     1       1.559   8.827  19.141  0.00  0.00    +0.000 N 
ATOM      4  N   UNL     1       0.910  10.016  19.150  0.00  0.00    +0.000 NA
ATOM      5  C   UNL     1       0.367  10.279  20.301  0.00  0.00    +0.000 A 
ATOM      6  C   UNL     1      -0.379  11.569  20.463  0.00  0.00    +0.000 C 
ATOM      7  C   UNL     1       0.474   9.313  21.492  0.00  0.00    +0.000 A 
ATOM      8  C   UNL     1      -0.159   9.679  22.806  0.00  0.00    +0.000 C 
ATOM      9  N   UNL     1       1.108   8.180  21.398  0.00  0.00    +0.000 NA
ATOM     10  C   UNL     1       1.677   7.924  20.189  0.00  0.00    +0.000 A 
ATOM     11  N   UNL     1       2.395   6.881  19.811  0.00  0.00    +0.000 NA
ENDROOT
BRANCH   1  15
ATOM     12  C   UNL     1       5.202   4.459  16.201  0.00  0.00    +0.000 A 
ATOM     13  C   UNL     1       5.314   5.851  16.057  0.00  0.00    +0.000 A 
ATOM     14  C   UNL     1       4.517   6.722  16.809  0.00  0.00    +0.000 A 
ATOM     15  C   UNL     1       3.565   6.219  17.695  0.00  0.00    +0.000 A 
ATOM     16  C   UNL     1       3.413   4.828  17.783  0.00  0.00    +0.000 A 
ATOM     17  C   UNL     1       4.211   3.941  17.044  0.00  0.00    +0.000 A 
BRANCH  12  19
ATOM     18  C   UNL     1       6.208   3.905  14.129  0.00  0.00    +0.000 C 
ATOM     19  O   UNL     1       6.016   3.603  15.510  0.00  0.00    +0.000 OA
ENDBRANCH  12  19
BRANCH  17  20
ATOM     20  O   UNL     1       3.887   2.637  17.308  0.00  0.00    +0.000 OA
ATOM     21  C   UNL     1       2.726   2.348  18.065  0.00  0.00    +0.000 C 
ENDBRANCH  17  20
ENDBRANCH   1  15
TORSDOF 3
ENDMDL
MODEL 3
REMARK VINA RESULT:      -7.4      1.233      2.742
REMARK  Name = 
REMARK  7 active torsions:
REMARK  status: ('A' for Active; 'I' for Inactive)
REMARK    1  A    between atoms: C_1  and  O_2
REMARK    2  A    between atoms: O_2  and  C_3
REMARK    3  A    between atoms: C_6  and  C_7
REMARK    4  A    between atoms: C_11  and  C_12
REMARK    5  A    between atoms: C_13  and  C_14
REMARK    6  A    between atoms: C_19  and  O_20
REMARK    7  A    between atoms: O_20  and  C_21
REMARK                            x       y       z     vdW  Elec       q    Type
REMARK                         _______ _______ _______ _____ _____    ______ ____
ROOT
ATOM      1  C   UNL     1       2.746   7.151  18.522  0.00  0.00    +0.000 A 
ATOM      2  C   UNL     1       2.408   6.961  19.844  0.00  0.00    +0.000 A 
ATOM      3  N   UNL     1       1.652   8.038  20.186  0.00  0.00    +0.000 N 
ATOM      4  N   UNL     1       1.094   8.232  21.405  0.00  0.00    +0.000 NA
ATOM      5  C   UNL     1       0.403   9.331  21.468  0.00  0.00    +0.000 A 
ATOM      6  C   UNL     1      -0.282   9.674  22.756  0.00  0.00    +0.000 C 
ATOM      7  C   UNL     1       0.266  10.277  20.264  0.00  0.00    +0.000 A 
ATOM      8  C   UNL     1      -0.562  11.526  20.390  0.00  0.00    +0.000 C 
ATOM      9  N   UNL     1       0.846  10.024  19.127  0.00  0.00    +0.000 NA
ATOM     10  C   UNL     1       1.559   8.866  19.075  0.00  0.00    +0.000 A 
ATOM     11  N   UNL     1       2.223   8.342  18.061  0.00  0.00    +0.000 NA
ENDROOT
BRANCH   1  15
ATOM     12  C   UNL     1       5.163   4.464  16.219  0.00  0.00    +0.000 A 
ATOM     13  C   UNL     1       5.275   5.855  16.061  0.00  0.00    +0.000 A 
ATOM     14  C   UNL     1       4.489   6.734  16.814  0.00  0.00    +0.000 A 
ATOM     15  C   UNL     1       3.547   6.241  17.717  0.00  0.00    +0.000 A 
ATOM     16  C   UNL     1       3.394   4.851  17.820  0.00  0.00    +0.000 A 
ATOM     17  C   UNL     1       4.181   3.955  17.079  0.00  0.00    +0.000 A 
BRANCH  12  19
ATOM     18  C   UNL     1       6.298   3.990  14.194  0.00  0.00    +0.000 C 
ATOM     19  O   UNL     1       5.967   3.601  15.527  0.00  0.00    +0.000 OA
ENDBRANCH  12  19
BRANCH  17  20
ATOM     20  O   UNL     1       3.859   2.655  17.359  0.00  0.00    +0.000 OA
ATOM     21  C   UNL     1       2.592   2.357  17.917  0.00  0.00    +0.000 C 
ENDBRANCH  17  20
ENDBRANCH   1  15
TORSDOF 3
ENDMDL
MODEL 4
REMARK VINA RESULT:      -7.4      0.590      1.605
REMARK  Name = 
REMARK  7 active torsions:
REMARK  status: ('A' for Active; 'I' for Inactive)
REMARK    1  A    between atoms: C_1  and  O_2
REMARK    2  A    between atoms: O_2  and  C_3
REMARK    3  A    between atoms: C_6  and  C_7
REMARK    4  A    between atoms: C_11  and  C_12
REMARK    5  A    between atoms: C_13  and  C_14
REMARK    6  A    between atoms: C_19  and  O_20
REMARK    7  A    between atoms: O_20  and  C_21
REMARK                            x       y       z     vdW  Elec       q    Type
REMARK                         _______ _______ _______ _____ _____    ______ ____
ROOT
ATOM      1  C   UNL     1       2.996   6.999  18.530  0.00  0.00    +0.000 A 
ATOM      2  C   UNL     1       2.561   6.760  19.815  0.00  0.00    +0.000 A 
ATOM      3  N   UNL     1       1.733   7.796  20.118  0.00  0.00    +0.000 N 
ATOM      4  N   UNL     1       1.070   7.933  21.291  0.00  0.00    +0.000 NA
ATOM      5  C   UNL     1       0.328   9.000  21.322  0.00  0.00    +0.000 A 
ATOM      6  C   UNL     1      -0.474   9.280  22.557  0.00  0.00    +0.000 C 
ATOM      7  C   UNL     1       0.247   9.971  20.134  0.00  0.00    +0.000 A 
ATOM      8  C   UNL     1      -0.643  11.180  20.219  0.00  0.00    +0.000 C 
ATOM      9  N   UNL     1       0.927   9.772  19.042  0.00  0.00    +0.000 NA
ATOM     10  C   UNL     1       1.693   8.648  19.022  0.00  0.00    +0.000 A 
ATOM     11  N   UNL     1       2.460   8.178  18.054  0.00  0.00    +0.000 NA
ENDROOT
BRANCH   1  15
ATOM     12  C   UNL     1       5.627   4.526  16.222  0.00  0.00    +0.000 A 
ATOM     13  C   UNL     1       4.363   4.063  16.621  0.00  0.00    +0.000 A 
ATOM     14  C   UNL     1       3.501   4.870  17.373  0.00  0.00    +0.000 A 
ATOM     15  C   UNL     1       3.899   6.146  17.772  0.00  0.00    +0.000 A 
ATOM     16  C   UNL     1       5.188   6.575  17.427  0.00  0.00    +0.000 A 
ATOM     17  C   UNL     1       6.061   5.782  16.665  0.00  0.00    +0.000 A 
BRANCH  12  19
ATOM     18  C   UNL     1       6.298   3.926  14.031  0.00  0.00    +0.000 C 
ATOM     19  O   UNL     1       6.451   3.764  15.440  0.00  0.00    +0.000 OA
ENDBRANCH  12  19
BRANCH  17  20
ATOM     20  O   UNL     1       7.252   6.419  16.444  0.00  0.00    +0.000 OA
ATOM     21  C   UNL     1       7.678   7.430  17.339  0.00  0.00    +0.000 C 
ENDBRANCH  17  20
ENDBRANCH   1  15
TORSDOF 3
ENDMDL
MODEL 5
REMARK VINA RESULT:      -6.7      2.666      4.105
REMARK  Name = 
REMARK  7 active torsions:
REMARK  status: ('A' for Active; 'I' for Inactive)
REMARK    1  A    between atoms: C_1  and  O_2
REMARK    2  A    between atoms: O_2  and  C_3
REMARK    3  A    between atoms: C_6  and  C_7
REMARK    4  A    between atoms: C_11  and  C_12
REMARK    5  A    between atoms: C_13  and  C_14
REMARK    6  A    between atoms: C_19  and  O_20
REMARK    7  A    between atoms: O_20  and  C_21
REMARK                            x       y       z     vdW  Elec       q    Type
REMARK                         _______ _______ _______ _____ _____    ______ ____
ROOT
ATOM      1  C   UNL     1       1.731   7.952  19.896  0.00  0.00    +0.000 A 
ATOM      2  C   UNL     1       1.333   8.386  21.141  0.00  0.00    +0.000 A 
ATOM      3  N   UNL     1       0.843   9.640  20.950  0.00  0.00    +0.000 N 
ATOM      4  N   UNL     1       0.323  10.421  21.928  0.00  0.00    +0.000 NA
ATOM      5  C   UNL     1      -0.096  11.567  21.482  0.00  0.00    +0.000 A 
ATOM      6  C   UNL     1      -0.706  12.534  22.450  0.00  0.00    +0.000 C 
ATOM      7  C   UNL     1       0.013  11.952  19.997  0.00  0.00    +0.000 A 
ATOM      8  C   UNL     1      -0.505  13.285  19.535  0.00  0.00    +0.000 C 
ATOM      9  N   UNL     1       0.538  11.146  19.120  0.00  0.00    +0.000 NA
ATOM     10  C   UNL     1       0.964   9.948  19.602  0.00  0.00    +0.000 A 
ATOM     11  N   UNL     1       1.506   8.934  18.952  0.00  0.00    +0.000 NA
ENDROOT
BRANCH   1  15
ATOM     12  C   UNL     1       3.519   4.144  19.077  0.00  0.00    +0.000 A 
ATOM     13  C   UNL     1       3.584   5.190  18.143  0.00  0.00    +0.000 A 
ATOM     14  C   UNL     1       3.004   6.436  18.410  0.00  0.00    +0.000 A 
ATOM     15  C   UNL     1       2.313   6.651  19.602  0.00  0.00    +0.000 A 
ATOM     16  C   UNL     1       2.194   5.581  20.500  0.00  0.00    +0.000 A 
ATOM     17  C   UNL     1       2.779   4.329  20.253  0.00  0.00    +0.000 A 
BRANCH  12  19
ATOM     18  C   UNL     1       3.363   1.979  18.128  0.00  0.00    +0.000 C 
ATOM     19  O   UNL     1       4.132   2.943  18.847  0.00  0.00    +0.000 OA
ENDBRANCH  12  19
BRANCH  17  20
ATOM     20  O   UNL     1       2.539   3.452  21.276  0.00  0.00    +0.000 OA
ATOM     21  C   UNL     1       1.295   2.779  21.339  0.00  0.00    +0.000 C 
ENDBRANCH  17  20
ENDBRANCH   1  15
TORSDOF 3
ENDMDL
MODEL 6
REMARK VINA RESULT:      -6.6      2.351      3.131
REMARK  Name = 
REMARK  7 active torsions:
REMARK  status: ('A' for Active; 'I' for Inactive)
REMARK    1  A    between atoms: C_1  and  O_2
REMARK    2  A    between atoms: O_2  and  C_3
REMARK    3  A    between atoms: C_6  and  C_7
REMARK    4  A    between atoms: C_11  and  C_12
REMARK    5  A    between atoms: C_13  and  C_14
REMARK    6  A    between atoms: C_19  and  O_20
REMARK    7  A    between atoms: O_20  and  C_21
REMARK                            x       y       z     vdW  Elec       q    Type
REMARK                         _______ _______ _______ _____ _____    ______ ____
ROOT
ATOM      1  C   UNL     1       1.869   7.460  20.026  0.00  0.00    +0.000 A 
ATOM      2  C   UNL     1       1.856   8.348  18.974  0.00  0.00    +0.000 A 
ATOM      3  N   UNL     1       1.284   9.482  19.461  0.00  0.00    +0.000 N 
ATOM      4  N   UNL     1       1.100  10.619  18.747  0.00  0.00    +0.000 NA
ATOM      5  C   UNL     1       0.551  11.565  19.449  0.00  0.00    +0.000 A 
ATOM      6  C   UNL     1       0.293  12.888  18.793  0.00  0.00    +0.000 C 
ATOM      7  C   UNL     1       0.166  11.366  20.924  0.00  0.00    +0.000 A 
ATOM      8  C   UNL     1      -0.450  12.502  21.692  0.00  0.00    +0.000 C 
ATOM      9  N   UNL     1       0.367  10.234  21.536  0.00  0.00    +0.000 NA
ATOM     10  C   UNL     1       0.950   9.258  20.789  0.00  0.00    +0.000 A 
ATOM     11  N   UNL     1       1.295   8.032  21.143  0.00  0.00    +0.000 NA
ENDROOT
BRANCH   1  15
ATOM     12  C   UNL     1       3.401   3.464  19.812  0.00  0.00    +0.000 A 
ATOM     13  C   UNL     1       2.196   3.742  20.477  0.00  0.00    +0.000 A 
ATOM     14  C   UNL     1       1.693   5.046  20.545  0.00  0.00    +0.000 A 
ATOM     15  C   UNL     1       2.402   6.106  19.982  0.00  0.00    +0.000 A 
ATOM     16  C   UNL     1       3.637   5.830  19.379  0.00  0.00    +0.000 A 
ATOM     17  C   UNL     1       4.152   4.527  19.293  0.00  0.00    +0.000 A 
BRANCH  12  19
ATOM     18  C   UNL     1       3.514   1.499  18.494  0.00  0.00    +0.000 C 
ATOM     19  O   UNL     1       3.871   2.184  19.693  0.00  0.00    +0.000 OA
ENDBRANCH  12  19
BRANCH  17  20
ATOM     20  O   UNL     1       5.360   4.506  18.651  0.00  0.00    +0.000 OA
ATOM     21  C   UNL     1       6.404   5.348  19.106  0.00  0.00    +0.000 C 
ENDBRANCH  17  20
ENDBRANCH   1  15
TORSDOF 3
ENDMDL
MODEL 7
REMARK VINA RESULT:      -6.6      2.616      3.753
REMARK  Name = 
REMARK  7 active torsions:
REMARK  status: ('A' for Active; 'I' for Inactive)
REMARK    1  A    between atoms: C_1  and  O_2
REMARK    2  A    between atoms: O_2  and  C_3
REMARK    3  A    between atoms: C_6  and  C_7
REMARK    4  A    between atoms: C_11  and  C_12
REMARK    5  A    between atoms: C_13  and  C_14
REMARK    6  A    between atoms: C_19  and  O_20
REMARK    7  A    between atoms: O_20  and  C_21
REMARK                            x       y       z     vdW  Elec       q    Type
REMARK                         _______ _______ _______ _____ _____    ______ ____
ROOT
ATOM      1  C   UNL     1       1.716   7.827  19.947  0.00  0.00    +0.000 A 
ATOM      2  C   UNL     1       1.602   8.904  19.097  0.00  0.00    +0.000 A 
ATOM      3  N   UNL     1       0.971   9.871  19.815  0.00  0.00    +0.000 N 
ATOM      4  N   UNL     1       0.682  11.111  19.350  0.00  0.00    +0.000 NA
ATOM      5  C   UNL     1       0.095  11.853  20.241  0.00  0.00    +0.000 A 
ATOM      6  C   UNL     1      -0.279  13.257  19.872  0.00  0.00    +0.000 C 
ATOM      7  C   UNL     1      -0.220  11.334  21.654  0.00  0.00    +0.000 A 
ATOM      8  C   UNL     1      -0.885  12.244  22.649  0.00  0.00    +0.000 C 
ATOM      9  N   UNL     1       0.082  10.122  22.019  0.00  0.00    +0.000 NA
ATOM     10  C   UNL     1       0.703   9.361  21.078  0.00  0.00    +0.000 A 
ATOM     11  N   UNL     1       1.145   8.120  21.169  0.00  0.00    +0.000 NA
ENDROOT
BRANCH   1  15
ATOM     12  C   UNL     1       3.625   4.103  19.027  0.00  0.00    +0.000 A 
ATOM     13  C   UNL     1       3.669   5.180  18.127  0.00  0.00    +0.000 A 
ATOM     14  C   UNL     1       3.049   6.398  18.427  0.00  0.00    +0.000 A 
ATOM     15  C   UNL     1       2.340   6.554  19.618  0.00  0.00    +0.000 A 
ATOM     16  C   UNL     1       2.244   5.453  20.480  0.00  0.00    +0.000 A 
ATOM     17  C   UNL     1       2.869   4.227  20.199  0.00  0.00    +0.000 A 
BRANCH  12  19
ATOM     18  C   UNL     1       3.493   1.906  18.150  0.00  0.00    +0.000 C 
ATOM     19  O   UNL     1       4.276   2.928  18.765  0.00  0.00    +0.000 OA
ENDBRANCH  12  19
BRANCH  17  20
ATOM     20  O   UNL     1       2.645   3.311  21.191  0.00  0.00    +0.000 OA
ATOM     21  C   UNL     1       1.345   2.774  21.362  0.00  0.00    +0.000 C 
ENDBRANCH  17  20
ENDBRANCH   1  15
TORSDOF 3
ENDMDL
MODEL 8
REMARK VINA RESULT:      -6.6      2.495      3.550
REMARK  Name = 
REMARK  7 active torsions:
REMARK  status: ('A' for Active; 'I' for Inactive)
REMARK    1  A    between atoms: C_1  and  O_2
REMARK    2  A    between atoms: O_2  and  C_3
REMARK    3  A    between atoms: C_6  and  C_7
REMARK    4  A    between atoms: C_11  and  C_12
REMARK    5  A    between atoms: C_13  and  C_14
REMARK    6  A    between atoms: C_19  and  O_20
REMARK    7  A    between atoms: O_20  and  C_21
REMARK                            x       y       z     vdW  Elec       q    Type
REMARK                         _______ _______ _______ _____ _____    ______ ____
ROOT
ATOM      1  C   UNL     1       1.813   7.536  20.104  0.00  0.00    +0.000 A 
ATOM      2  C   UNL     1       1.436   8.205  21.247  0.00  0.00    +0.000 A 
ATOM      3  N   UNL     1       1.077   9.451  20.839  0.00  0.00    +0.000 N 
ATOM      4  N   UNL     1       0.618  10.427  21.659  0.00  0.00    +0.000 NA
ATOM      5  C   UNL     1       0.325  11.519  21.018  0.00  0.00    +0.000 A 
ATOM      6  C   UNL     1      -0.205  12.687  21.795  0.00  0.00    +0.000 C 
ATOM      7  C   UNL     1       0.502  11.643  19.496  0.00  0.00    +0.000 A 
ATOM      8  C   UNL     1       0.129  12.926  18.806  0.00  0.00    +0.000 C 
ATOM      9  N   UNL     1       0.962  10.659  18.780  0.00  0.00    +0.000 NA
ATOM     10  C   UNL     1       1.256   9.520  19.464  0.00  0.00    +0.000 A 
ATOM     11  N   UNL     1       1.707   8.366  19.007  0.00  0.00    +0.000 NA
ENDROOT
BRANCH   1  15
ATOM     12  C   UNL     1       3.121   3.463  19.845  0.00  0.00    +0.000 A 
ATOM     13  C   UNL     1       1.893   3.792  20.440  0.00  0.00    +0.000 A 
ATOM     14  C   UNL     1       1.462   5.122  20.523  0.00  0.00    +0.000 A 
ATOM     15  C   UNL     1       2.268   6.155  20.045  0.00  0.00    +0.000 A 
ATOM     16  C   UNL     1       3.522   5.824  19.513  0.00  0.00    +0.000 A 
ATOM     17  C   UNL     1       3.965   4.495  19.413  0.00  0.00    +0.000 A 
BRANCH  12  19
ATOM     18  C   UNL     1       3.376   1.597  18.409  0.00  0.00    +0.000 C 
ATOM     19  O   UNL     1       3.523   2.162  19.710  0.00  0.00    +0.000 OA
ENDBRANCH  12  19
BRANCH  17  20
ATOM     20  O   UNL     1       5.210   4.423  18.850  0.00  0.00    +0.000 OA
ATOM     21  C   UNL     1       6.197   5.369  19.219  0.00  0.00    +0.000 C 
ENDBRANCH  17  20
ENDBRANCH   1  15
TORSDOF 3
ENDMDL
MODEL 9
REMARK VINA RESULT:      -6.5      1.880      3.131
REMARK  Name = 
REMARK  7 active torsions:
REMARK  status: ('A' for Active; 'I' for Inactive)
REMARK    1  A    between atoms: C_1  and  O_2
REMARK    2  A    between atoms: O_2  and  C_3
REMARK    3  A    between atoms: C_6  and  C_7
REMARK    4  A    between atoms: C_11  and  C_12
REMARK    5  A    between atoms: C_13  and  C_14
REMARK    6  A    between atoms: C_19  and  O_20
REMARK    7  A    between atoms: O_20  and  C_21
REMARK                            x       y       z     vdW  Elec       q    Type
REMARK                         _______ _______ _______ _____ _____    ______ ____
ROOT
ATOM      1  C   UNL     1       1.798   7.775  19.850  0.00  0.00    +0.000 A 
ATOM      2  C   UNL     1       1.293   8.064  21.098  0.00  0.00    +0.000 A 
ATOM      3  N   UNL     1       0.772   9.316  21.001  0.00  0.00    +0.000 N 
ATOM      4  N   UNL     1       0.152   9.973  22.011  0.00  0.00    +0.000 NA
ATOM      5  C   UNL     1      -0.275  11.147  21.654  0.00  0.00    +0.000 A 
ATOM      6  C   UNL     1      -0.991  11.988  22.667  0.00  0.00    +0.000 C 
ATOM      7  C   UNL     1      -0.071  11.690  20.230  0.00  0.00    +0.000 A 
ATOM      8  C   UNL     1      -0.603  13.049  19.869  0.00  0.00    +0.000 C 
ATOM      9  N   UNL     1       0.547  10.998  19.317  0.00  0.00    +0.000 NA
ATOM     10  C   UNL     1       0.981   9.768  19.705  0.00  0.00    +0.000 A 
ATOM     11  N   UNL     1       1.607   8.844  18.998  0.00  0.00    +0.000 NA
ENDROOT
BRANCH   1  15
ATOM     12  C   UNL     1       3.640   4.088  18.677  0.00  0.00    +0.000 A 
ATOM     13  C   UNL     1       2.944   4.195  19.892  0.00  0.00    +0.000 A 
ATOM     14  C   UNL     1       2.339   5.398  20.275  0.00  0.00    +0.000 A 
ATOM     15  C   UNL     1       2.448   6.530  19.469  0.00  0.00    +0.000 A 
ATOM     16  C   UNL     1       3.201   6.433  18.291  0.00  0.00    +0.000 A 
ATOM     17  C   UNL     1       3.806   5.233  17.886  0.00  0.00    +0.000 A 
BRANCH  12  19
ATOM     18  C   UNL     1       3.339   1.758  18.374  0.00  0.00    +0.000 C 
ATOM     19  O   UNL     1       4.186   2.902  18.270  0.00  0.00    +0.000 OA
ENDBRANCH  12  19
BRANCH  17  20
ATOM     20  O   UNL     1       4.472   5.381  16.700  0.00  0.00    +0.000 OA
ATOM     21  C   UNL     1       5.073   6.626  16.391  0.00  0.00    +0.000 C 
ENDBRANCH  17  20
ENDBRANCH   1  15
TORSDOF 3
ENDMDL
