MODEL 1
REMARK VINA RESULT:      -8.6      0.000      0.000
REMARK  Name = 
REMARK  2 active torsions:
REMARK  status: ('A' for Active; 'I' for Inactive)
REMARK    1  A    between atoms: C_5  and  C_6
REMARK    2  A    between atoms: C_10  and  C_11
REMARK                            x       y       z     vdW  Elec       q    Type
REMARK                         _______ _______ _______ _____ _____    ______ ____
ROOT
ATOM      1  N   UNL     1       0.326  11.398  18.304  0.00  0.00    +0.000 NA
ATOM      2  C   UNL     1       0.808  10.324  18.824  0.00  0.00    +0.000 C 
ATOM      3  S   UNL     1       1.824   9.292  17.862  0.00  0.00    +0.000 S 
ATOM      4  C   UNL     1       2.062   8.202  19.170  0.00  0.00    +0.000 C 
ATOM      5  C   UNL     1       2.759   7.058  19.154  0.00  0.00    +0.000 C 
ATOM      6  C   UNL     1       1.356   8.687  20.394  0.00  0.00    +0.000 C 
ATOM      7  O   UNL     1       1.390   8.054  21.442  0.00  0.00    +0.000 OA
ATOM      8  N   UNL     1       0.674   9.855  20.100  0.00  0.00    +0.000 N 
ATOM      9  C   UNL     1      -0.011  10.506  21.111  0.00  0.00    +0.000 A 
ATOM     10  N   UNL     1       0.207  10.386  22.407  0.00  0.00    +0.000 NA
ATOM     11  N   UNL     1      -0.619  11.186  23.171  0.00  0.00    +0.000 NA
ATOM     12  C   UNL     1      -1.490  11.830  22.428  0.00  0.00    +0.000 A 
ATOM     13  S   UNL     1      -1.348  11.531  20.753  0.00  0.00    +0.000 S 
ATOM     14  H   UNL     1       0.646  11.446  17.329  0.00  0.00    +0.000 HD
ENDROOT
BRANCH   5  15
ATOM     15  C   UNL     1       3.522   6.559  18.059  0.00  0.00    +0.000 A 
ATOM     16  C   UNL     1       4.317   7.330  17.247  0.00  0.00    +0.000 A 
ATOM     17  N   UNL     1       4.874   6.464  16.357  0.00  0.00    +0.000 N 
ATOM     18  N   UNL     1       4.502   5.187  16.536  0.00  0.00    +0.000 NA
ATOM     19  C   UNL     1       3.633   5.223  17.564  0.00  0.00    +0.000 A 
ATOM     20  H   UNL     1       5.517   6.671  15.601  0.00  0.00    +0.000 HD
BRANCH  19  21
ATOM     21  C   UNL     1       2.956   4.002  18.022  0.00  0.00    +0.000 A 
ATOM     22  C   UNL     1       3.688   2.836  18.286  0.00  0.00    +0.000 A 
ATOM     23  C   UNL     1       3.045   1.668  18.705  0.00  0.00    +0.000 A 
ATOM     24  C   UNL     1       1.662   1.651  18.868  0.00  0.00    +0.000 A 
ATOM     25  C   UNL     1       0.919   2.799  18.606  0.00  0.00    +0.000 A 
ATOM     26  C   UNL     1       1.563   3.964  18.179  0.00  0.00    +0.000 A 
ENDBRANCH  19  21
ENDBRANCH   5  15
TORSDOF 2
ENDMDL
MODEL 2
REMARK VINA RESULT:      -8.5      2.320      4.018
REMARK  Name = 
REMARK  2 active torsions:
REMARK  status: ('A' for Active; 'I' for Inactive)
REMARK    1  A    between atoms: C_5  and  C_6
REMARK    2  A    between atoms: C_10  and  C_11
REMARK                            x       y       z     vdW  Elec       q    Type
REMARK                         _______ _______ _______ _____ _____    ______ ____
ROOT
ATOM      1  N   UNL     1       0.888   8.817  21.958  0.00  0.00    +0.000 NA
ATOM      2  C   UNL     1       1.278   8.596  20.751  0.00  0.00    +0.000 C 
ATOM      3  S   UNL     1       1.926   7.037  20.336  0.00  0.00    +0.000 S 
ATOM      4  C   UNL     1       2.153   7.500  18.696  0.00  0.00    +0.000 C 
ATOM      5  C   UNL     1       2.692   6.765  17.714  0.00  0.00    +0.000 C 
ATOM      6  C   UNL     1       1.673   8.897  18.472  0.00  0.00    +0.000 C 
ATOM      7  O   UNL     1       1.748   9.427  17.370  0.00  0.00    +0.000 OA
ATOM      8  N   UNL     1       1.225   9.427  19.669  0.00  0.00    +0.000 N 
ATOM      9  C   UNL     1       0.686  10.702  19.679  0.00  0.00    +0.000 A 
ATOM     10  N   UNL     1       0.178  11.345  18.645  0.00  0.00    +0.000 NA
ATOM     11  N   UNL     1      -0.312  12.594  18.972  0.00  0.00    +0.000 NA
ATOM     12  C   UNL     1      -0.088  12.886  20.233  0.00  0.00    +0.000 A 
ATOM     13  S   UNL     1       0.706  11.657  21.112  0.00  0.00    +0.000 S 
ATOM     14  H   UNL     1       1.058   7.963  22.504  0.00  0.00    +0.000 HD
ENDROOT
BRANCH   5  15
ATOM     15  C   UNL     1       3.106   5.405  17.819  0.00  0.00    +0.000 A 
ATOM     16  C   UNL     1       2.260   4.325  17.760  0.00  0.00    +0.000 A 
ATOM     17  N   UNL     1       3.060   3.231  17.878  0.00  0.00    +0.000 N 
ATOM     18  N   UNL     1       4.364   3.523  18.006  0.00  0.00    +0.000 NA
ATOM     19  C   UNL     1       4.417   4.867  18.009  0.00  0.00    +0.000 A 
ATOM     20  H   UNL     1       2.789   2.253  17.881  0.00  0.00    +0.000 HD
BRANCH  19  21
ATOM     21  C   UNL     1       5.693   5.572  18.192  0.00  0.00    +0.000 A 
ATOM     22  C   UNL     1       6.085   6.580  17.299  0.00  0.00    +0.000 A 
ATOM     23  C   UNL     1       7.307   7.241  17.459  0.00  0.00    +0.000 A 
ATOM     24  C   UNL     1       8.151   6.903  18.514  0.00  0.00    +0.000 A 
ATOM     25  C   UNL     1       7.780   5.901  19.406  0.00  0.00    +0.000 A 
ATOM     26  C   UNL     1       6.562   5.236  19.240  0.00  0.00    +0.000 A 
ENDBRANCH  19  21
ENDBRANCH   5  15
TORSDOF 2
ENDMDL
MODEL 3
REMARK VINA RESULT:      -8.3      2.038      3.678
REMARK  Name = 
REMARK  2 active torsions:
REMARK  status: ('A' for Active; 'I' for Inactive)
REMARK    1  A    between atoms: C_5  and  C_6
REMARK    2  A    between atoms: C_10  and  C_11
REMARK                            x       y       z     vdW  Elec       q    Type
REMARK                         _______ _______ _______ _____ _____    ______ ____
ROOT
ATOM      1  N   UNL     1       1.692  10.150  17.471  0.00  0.00    +0.000 NA
ATOM      2  C   UNL     1       1.872   9.066  18.140  0.00  0.00    +0.000 C 
ATOM      3  S   UNL     1       2.613   7.698  17.364  0.00  0.00    +0.000 S 
ATOM      4  C   UNL     1       2.535   6.761  18.804  0.00  0.00    +0.000 C 
ATOM      5  C   UNL     1       2.917   5.486  18.962  0.00  0.00    +0.000 C 
ATOM      6  C   UNL     1       1.947   7.560  19.921  0.00  0.00    +0.000 C 
ATOM      7  O   UNL     1       1.794   7.079  21.037  0.00  0.00    +0.000 OA
ATOM      8  N   UNL     1       1.593   8.813  19.453  0.00  0.00    +0.000 N 
ATOM      9  C   UNL     1       1.073   9.739  20.340  0.00  0.00    +0.000 A 
ATOM     10  N   UNL     1       1.222   9.736  21.652  0.00  0.00    +0.000 NA
ATOM     11  N   UNL     1       0.609  10.809  22.268  0.00  0.00    +0.000 NA
ATOM     12  C   UNL     1      -0.051  11.549  21.407  0.00  0.00    +0.000 A 
ATOM     13  S   UNL     1       0.050  11.011  19.790  0.00  0.00    +0.000 S 
ATOM     14  H   UNL     1       2.036   9.990  16.515  0.00  0.00    +0.000 HD
ENDROOT
BRANCH   5  15
ATOM     15  C   UNL     1       3.554   4.676  17.978  0.00  0.00    +0.000 A 
ATOM     16  C   UNL     1       2.952   3.634  17.317  0.00  0.00    +0.000 A 
ATOM     17  N   UNL     1       3.896   3.156  16.460  0.00  0.00    +0.000 N 
ATOM     18  N   UNL     1       5.064   3.814  16.516  0.00  0.00    +0.000 NA
ATOM     19  C   UNL     1       4.891   4.741  17.476  0.00  0.00    +0.000 A 
ATOM     20  H   UNL     1       3.815   2.382  15.808  0.00  0.00    +0.000 HD
BRANCH  19  21
ATOM     21  C   UNL     1       5.990   5.633  17.871  0.00  0.00    +0.000 A 
ATOM     22  C   UNL     1       6.232   6.821  17.166  0.00  0.00    +0.000 A 
ATOM     23  C   UNL     1       7.287   7.663  17.528  0.00  0.00    +0.000 A 
ATOM     24  C   UNL     1       8.113   7.329  18.599  0.00  0.00    +0.000 A 
ATOM     25  C   UNL     1       7.890   6.151  19.305  0.00  0.00    +0.000 A 
ATOM     26  C   UNL     1       6.839   5.306  18.938  0.00  0.00    +0.000 A 
ENDBRANCH  19  21
ENDBRANCH   5  15
TORSDOF 2
ENDMDL
MODEL 4
REMARK VINA RESULT:      -8.1      2.227      3.894
REMARK  Name = 
REMARK  2 active torsions:
REMARK  status: ('A' for Active; 'I' for Inactive)
REMARK    1  A    between atoms: C_5  and  C_6
REMARK    2  A    between atoms: C_10  and  C_11
REMARK                            x       y       z     vdW  Elec       q    Type
REMARK                         _______ _______ _______ _____ _____    ______ ____
ROOT
ATOM      1  N   UNL     1       1.814   9.789  17.480  0.00  0.00    +0.000 NA
ATOM      2  C   UNL     1       2.074   8.702  18.118  0.00  0.00    +0.000 C 
ATOM      3  S   UNL     1       2.962   7.438  17.320  0.00  0.00    +0.000 S 
ATOM      4  C   UNL     1       2.928   6.444  18.723  0.00  0.00    +0.000 C 
ATOM      5  C   UNL     1       3.421   5.205  18.850  0.00  0.00    +0.000 C 
ATOM      6  C   UNL     1       2.235   7.144  19.847  0.00  0.00    +0.000 C 
ATOM      7  O   UNL     1       2.094   6.610  20.940  0.00  0.00    +0.000 OA
ATOM      8  N   UNL     1       1.780   8.376  19.411  0.00  0.00    +0.000 N 
ATOM      9  C   UNL     1       1.151   9.217  20.312  0.00  0.00    +0.000 A 
ATOM     10  N   UNL     1       1.260   9.179  21.627  0.00  0.00    +0.000 NA
ATOM     11  N   UNL     1       0.532  10.168  22.259  0.00  0.00    +0.000 NA
ATOM     12  C   UNL     1      -0.167  10.875  21.402  0.00  0.00    +0.000 A 
ATOM     13  S   UNL     1       0.031  10.409  19.772  0.00  0.00    +0.000 S 
ATOM     14  H   UNL     1       2.200   9.698  16.532  0.00  0.00    +0.000 HD
ENDROOT
BRANCH   5  15
ATOM     15  C   UNL     1       4.159   4.494  17.860  0.00  0.00    +0.000 A 
ATOM     16  C   UNL     1       3.699   3.390  17.186  0.00  0.00    +0.000 A 
ATOM     17  N   UNL     1       4.698   3.046  16.329  0.00  0.00    +0.000 N 
ATOM     18  N   UNL     1       5.771   3.849  16.395  0.00  0.00    +0.000 NA
ATOM     19  C   UNL     1       5.479   4.736  17.364  0.00  0.00    +0.000 A 
ATOM     20  H   UNL     1       4.719   2.276  15.669  0.00  0.00    +0.000 HD
BRANCH  19  21
ATOM     21  C   UNL     1       6.452   5.757  17.772  0.00  0.00    +0.000 A 
ATOM     22  C   UNL     1       7.300   5.538  18.868  0.00  0.00    +0.000 A 
ATOM     23  C   UNL     1       8.215   6.515  19.270  0.00  0.00    +0.000 A 
ATOM     24  C   UNL     1       8.296   7.723  18.580  0.00  0.00    +0.000 A 
ATOM     25  C   UNL     1       7.459   7.959  17.494  0.00  0.00    +0.000 A 
ATOM     26  C   UNL     1       6.539   6.984  17.098  0.00  0.00    +0.000 A 
ENDBRANCH  19  21
ENDBRANCH   5  15
TORSDOF 2
ENDMDL
MODEL 5
REMARK VINA RESULT:      -8.0      4.912      6.751
REMARK  Name = 
REMARK  2 active torsions:
REMARK  status: ('A' for Active; 'I' for Inactive)
REMARK    1  A    between atoms: C_5  and  C_6
REMARK    2  A    between atoms: C_10  and  C_11
REMARK                            x       y       z     vdW  Elec       q    Type
REMARK                         _______ _______ _______ _____ _____    ______ ____
ROOT
ATOM      1  N   UNL     1       3.259   6.552  19.162  0.00  0.00    +0.000 NA
ATOM      2  C   UNL     1       3.713   5.579  18.452  0.00  0.00    +0.000 C 
ATOM      3  S   UNL     1       4.829   5.913  17.162  0.00  0.00    +0.000 S 
ATOM      4  C   UNL     1       4.970   4.245  16.769  0.00  0.00    +0.000 C 
ATOM      5  C   UNL     1       5.687   3.706  15.773  0.00  0.00    +0.000 C 
ATOM      6  C   UNL     1       4.148   3.414  17.699  0.00  0.00    +0.000 C 
ATOM      7  O   UNL     1       4.101   2.195  17.591  0.00  0.00    +0.000 OA
ATOM      8  N   UNL     1       3.474   4.241  18.581  0.00  0.00    +0.000 N 
ATOM      9  C   UNL     1       2.690   3.672  19.569  0.00  0.00    +0.000 A 
ATOM     10  N   UNL     1       2.793   2.443  20.039  0.00  0.00    +0.000 NA
ATOM     11  N   UNL     1       1.886   2.171  21.045  0.00  0.00    +0.000 NA
ATOM     12  C   UNL     1       1.074   3.183  21.250  0.00  0.00    +0.000 A 
ATOM     13  S   UNL     1       1.371   4.540  20.257  0.00  0.00    +0.000 S 
ATOM     14  H   UNL     1       3.664   7.423  18.796  0.00  0.00    +0.000 HD
ENDROOT
BRANCH   5  15
ATOM     15  C   UNL     1       6.554   4.411  14.890  0.00  0.00    +0.000 A 
ATOM     16  C   UNL     1       7.457   5.368  15.282  0.00  0.00    +0.000 A 
ATOM     17  N   UNL     1       8.086   5.762  14.142  0.00  0.00    +0.000 N 
ATOM     18  N   UNL     1       7.659   5.128  13.039  0.00  0.00    +0.000 NA
ATOM     19  C   UNL     1       6.681   4.310  13.469  0.00  0.00    +0.000 A 
ATOM     20  H   UNL     1       8.817   6.459  14.038  0.00  0.00    +0.000 HD
BRANCH  19  21
ATOM     21  C   UNL     1       5.921   3.480  12.525  0.00  0.00    +0.000 A 
ATOM     22  C   UNL     1       6.474   2.300  12.007  0.00  0.00    +0.000 A 
ATOM     23  C   UNL     1       5.761   1.517  11.095  0.00  0.00    +0.000 A 
ATOM     24  C   UNL     1       4.485   1.903  10.690  0.00  0.00    +0.000 A 
ATOM     25  C   UNL     1       3.923   3.074  11.190  0.00  0.00    +0.000 A 
ATOM     26  C   UNL     1       4.641   3.860  12.096  0.00  0.00    +0.000 A 
ENDBRANCH  19  21
ENDBRANCH   5  15
TORSDOF 2
ENDMDL
MODEL 6
REMARK VINA RESULT:      -8.0      1.602      1.887
REMARK  Name = 
REMARK  2 active torsions:
REMARK  status: ('A' for Active; 'I' for Inactive)
REMARK    1  A    between atoms: C_5  and  C_6
REMARK    2  A    between atoms: C_10  and  C_11
REMARK                            x       y       z     vdW  Elec       q    Type
REMARK                         _______ _______ _______ _____ _____    ______ ____
ROOT
ATOM      1  N   UNL     1      -1.016  11.841  18.258  0.00  0.00    +0.000 NA
ATOM      2  C   UNL     1      -0.366  10.985  18.965  0.00  0.00    +0.000 C 
ATOM      3  S   UNL     1       0.634   9.806  18.171  0.00  0.00    +0.000 S 
ATOM      4  C   UNL     1       1.137   9.131  19.671  0.00  0.00    +0.000 C 
ATOM      5  C   UNL     1       1.944   8.077  19.855  0.00  0.00    +0.000 C 
ATOM      6  C   UNL     1       0.531   9.878  20.813  0.00  0.00    +0.000 C 
ATOM      7  O   UNL     1       0.753   9.558  21.974  0.00  0.00    +0.000 OA
ATOM      8  N   UNL     1      -0.300  10.872  20.325  0.00  0.00    +0.000 N 
ATOM      9  C   UNL     1      -0.928  11.722  21.218  0.00  0.00    +0.000 A 
ATOM     10  N   UNL     1      -0.549  11.974  22.457  0.00  0.00    +0.000 NA
ATOM     11  N   UNL     1      -1.361  12.891  23.095  0.00  0.00    +0.000 NA
ATOM     12  C   UNL     1      -2.375  13.246  22.340  0.00  0.00    +0.000 A 
ATOM     13  S   UNL     1      -2.398  12.514  20.798  0.00  0.00    +0.000 S 
ATOM     14  H   UNL     1      -0.819  11.645  17.268  0.00  0.00    +0.000 HD
ENDROOT
BRANCH   5  15
ATOM     15  C   UNL     1       2.623   7.356  18.831  0.00  0.00    +0.000 A 
ATOM     16  C   UNL     1       3.274   7.934  17.769  0.00  0.00    +0.000 A 
ATOM     17  N   UNL     1       3.795   6.899  17.056  0.00  0.00    +0.000 N 
ATOM     18  N   UNL     1       3.533   5.692  17.580  0.00  0.00    +0.000 NA
ATOM     19  C   UNL     1       2.775   5.944  18.663  0.00  0.00    +0.000 A 
ATOM     20  H   UNL     1       4.341   6.939  16.201  0.00  0.00    +0.000 HD
BRANCH  19  21
ATOM     21  C   UNL     1       2.236   4.848  19.479  0.00  0.00    +0.000 A 
ATOM     22  C   UNL     1       1.304   3.950  18.939  0.00  0.00    +0.000 A 
ATOM     23  C   UNL     1       0.775   2.916  19.718  0.00  0.00    +0.000 A 
ATOM     24  C   UNL     1       1.171   2.767  21.045  0.00  0.00    +0.000 A 
ATOM     25  C   UNL     1       2.091   3.653  21.597  0.00  0.00    +0.000 A 
ATOM     26  C   UNL     1       2.613   4.691  20.820  0.00  0.00    +0.000 A 
ENDBRANCH  19  21
ENDBRANCH   5  15
TORSDOF 2
ENDMDL
MODEL 7
REMARK VINA RESULT:      -7.9      2.451      3.860
REMARK  Name = 
REMARK  2 active torsions:
REMARK  status: ('A' for Active; 'I' for Inactive)
REMARK    1  A    between atoms: C_5  and  C_6
REMARK    2  A    between atoms: C_10  and  C_11
REMARK                            x       y       z     vdW  Elec       q    Type
REMARK                         _______ _______ _______ _____ _____    ______ ____
ROOT
ATOM      1  N   UNL     1       0.877   8.740  21.914  0.00  0.00    +0.000 NA
ATOM      2  C   UNL     1       1.257   8.402  20.732  0.00  0.00    +0.000 C 
ATOM      3  S   UNL     1       1.626   6.736  20.400  0.00  0.00    +0.000 S 
ATOM      4  C   UNL     1       1.983   7.079  18.753  0.00  0.00    +0.000 C 
ATOM      5  C   UNL     1       2.410   6.217  17.820  0.00  0.00    +0.000 C 
ATOM      6  C   UNL     1       1.769   8.528  18.460  0.00  0.00    +0.000 C 
ATOM      7  O   UNL     1       1.972   8.989  17.343  0.00  0.00    +0.000 OA
ATOM      8  N   UNL     1       1.389   9.182  19.619  0.00  0.00    +0.000 N 
ATOM      9  C   UNL     1       1.088  10.531  19.562  0.00  0.00    +0.000 A 
ATOM     10  N   UNL     1       0.735  11.210  18.486  0.00  0.00    +0.000 NA
ATOM     11  N   UNL     1       0.469  12.539  18.749  0.00  0.00    +0.000 NA
ATOM     12  C   UNL     1       0.704  12.840  20.005  0.00  0.00    +0.000 A 
ATOM     13  S   UNL     1       1.236  11.528  20.959  0.00  0.00    +0.000 S 
ATOM     14  H   UNL     1       0.874   7.894  22.498  0.00  0.00    +0.000 HD
ENDROOT
BRANCH   5  15
ATOM     15  C   UNL     1       2.568   4.812  17.991  0.00  0.00    +0.000 A 
ATOM     16  C   UNL     1       1.533   3.913  18.059  0.00  0.00    +0.000 A 
ATOM     17  N   UNL     1       2.121   2.693  18.200  0.00  0.00    +0.000 N 
ATOM     18  N   UNL     1       3.462   2.736  18.224  0.00  0.00    +0.000 NA
ATOM     19  C   UNL     1       3.766   4.044  18.132  0.00  0.00    +0.000 A 
ATOM     20  H   UNL     1       1.671   1.787  18.286  0.00  0.00    +0.000 HD
BRANCH  19  21
ATOM     21  C   UNL     1       5.161   4.500  18.185  0.00  0.00    +0.000 A 
ATOM     22  C   UNL     1       5.665   5.126  19.334  0.00  0.00    +0.000 A 
ATOM     23  C   UNL     1       6.987   5.577  19.381  0.00  0.00    +0.000 A 
ATOM     24  C   UNL     1       7.823   5.407  18.280  0.00  0.00    +0.000 A 
ATOM     25  C   UNL     1       7.338   4.793  17.130  0.00  0.00    +0.000 A 
ATOM     26  C   UNL     1       6.014   4.349  17.081  0.00  0.00    +0.000 A 
ENDBRANCH  19  21
ENDBRANCH   5  15
TORSDOF 2
ENDMDL
MODEL 8
REMARK VINA RESULT:      -7.9      2.474      3.965
REMARK  Name = 
REMARK  2 active torsions:
REMARK  status: ('A' for Active; 'I' for Inactive)
REMARK    1  A    between atoms: C_5  and  C_6
REMARK    2  A    between atoms: C_10  and  C_11
REMARK                            x       y       z     vdW  Elec       q    Type
REMARK                         _______ _______ _______ _____ _____    ______ ____
ROOT
ATOM      1  N   UNL     1       0.348  10.402  22.405  0.00  0.00    +0.000 NA
ATOM      2  C   UNL     1       0.782   9.860  21.321  0.00  0.00    +0.000 C 
ATOM      3  S   UNL     1       1.383   8.229  21.365  0.00  0.00    +0.000 S 
ATOM      4  C   UNL     1       1.702   8.236  19.675  0.00  0.00    +0.000 C 
ATOM      5  C   UNL     1       2.253   7.253  18.951  0.00  0.00    +0.000 C 
ATOM      6  C   UNL     1       1.290   9.537  19.067  0.00  0.00    +0.000 C 
ATOM      7  O   UNL     1       1.437   9.756  17.871  0.00  0.00    +0.000 OA
ATOM      8  N   UNL     1       0.812  10.378  20.058  0.00  0.00    +0.000 N 
ATOM      9  C   UNL     1       0.327  11.624  19.705  0.00  0.00    +0.000 A 
ATOM     10  N   UNL     1      -0.108  11.986  18.512  0.00  0.00    +0.000 NA
ATOM     11  N   UNL     1      -0.560  13.290  18.474  0.00  0.00    +0.000 NA
ATOM     12  C   UNL     1      -0.379  13.898  19.624  0.00  0.00    +0.000 A 
ATOM     13  S   UNL     1       0.323  12.923  20.836  0.00  0.00    +0.000 S 
ATOM     14  H   UNL     1       0.458   9.718  23.164  0.00  0.00    +0.000 HD
ENDROOT
BRANCH   5  15
ATOM     15  C   UNL     1       2.604   5.958  19.431  0.00  0.00    +0.000 A 
ATOM     16  C   UNL     1       1.763   5.131  20.134  0.00  0.00    +0.000 A 
ATOM     17  N   UNL     1       2.482   4.001  20.373  0.00  0.00    +0.000 N 
ATOM     18  N   UNL     1       3.727   4.033  19.873  0.00  0.00    +0.000 NA
ATOM     19  C   UNL     1       3.842   5.252  19.314  0.00  0.00    +0.000 A 
ATOM     20  H   UNL     1       2.190   3.166  20.870  0.00  0.00    +0.000 HD
BRANCH  19  21
ATOM     21  C   UNL     1       5.106   5.686  18.704  0.00  0.00    +0.000 A 
ATOM     22  C   UNL     1       6.330   5.424  19.336  0.00  0.00    +0.000 A 
ATOM     23  C   UNL     1       7.533   5.851  18.767  0.00  0.00    +0.000 A 
ATOM     24  C   UNL     1       7.528   6.545  17.559  0.00  0.00    +0.000 A 
ATOM     25  C   UNL     1       6.322   6.818  16.921  0.00  0.00    +0.000 A 
ATOM     26  C   UNL     1       5.119   6.397  17.495  0.00  0.00    +0.000 A 
ENDBRANCH  19  21
ENDBRANCH   5  15
TORSDOF 2
ENDMDL
MODEL 9
REMARK VINA RESULT:      -7.9      3.043      7.727
REMARK  Name = 
REMARK  2 active torsions:
REMARK  status: ('A' for Active; 'I' for Inactive)
REMARK    1  A    between atoms: C_5  and  C_6
REMARK    2  A    between atoms: C_10  and  C_11
REMARK                            x       y       z     vdW  Elec       q    Type
REMARK                         _______ _______ _______ _____ _____    ______ ____
ROOT
ATOM      1  N   UNL     1       2.422   5.570  20.804  0.00  0.00    +0.000 NA
ATOM      2  C   UNL     1       2.257   6.597  20.047  0.00  0.00    +0.000 C 
ATOM      3  S   UNL     1       1.360   7.961  20.643  0.00  0.00    +0.000 S 
ATOM      4  C   UNL     1       1.604   8.838  19.184  0.00  0.00    +0.000 C 
ATOM      5  C   UNL     1       1.127  10.052  18.880  0.00  0.00    +0.000 C 
ATOM      6  C   UNL     1       2.440   8.049  18.230  0.00  0.00    +0.000 C 
ATOM      7  O   UNL     1       2.729   8.487  17.123  0.00  0.00    +0.000 OA
ATOM      8  N   UNL     1       2.735   6.817  18.786  0.00  0.00    +0.000 N 
ATOM      9  C   UNL     1       3.548   5.941  18.088  0.00  0.00    +0.000 A 
ATOM     10  N   UNL     1       4.403   6.259  17.134  0.00  0.00    +0.000 NA
ATOM     11  N   UNL     1       5.095   5.169  16.643  0.00  0.00    +0.000 NA
ATOM     12  C   UNL     1       4.684   4.049  17.191  0.00  0.00    +0.000 A 
ATOM     13  S   UNL     1       3.451   4.243  18.356  0.00  0.00    +0.000 S 
ATOM     14  H   UNL     1       1.941   5.755  21.694  0.00  0.00    +0.000 HD
ENDROOT
BRANCH   5  15
ATOM     15  C   UNL     1       0.389  10.903  19.752  0.00  0.00    +0.000 A 
ATOM     16  C   UNL     1       0.873  11.426  20.926  0.00  0.00    +0.000 A 
ATOM     17  N   UNL     1      -0.137  12.190  21.426  0.00  0.00    +0.000 N 
ATOM     18  N   UNL     1      -1.239  12.202  20.661  0.00  0.00    +0.000 NA
ATOM     19  C   UNL     1      -0.953  11.382  19.632  0.00  0.00    +0.000 A 
ATOM     20  H   UNL     1      -0.147  12.730  22.284  0.00  0.00    +0.000 HD
BRANCH  19  21
ATOM     21  C   UNL     1      -1.954  11.092  18.597  0.00  0.00    +0.000 A 
ATOM     22  C   UNL     1      -1.672  10.184  17.566  0.00  0.00    +0.000 A 
ATOM     23  C   UNL     1      -2.615   9.919  16.569  0.00  0.00    +0.000 A 
ATOM     24  C   UNL     1      -3.853  10.558  16.591  0.00  0.00    +0.000 A 
ATOM     25  C   UNL     1      -4.147  11.465  17.604  0.00  0.00    +0.000 A 
ATOM     26  C   UNL     1      -3.200  11.735  18.595  0.00  0.00    +0.000 A 
ENDBRANCH  19  21
ENDBRANCH   5  15
TORSDOF 2
ENDMDL
