MODEL 1
REMARK VINA RESULT:      -7.6      0.000      0.000
REMARK  Name = 
REMARK  8 active torsions:
REMARK  status: ('A' for Active; 'I' for Inactive)
REMARK    1  A    between atoms: C_1  and  O_2
REMARK    2  A    between atoms: O_2  and  C_3
REMARK    3  A    between atoms: C_6  and  C_7
REMARK    4  A    between atoms: C_7  and  O_8
REMARK    5  A    between atoms: C_7  and  C_9
REMARK    6  A    between atoms: C_11  and  C_12
REMARK    7  A    between atoms: C_17  and  O_18
REMARK    8  A    between atoms: O_18  and  C_19
REMARK                            x       y       z     vdW  Elec       q    Type
REMARK                         _______ _______ _______ _____ _____    ______ ____
ROOT
ATOM      1  C   UNL     1       3.393   4.508  19.375  0.00  0.00    +0.000 A 
ATOM      2  N   UNL     1       3.289   5.758  18.964  0.00  0.00    +0.000 NA
ATOM      3  C   UNL     1       2.334   6.440  19.702  0.00  0.00    +0.000 A 
ATOM      4  C   UNL     1       1.762   5.685  20.713  0.00  0.00    +0.000 A 
ATOM      5  S   UNL     1       2.394   4.093  20.710  0.00  0.00    +0.000 S 
ENDROOT
BRANCH   3   6
ATOM      6  C   UNL     1       1.931   7.817  19.386  0.00  0.00    +0.000 A 
ATOM      7  C   UNL     1       2.141   8.296  18.075  0.00  0.00    +0.000 A 
ATOM      8  C   UNL     1       1.808   9.603  17.716  0.00  0.00    +0.000 A 
ATOM      9  C   UNL     1       1.272  10.461  18.663  0.00  0.00    +0.000 A 
ATOM     10  C   UNL     1       1.058  10.011  19.967  0.00  0.00    +0.000 A 
ATOM     11  C   UNL     1       1.370   8.693  20.340  0.00  0.00    +0.000 A 
BRANCH  11  12
ATOM     12  O   UNL     1       1.182   8.227  21.619  0.00  0.00    +0.000 OA
ATOM     13  C   UNL     1       0.362   9.001  22.484  0.00  0.00    +0.000 C 
ENDBRANCH  11  12
ENDBRANCH   3   6
BRANCH   1  14
ATOM     14  C   UNL     1       4.278   3.470  18.722  0.00  0.00    +0.000 C 
BRANCH  14  18
ATOM     15  C   UNL     1       6.870   5.053  15.606  0.00  0.00    +0.000 A 
ATOM     16  C   UNL     1       5.602   4.566  15.295  0.00  0.00    +0.000 A 
ATOM     17  C   UNL     1       4.764   4.073  16.299  0.00  0.00    +0.000 A 
ATOM     18  C   UNL     1       5.193   4.023  17.635  0.00  0.00    +0.000 A 
ATOM     19  C   UNL     1       6.470   4.530  17.934  0.00  0.00    +0.000 A 
ATOM     20  C   UNL     1       7.306   5.029  16.929  0.00  0.00    +0.000 A 
BRANCH  15  22
ATOM     21  C   UNL     1       7.318   4.863  13.297  0.00  0.00    +0.000 C 
ATOM     22  O   UNL     1       7.606   5.492  14.540  0.00  0.00    +0.000 OA
ENDBRANCH  15  22
ENDBRANCH  14  18
BRANCH  14  23
ATOM     23  O   UNL     1       5.061   2.902  19.777  0.00  0.00    +0.000 OA
ATOM     24  H   UNL     1       4.421   2.762  20.506  0.00  0.00    +0.000 HD
ENDBRANCH  14  23
ENDBRANCH   1  14
TORSDOF 6
ENDMDL
MODEL 2
REMARK VINA RESULT:      -7.6      0.988      1.399
REMARK  Name = 
REMARK  8 active torsions:
REMARK  status: ('A' for Active; 'I' for Inactive)
REMARK    1  A    between atoms: C_1  and  O_2
REMARK    2  A    between atoms: O_2  and  C_3
REMARK    3  A    between atoms: C_6  and  C_7
REMARK    4  A    between atoms: C_7  and  O_8
REMARK    5  A    between atoms: C_7  and  C_9
REMARK    6  A    between atoms: C_11  and  C_12
REMARK    7  A    between atoms: C_17  and  O_18
REMARK    8  A    between atoms: O_18  and  C_19
REMARK                            x       y       z     vdW  Elec       q    Type
REMARK                         _______ _______ _______ _____ _____    ______ ____
ROOT
ATOM      1  C   UNL     1       4.196   5.056  19.409  0.00  0.00    +0.000 A 
ATOM      2  N   UNL     1       3.911   6.325  19.188  0.00  0.00    +0.000 NA
ATOM      3  C   UNL     1       2.596   6.599  19.528  0.00  0.00    +0.000 A 
ATOM      4  C   UNL     1       1.916   5.515  20.058  0.00  0.00    +0.000 A 
ATOM      5  S   UNL     1       2.921   4.129  20.091  0.00  0.00    +0.000 S 
ENDROOT
BRANCH   3   6
ATOM      6  C   UNL     1       1.975   7.909  19.280  0.00  0.00    +0.000 A 
ATOM      7  C   UNL     1       2.000   8.427  17.967  0.00  0.00    +0.000 A 
ATOM      8  C   UNL     1       1.455   9.677  17.669  0.00  0.00    +0.000 A 
ATOM      9  C   UNL     1       0.889  10.439  18.679  0.00  0.00    +0.000 A 
ATOM     10  C   UNL     1       0.855   9.948  19.985  0.00  0.00    +0.000 A 
ATOM     11  C   UNL     1       1.382   8.684  20.299  0.00  0.00    +0.000 A 
BRANCH  11  12
ATOM     12  O   UNL     1       1.376   8.181  21.577  0.00  0.00    +0.000 OA
ATOM     13  C   UNL     1       1.051   9.079  22.631  0.00  0.00    +0.000 C 
ENDBRANCH  11  12
ENDBRANCH   3   6
BRANCH   1  14
ATOM     14  C   UNL     1       5.518   4.408  19.059  0.00  0.00    +0.000 C 
BRANCH  14  18
ATOM     15  C   UNL     1       6.437   4.359  14.807  0.00  0.00    +0.000 A 
ATOM     16  C   UNL     1       7.396   4.758  15.736  0.00  0.00    +0.000 A 
ATOM     17  C   UNL     1       7.105   4.758  17.102  0.00  0.00    +0.000 A 
ATOM     18  C   UNL     1       5.832   4.392  17.567  0.00  0.00    +0.000 A 
ATOM     19  C   UNL     1       4.880   3.979  16.619  0.00  0.00    +0.000 A 
ATOM     20  C   UNL     1       5.174   3.974  15.251  0.00  0.00    +0.000 A 
BRANCH  15  22
ATOM     21  C   UNL     1       6.137   3.547  12.611  0.00  0.00    +0.000 C 
ATOM     22  O   UNL     1       6.829   4.418  13.497  0.00  0.00    +0.000 OA
ENDBRANCH  15  22
ENDBRANCH  14  18
BRANCH  14  23
ATOM     23  O   UNL     1       6.518   5.156  19.760  0.00  0.00    +0.000 OA
ATOM     24  H   UNL     1       6.339   6.088  19.517  0.00  0.00    +0.000 HD
ENDBRANCH  14  23
ENDBRANCH   1  14
TORSDOF 6
ENDMDL
MODEL 3
REMARK VINA RESULT:      -7.6      0.128      1.011
REMARK  Name = 
REMARK  8 active torsions:
REMARK  status: ('A' for Active; 'I' for Inactive)
REMARK    1  A    between atoms: C_1  and  O_2
REMARK    2  A    between atoms: O_2  and  C_3
REMARK    3  A    between atoms: C_6  and  C_7
REMARK    4  A    between atoms: C_7  and  O_8
REMARK    5  A    between atoms: C_7  and  C_9
REMARK    6  A    between atoms: C_11  and  C_12
REMARK    7  A    between atoms: C_17  and  O_18
REMARK    8  A    between atoms: O_18  and  C_19
REMARK                            x       y       z     vdW  Elec       q    Type
REMARK                         _______ _______ _______ _____ _____    ______ ____
ROOT
ATOM      1  C   UNL     1       3.411   4.517  19.435  0.00  0.00    +0.000 A 
ATOM      2  N   UNL     1       3.321   5.765  19.013  0.00  0.00    +0.000 NA
ATOM      3  C   UNL     1       2.338   6.449  19.712  0.00  0.00    +0.000 A 
ATOM      4  C   UNL     1       1.729   5.698  20.703  0.00  0.00    +0.000 A 
ATOM      5  S   UNL     1       2.362   4.107  20.731  0.00  0.00    +0.000 S 
ENDROOT
BRANCH   3   6
ATOM      6  C   UNL     1       1.946   7.825  19.374  0.00  0.00    +0.000 A 
ATOM      7  C   UNL     1       2.235   8.308  18.079  0.00  0.00    +0.000 A 
ATOM      8  C   UNL     1       1.916   9.613  17.702  0.00  0.00    +0.000 A 
ATOM      9  C   UNL     1       1.317  10.466  18.616  0.00  0.00    +0.000 A 
ATOM     10  C   UNL     1       1.025  10.012  19.903  0.00  0.00    +0.000 A 
ATOM     11  C   UNL     1       1.322   8.694  20.293  0.00  0.00    +0.000 A 
BRANCH  11  12
ATOM     12  O   UNL     1       1.058   8.224  21.556  0.00  0.00    +0.000 OA
ATOM     13  C   UNL     1       0.681   9.176  22.543  0.00  0.00    +0.000 C 
ENDBRANCH  11  12
ENDBRANCH   3   6
BRANCH   1  14
ATOM     14  C   UNL     1       4.321   3.477  18.820  0.00  0.00    +0.000 C 
BRANCH  14  18
ATOM     15  C   UNL     1       6.815   4.962  15.579  0.00  0.00    +0.000 A 
ATOM     16  C   UNL     1       7.262   5.008  16.898  0.00  0.00    +0.000 A 
ATOM     17  C   UNL     1       6.468   4.516  17.936  0.00  0.00    +0.000 A 
ATOM     18  C   UNL     1       5.188   3.999  17.680  0.00  0.00    +0.000 A 
ATOM     19  C   UNL     1       4.755   3.947  16.343  0.00  0.00    +0.000 A 
ATOM     20  C   UNL     1       5.555   4.435  15.303  0.00  0.00    +0.000 A 
BRANCH  15  22
ATOM     21  C   UNL     1       7.539   4.971  13.333  0.00  0.00    +0.000 C 
ATOM     22  O   UNL     1       7.670   5.490  14.651  0.00  0.00    +0.000 OA
ENDBRANCH  15  22
ENDBRANCH  14  18
BRANCH  14  23
ATOM     23  O   UNL     1       5.150   3.003  19.886  0.00  0.00    +0.000 OA
ATOM     24  H   UNL     1       4.914   2.056  19.976  0.00  0.00    +0.000 HD
ENDBRANCH  14  23
ENDBRANCH   1  14
TORSDOF 6
ENDMDL
MODEL 4
REMARK VINA RESULT:      -7.5      1.015      1.079
REMARK  Name = 
REMARK  8 active torsions:
REMARK  status: ('A' for Active; 'I' for Inactive)
REMARK    1  A    between atoms: C_1  and  O_2
REMARK    2  A    between atoms: O_2  and  C_3
REMARK    3  A    between atoms: C_6  and  C_7
REMARK    4  A    between atoms: C_7  and  O_8
REMARK    5  A    between atoms: C_7  and  C_9
REMARK    6  A    between atoms: C_11  and  C_12
REMARK    7  A    between atoms: C_17  and  O_18
REMARK    8  A    between atoms: O_18  and  C_19
REMARK                            x       y       z     vdW  Elec       q    Type
REMARK                         _______ _______ _______ _____ _____    ______ ____
ROOT
ATOM      1  C   UNL     1       4.205   5.084  19.425  0.00  0.00    +0.000 A 
ATOM      2  N   UNL     1       3.909   6.351  19.204  0.00  0.00    +0.000 NA
ATOM      3  C   UNL     1       2.586   6.609  19.529  0.00  0.00    +0.000 A 
ATOM      4  C   UNL     1       1.913   5.516  20.049  0.00  0.00    +0.000 A 
ATOM      5  S   UNL     1       2.933   4.141  20.090  0.00  0.00    +0.000 S 
ENDROOT
BRANCH   3   6
ATOM      6  C   UNL     1       1.954   7.912  19.277  0.00  0.00    +0.000 A 
ATOM      7  C   UNL     1       1.955   8.416  17.958  0.00  0.00    +0.000 A 
ATOM      8  C   UNL     1       1.397   9.659  17.655  0.00  0.00    +0.000 A 
ATOM      9  C   UNL     1       0.843  10.429  18.666  0.00  0.00    +0.000 A 
ATOM     10  C   UNL     1       0.833   9.953  19.977  0.00  0.00    +0.000 A 
ATOM     11  C   UNL     1       1.373   8.695  20.297  0.00  0.00    +0.000 A 
BRANCH  11  12
ATOM     12  O   UNL     1       1.390   8.207  21.580  0.00  0.00    +0.000 OA
ATOM     13  C   UNL     1       0.954   9.076  22.617  0.00  0.00    +0.000 C 
ENDBRANCH  11  12
ENDBRANCH   3   6
BRANCH   1  14
ATOM     14  C   UNL     1       5.539   4.453  19.090  0.00  0.00    +0.000 C 
BRANCH  14  18
ATOM     15  C   UNL     1       6.485   4.473  14.843  0.00  0.00    +0.000 A 
ATOM     16  C   UNL     1       5.314   3.876  15.307  0.00  0.00    +0.000 A 
ATOM     17  C   UNL     1       5.004   3.884  16.669  0.00  0.00    +0.000 A 
ATOM     18  C   UNL     1       5.879   4.461  17.604  0.00  0.00    +0.000 A 
ATOM     19  C   UNL     1       7.048   5.071  17.119  0.00  0.00    +0.000 A 
ATOM     20  C   UNL     1       7.356   5.067  15.754  0.00  0.00    +0.000 A 
BRANCH  15  22
ATOM     21  C   UNL     1       5.798   3.531  12.791  0.00  0.00    +0.000 C 
ATOM     22  O   UNL     1       6.692   4.386  13.493  0.00  0.00    +0.000 OA
ENDBRANCH  15  22
ENDBRANCH  14  18
BRANCH  14  23
ATOM     23  O   UNL     1       6.519   5.197  19.819  0.00  0.00    +0.000 OA
ATOM     24  H   UNL     1       6.021   5.591  20.565  0.00  0.00    +0.000 HD
ENDBRANCH  14  23
ENDBRANCH   1  14
TORSDOF 6
ENDMDL
MODEL 5
REMARK VINA RESULT:      -7.2      3.444      8.168
REMARK  Name = 
REMARK  8 active torsions:
REMARK  status: ('A' for Active; 'I' for Inactive)
REMARK    1  A    between atoms: C_1  and  O_2
REMARK    2  A    between atoms: O_2  and  C_3
REMARK    3  A    between atoms: C_6  and  C_7
REMARK    4  A    between atoms: C_7  and  O_8
REMARK    5  A    between atoms: C_7  and  C_9
REMARK    6  A    between atoms: C_11  and  C_12
REMARK    7  A    between atoms: C_17  and  O_18
REMARK    8  A    between atoms: O_18  and  C_19
REMARK                            x       y       z     vdW  Elec       q    Type
REMARK                         _______ _______ _______ _____ _____    ______ ____
ROOT
ATOM      1  C   UNL     1       1.424   9.250  18.890  0.00  0.00    +0.000 A 
ATOM      2  N   UNL     1       2.018   8.437  18.037  0.00  0.00    +0.000 NA
ATOM      3  C   UNL     1       2.433   7.277  18.673  0.00  0.00    +0.000 A 
ATOM      4  C   UNL     1       2.088   7.218  20.013  0.00  0.00    +0.000 A 
ATOM      5  S   UNL     1       1.275   8.648  20.491  0.00  0.00    +0.000 S 
ENDROOT
BRANCH   3   6
ATOM      6  C   UNL     1       3.223   6.244  17.988  0.00  0.00    +0.000 A 
ATOM      7  C   UNL     1       4.461   6.611  17.417  0.00  0.00    +0.000 A 
ATOM      8  C   UNL     1       5.246   5.686  16.728  0.00  0.00    +0.000 A 
ATOM      9  C   UNL     1       4.804   4.381  16.583  0.00  0.00    +0.000 A 
ATOM     10  C   UNL     1       3.582   3.995  17.137  0.00  0.00    +0.000 A 
ATOM     11  C   UNL     1       2.788   4.909  17.850  0.00  0.00    +0.000 A 
BRANCH  11  12
ATOM     12  O   UNL     1       1.575   4.561  18.393  0.00  0.00    +0.000 OA
ATOM     13  C   UNL     1       1.318   3.176  18.587  0.00  0.00    +0.000 C 
ENDBRANCH  11  12
ENDBRANCH   3   6
BRANCH   1  14
ATOM     14  C   UNL     1       0.935  10.638  18.540  0.00  0.00    +0.000 C 
BRANCH  14  18
ATOM     15  C   UNL     1      -3.390  10.947  18.175  0.00  0.00    +0.000 A 
ATOM     16  C   UNL     1      -2.681  10.002  17.436  0.00  0.00    +0.000 A 
ATOM     17  C   UNL     1      -1.294   9.893  17.566  0.00  0.00    +0.000 A 
ATOM     18  C   UNL     1      -0.580  10.755  18.414  0.00  0.00    +0.000 A 
ATOM     19  C   UNL     1      -1.311  11.694  19.163  0.00  0.00    +0.000 A 
ATOM     20  C   UNL     1      -2.701  11.798  19.036  0.00  0.00    +0.000 A 
BRANCH  15  22
ATOM     21  C   UNL     1      -5.178  11.905  16.969  0.00  0.00    +0.000 C 
ATOM     22  O   UNL     1      -4.740  10.974  17.951  0.00  0.00    +0.000 OA
ENDBRANCH  15  22
ENDBRANCH  14  18
BRANCH  14  23
ATOM     23  O   UNL     1       1.406  11.495  19.585  0.00  0.00    +0.000 OA
ATOM     24  H   UNL     1       0.988  12.361  19.396  0.00  0.00    +0.000 HD
ENDBRANCH  14  23
ENDBRANCH   1  14
TORSDOF 6
ENDMDL
MODEL 6
REMARK VINA RESULT:      -7.1      3.443      8.198
REMARK  Name = 
REMARK  8 active torsions:
REMARK  status: ('A' for Active; 'I' for Inactive)
REMARK    1  A    between atoms: C_1  and  O_2
REMARK    2  A    between atoms: O_2  and  C_3
REMARK    3  A    between atoms: C_6  and  C_7
REMARK    4  A    between atoms: C_7  and  O_8
REMARK    5  A    between atoms: C_7  and  C_9
REMARK    6  A    between atoms: C_11  and  C_12
REMARK    7  A    between atoms: C_17  and  O_18
REMARK    8  A    between atoms: O_18  and  C_19
REMARK                            x       y       z     vdW  Elec       q    Type
REMARK                         _______ _______ _______ _____ _____    ______ ____
ROOT
ATOM      1  C   UNL     1       1.411   9.290  18.887  0.00  0.00    +0.000 A 
ATOM      2  N   UNL     1       2.050   8.537  18.012  0.00  0.00    +0.000 NA
ATOM      3  C   UNL     1       2.510   7.374  18.609  0.00  0.00    +0.000 A 
ATOM      4  C   UNL     1       2.154   7.249  19.941  0.00  0.00    +0.000 A 
ATOM      5  S   UNL     1       1.274   8.622  20.463  0.00  0.00    +0.000 S 
ENDROOT
BRANCH   3   6
ATOM      6  C   UNL     1       3.352   6.403  17.895  0.00  0.00    +0.000 A 
ATOM      7  C   UNL     1       4.372   6.891  17.049  0.00  0.00    +0.000 A 
ATOM      8  C   UNL     1       5.188   6.025  16.321  0.00  0.00    +0.000 A 
ATOM      9  C   UNL     1       4.991   4.656  16.411  0.00  0.00    +0.000 A 
ATOM     10  C   UNL     1       3.988   4.150  17.238  0.00  0.00    +0.000 A 
ATOM     11  C   UNL     1       3.170   5.007  17.994  0.00  0.00    +0.000 A 
BRANCH  11  12
ATOM     12  O   UNL     1       2.165   4.539  18.805  0.00  0.00    +0.000 OA
ATOM     13  C   UNL     1       1.288   3.561  18.263  0.00  0.00    +0.000 C 
ENDBRANCH  11  12
ENDBRANCH   3   6
BRANCH   1  14
ATOM     14  C   UNL     1       0.864  10.668  18.584  0.00  0.00    +0.000 C 
BRANCH  14  18
ATOM     15  C   UNL     1      -3.444  10.810  17.993  0.00  0.00    +0.000 A 
ATOM     16  C   UNL     1      -2.814  11.714  18.846  0.00  0.00    +0.000 A 
ATOM     17  C   UNL     1      -1.429  11.678  19.023  0.00  0.00    +0.000 A 
ATOM     18  C   UNL     1      -0.645  10.710  18.375  0.00  0.00    +0.000 A 
ATOM     19  C   UNL     1      -1.294   9.814  17.507  0.00  0.00    +0.000 A 
ATOM     20  C   UNL     1      -2.681   9.854  17.327  0.00  0.00    +0.000 A 
BRANCH  15  22
ATOM     21  C   UNL     1      -5.281  11.976  17.078  0.00  0.00    +0.000 C 
ATOM     22  O   UNL     1      -4.805  10.929  17.915  0.00  0.00    +0.000 OA
ENDBRANCH  15  22
ENDBRANCH  14  18
BRANCH  14  23
ATOM     23  O   UNL     1       1.225  11.488  19.700  0.00  0.00    +0.000 OA
ATOM     24  H   UNL     1       1.961  11.003  20.130  0.00  0.00    +0.000 HD
ENDBRANCH  14  23
ENDBRANCH   1  14
TORSDOF 6
ENDMDL
MODEL 7
REMARK VINA RESULT:      -7.1      2.494      4.680
REMARK  Name = 
REMARK  8 active torsions:
REMARK  status: ('A' for Active; 'I' for Inactive)
REMARK    1  A    between atoms: C_1  and  O_2
REMARK    2  A    between atoms: O_2  and  C_3
REMARK    3  A    between atoms: C_6  and  C_7
REMARK    4  A    between atoms: C_7  and  O_8
REMARK    5  A    between atoms: C_7  and  C_9
REMARK    6  A    between atoms: C_11  and  C_12
REMARK    7  A    between atoms: C_17  and  O_18
REMARK    8  A    between atoms: O_18  and  C_19
REMARK                            x       y       z     vdW  Elec       q    Type
REMARK                         _______ _______ _______ _____ _____    ______ ____
ROOT
ATOM      1  C   UNL     1       5.619   5.358  16.813  0.00  0.00    +0.000 A 
ATOM      2  N   UNL     1       4.359   5.138  17.137  0.00  0.00    +0.000 NA
ATOM      3  C   UNL     1       4.275   4.418  18.319  0.00  0.00    +0.000 A 
ATOM      4  C   UNL     1       5.503   4.149  18.901  0.00  0.00    +0.000 A 
ATOM      5  S   UNL     1       6.777   4.766  17.936  0.00  0.00    +0.000 S 
ENDROOT
BRANCH   3   6
ATOM      6  C   UNL     1       2.995   3.936  18.857  0.00  0.00    +0.000 A 
ATOM      7  C   UNL     1       2.469   2.725  18.357  0.00  0.00    +0.000 A 
ATOM      8  C   UNL     1       1.244   2.226  18.803  0.00  0.00    +0.000 A 
ATOM      9  C   UNL     1       0.515   2.934  19.746  0.00  0.00    +0.000 A 
ATOM     10  C   UNL     1       1.014   4.135  20.253  0.00  0.00    +0.000 A 
ATOM     11  C   UNL     1       2.254   4.642  19.828  0.00  0.00    +0.000 A 
BRANCH  11  12
ATOM     12  O   UNL     1       2.763   5.828  20.299  0.00  0.00    +0.000 OA
ATOM     13  C   UNL     1       2.198   7.029  19.791  0.00  0.00    +0.000 C 
ENDBRANCH  11  12
ENDBRANCH   3   6
BRANCH   1  14
ATOM     14  C   UNL     1       6.062   6.036  15.535  0.00  0.00    +0.000 C 
BRANCH  14  18
ATOM     15  C   UNL     1       6.651   3.328  12.181  0.00  0.00    +0.000 A 
ATOM     16  C   UNL     1       7.601   4.302  12.483  0.00  0.00    +0.000 A 
ATOM     17  C   UNL     1       7.419   5.161  13.570  0.00  0.00    +0.000 A 
ATOM     18  C   UNL     1       6.260   5.086  14.359  0.00  0.00    +0.000 A 
ATOM     19  C   UNL     1       5.318   4.090  14.050  0.00  0.00    +0.000 A 
ATOM     20  C   UNL     1       5.504   3.227  12.965  0.00  0.00    +0.000 A 
BRANCH  15  22
ATOM     21  C   UNL     1       6.414   1.234  11.119  0.00  0.00    +0.000 C 
ATOM     22  O   UNL     1       6.929   2.560  11.084  0.00  0.00    +0.000 OA
ENDBRANCH  15  22
ENDBRANCH  14  18
BRANCH  14  23
ATOM     23  O   UNL     1       5.043   6.992  15.225  0.00  0.00    +0.000 OA
ATOM     24  H   UNL     1       4.521   7.069  16.051  0.00  0.00    +0.000 HD
ENDBRANCH  14  23
ENDBRANCH   1  14
TORSDOF 6
ENDMDL
MODEL 8
REMARK VINA RESULT:      -7.1      1.125      1.986
REMARK  Name = 
REMARK  8 active torsions:
REMARK  status: ('A' for Active; 'I' for Inactive)
REMARK    1  A    between atoms: C_1  and  O_2
REMARK    2  A    between atoms: O_2  and  C_3
REMARK    3  A    between atoms: C_6  and  C_7
REMARK    4  A    between atoms: C_7  and  O_8
REMARK    5  A    between atoms: C_7  and  C_9
REMARK    6  A    between atoms: C_11  and  C_12
REMARK    7  A    between atoms: C_17  and  O_18
REMARK    8  A    between atoms: O_18  and  C_19
REMARK                            x       y       z     vdW  Elec       q    Type
REMARK                         _______ _______ _______ _____ _____    ______ ____
ROOT
ATOM      1  C   UNL     1       3.388   4.129  19.639  0.00  0.00    +0.000 A 
ATOM      2  N   UNL     1       3.302   5.415  19.357  0.00  0.00    +0.000 NA
ATOM      3  C   UNL     1       2.286   6.010  20.089  0.00  0.00    +0.000 A 
ATOM      4  C   UNL     1       1.647   5.149  20.965  0.00  0.00    +0.000 A 
ATOM      5  S   UNL     1       2.295   3.569  20.840  0.00  0.00    +0.000 S 
ENDROOT
BRANCH   3   6
ATOM      6  C   UNL     1       1.892   7.413  19.892  0.00  0.00    +0.000 A 
ATOM      7  C   UNL     1       1.321   8.110  20.978  0.00  0.00    +0.000 A 
ATOM      8  C   UNL     1       0.899   9.435  20.851  0.00  0.00    +0.000 A 
ATOM      9  C   UNL     1       1.026  10.083  19.632  0.00  0.00    +0.000 A 
ATOM     10  C   UNL     1       1.586   9.413  18.543  0.00  0.00    +0.000 A 
ATOM     11  C   UNL     1       2.033   8.086  18.660  0.00  0.00    +0.000 A 
BRANCH  11  12
ATOM     12  O   UNL     1       2.575   7.397  17.602  0.00  0.00    +0.000 OA
ATOM     13  C   UNL     1       3.928   7.674  17.265  0.00  0.00    +0.000 C 
ENDBRANCH  11  12
ENDBRANCH   3   6
BRANCH   1  14
ATOM     14  C   UNL     1       4.332   3.169  18.948  0.00  0.00    +0.000 C 
BRANCH  14  18
ATOM     15  C   UNL     1       6.828   5.017  15.900  0.00  0.00    +0.000 A 
ATOM     16  C   UNL     1       5.645   4.368  15.552  0.00  0.00    +0.000 A 
ATOM     17  C   UNL     1       4.836   3.789  16.533  0.00  0.00    +0.000 A 
ATOM     18  C   UNL     1       5.213   3.816  17.885  0.00  0.00    +0.000 A 
ATOM     19  C   UNL     1       6.402   4.486  18.222  0.00  0.00    +0.000 A 
ATOM     20  C   UNL     1       7.209   5.070  17.239  0.00  0.00    +0.000 A 
BRANCH  15  22
ATOM     21  C   UNL     1       7.276   4.945  13.584  0.00  0.00    +0.000 C 
ATOM     22  O   UNL     1       7.546   5.528  14.853  0.00  0.00    +0.000 OA
ENDBRANCH  15  22
ENDBRANCH  14  18
BRANCH  14  23
ATOM     23  O   UNL     1       5.147   2.608  19.982  0.00  0.00    +0.000 OA
ATOM     24  H   UNL     1       4.908   1.657  19.991  0.00  0.00    +0.000 HD
ENDBRANCH  14  23
ENDBRANCH   1  14
TORSDOF 6
ENDMDL
MODEL 9
REMARK VINA RESULT:      -7.1      1.574      6.708
REMARK  Name = 
REMARK  8 active torsions:
REMARK  status: ('A' for Active; 'I' for Inactive)
REMARK    1  A    between atoms: C_1  and  O_2
REMARK    2  A    between atoms: O_2  and  C_3
REMARK    3  A    between atoms: C_6  and  C_7
REMARK    4  A    between atoms: C_7  and  O_8
REMARK    5  A    between atoms: C_7  and  C_9
REMARK    6  A    between atoms: C_11  and  C_12
REMARK    7  A    between atoms: C_17  and  O_18
REMARK    8  A    between atoms: O_18  and  C_19
REMARK                            x       y       z     vdW  Elec       q    Type
REMARK                         _______ _______ _______ _____ _____    ______ ____
ROOT
ATOM      1  C   UNL     1       3.017   4.694  19.574  0.00  0.00    +0.000 A 
ATOM      2  N   UNL     1       3.725   5.152  18.559  0.00  0.00    +0.000 NA
ATOM      3  C   UNL     1       4.395   4.119  17.922  0.00  0.00    +0.000 A 
ATOM      4  C   UNL     1       4.130   2.867  18.452  0.00  0.00    +0.000 A 
ATOM      5  S   UNL     1       3.066   2.990  19.789  0.00  0.00    +0.000 S 
ENDROOT
BRANCH   3   6
ATOM      6  C   UNL     1       5.347   4.356  16.827  0.00  0.00    +0.000 A 
ATOM      7  C   UNL     1       4.862   4.347  15.501  0.00  0.00    +0.000 A 
ATOM      8  C   UNL     1       5.717   4.536  14.414  0.00  0.00    +0.000 A 
ATOM      9  C   UNL     1       7.073   4.722  14.629  0.00  0.00    +0.000 A 
ATOM     10  C   UNL     1       7.575   4.733  15.931  0.00  0.00    +0.000 A 
ATOM     11  C   UNL     1       6.726   4.563  17.038  0.00  0.00    +0.000 A 
BRANCH  11  12
ATOM     12  O   UNL     1       7.194   4.554  18.330  0.00  0.00    +0.000 OA
ATOM     13  C   UNL     1       7.582   5.801  18.893  0.00  0.00    +0.000 C 
ENDBRANCH  11  12
ENDBRANCH   3   6
BRANCH   1  14
ATOM     14  C   UNL     1       2.241   5.570  20.533  0.00  0.00    +0.000 C 
BRANCH  14  18
ATOM     15  C   UNL     1       1.356   9.554  19.024  0.00  0.00    +0.000 A 
ATOM     16  C   UNL     1       0.998   9.190  20.321  0.00  0.00    +0.000 A 
ATOM     17  C   UNL     1       1.298   7.916  20.810  0.00  0.00    +0.000 A 
ATOM     18  C   UNL     1       1.931   6.963  19.996  0.00  0.00    +0.000 A 
ATOM     19  C   UNL     1       2.297   7.350  18.695  0.00  0.00    +0.000 A 
ATOM     20  C   UNL     1       2.002   8.628  18.208  0.00  0.00    +0.000 A 
BRANCH  15  22
ATOM     21  C   UNL     1      -0.176  11.331  19.275  0.00  0.00    +0.000 C 
ATOM     22  O   UNL     1       0.994  10.819  18.650  0.00  0.00    +0.000 OA
ENDBRANCH  15  22
ENDBRANCH  14  18
BRANCH  14  23
ATOM     23  O   UNL     1       1.023   4.870  20.806  0.00  0.00    +0.000 OA
ATOM     24  H   UNL     1       1.284   3.925  20.824  0.00  0.00    +0.000 HD
ENDBRANCH  14  23
ENDBRANCH   1  14
TORSDOF 6
ENDMDL
