MODEL 1
REMARK VINA RESULT:      -7.1      0.000      0.000
REMARK  Name = 
REMARK  4 active torsions:
REMARK  status: ('A' for Active; 'I' for Inactive)
REMARK    1  A    between atoms: C_1  and  C_2
REMARK    2  A    between atoms: C_5  and  N_6
REMARK    3  A    between atoms: C_7  and  C_9
REMARK    4  A    between atoms: C_16  and  C_17
REMARK                            x       y       z     vdW  Elec       q    Type
REMARK                         _______ _______ _______ _____ _____    ______ ____
ROOT
ATOM      1  C   UNL     1       1.341   9.008  19.338  0.00  0.00    +0.000 A 
ATOM      2  C   UNL     1       0.529  10.109  19.143  0.00  0.00    +0.000 A 
ATOM      3  N   UNL     1      -0.110  10.335  20.337  0.00  0.00    +0.000 N 
ATOM      4  C   UNL     1      -1.060  11.332  20.667  0.00  0.00    +0.000 A 
ATOM      5  C   UNL     1      -1.499  12.240  19.704  0.00  0.00    +0.000 A 
ATOM      6  C   UNL     1      -2.419  13.215  20.078  0.00  0.00    +0.000 A 
ATOM      7  C   UNL     1      -2.857  13.276  21.397  0.00  0.00    +0.000 A 
ATOM      8  C   UNL     1      -2.373  12.343  22.306  0.00  0.00    +0.000 A 
ATOM      9  C   UNL     1      -2.757  12.400  23.753  0.00  0.00    +0.000 C 
ATOM     10  N   UNL     1      -1.499  11.370  21.953  0.00  0.00    +0.000 NA
ATOM     11  C   UNL     1       0.372   9.378  21.206  0.00  0.00    +0.000 A 
ATOM     12  N   UNL     1       1.242   8.563  20.640  0.00  0.00    +0.000 NA
ENDROOT
BRANCH   1  14
ATOM     13  N   UNL     1       2.700   7.148  18.689  0.00  0.00    +0.000 N 
ATOM     14  C   UNL     1       2.171   8.377  18.313  0.00  0.00    +0.000 C 
ATOM     15  O   UNL     1       2.308   8.924  17.221  0.00  0.00    +0.000 OA
ATOM     16  H   UNL     1       2.395   6.806  19.595  0.00  0.00    +0.000 HD
BRANCH  13  21
ATOM     17  C   UNL     1       6.013   3.807  15.389  0.00  0.00    +0.000 C 
ATOM     18  C   UNL     1       5.159   4.687  16.251  0.00  0.00    +0.000 A 
ATOM     19  C   UNL     1       5.463   6.035  16.425  0.00  0.00    +0.000 A 
ATOM     20  C   UNL     1       4.659   6.843  17.232  0.00  0.00    +0.000 A 
ATOM     21  C   UNL     1       3.533   6.334  17.887  0.00  0.00    +0.000 A 
ATOM     22  C   UNL     1       3.239   4.976  17.730  0.00  0.00    +0.000 A 
ATOM     23  C   UNL     1       4.041   4.163  16.911  0.00  0.00    +0.000 A 
ENDBRANCH  13  21
ENDBRANCH   1  14
TORSDOF 2
ENDMDL
MODEL 2
REMARK VINA RESULT:      -7.1      6.464      9.081
REMARK  Name = 
REMARK  4 active torsions:
REMARK  status: ('A' for Active; 'I' for Inactive)
REMARK    1  A    between atoms: C_1  and  C_2
REMARK    2  A    between atoms: C_5  and  N_6
REMARK    3  A    between atoms: C_7  and  C_9
REMARK    4  A    between atoms: C_16  and  C_17
REMARK                            x       y       z     vdW  Elec       q    Type
REMARK                         _______ _______ _______ _____ _____    ______ ____
ROOT
ATOM      1  C   UNL     1       7.272   7.212  18.002  0.00  0.00    +0.000 A 
ATOM      2  C   UNL     1       5.912   6.987  17.914  0.00  0.00    +0.000 A 
ATOM      3  N   UNL     1       5.738   5.627  18.002  0.00  0.00    +0.000 N 
ATOM      4  C   UNL     1       4.540   4.875  17.951  0.00  0.00    +0.000 A 
ATOM      5  C   UNL     1       3.313   5.507  17.752  0.00  0.00    +0.000 A 
ATOM      6  C   UNL     1       2.160   4.729  17.728  0.00  0.00    +0.000 A 
ATOM      7  C   UNL     1       2.253   3.355  17.923  0.00  0.00    +0.000 A 
ATOM      8  C   UNL     1       3.507   2.792  18.122  0.00  0.00    +0.000 A 
ATOM      9  C   UNL     1       3.664   1.330  18.404  0.00  0.00    +0.000 C 
ATOM     10  N   UNL     1       4.644   3.531  18.121  0.00  0.00    +0.000 NA
ATOM     11  C   UNL     1       7.002   5.100  18.170  0.00  0.00    +0.000 A 
ATOM     12  N   UNL     1       7.946   6.021  18.173  0.00  0.00    +0.000 NA
ENDROOT
BRANCH   1  14
ATOM     13  N   UNL     1       8.675   8.864  19.017  0.00  0.00    +0.000 N 
ATOM     14  C   UNL     1       7.921   8.519  17.902  0.00  0.00    +0.000 C 
ATOM     15  O   UNL     1       7.800   9.180  16.873  0.00  0.00    +0.000 OA
ATOM     16  H   UNL     1       8.742   8.146  19.732  0.00  0.00    +0.000 HD
BRANCH  13  21
ATOM     17  C   UNL     1      11.665  13.720  19.728  0.00  0.00    +0.000 C 
ATOM     18  C   UNL     1      10.883  12.457  19.530  0.00  0.00    +0.000 A 
ATOM     19  C   UNL     1      10.749  11.886  18.266  0.00  0.00    +0.000 A 
ATOM     20  C   UNL     1      10.017  10.709  18.096  0.00  0.00    +0.000 A 
ATOM     21  C   UNL     1       9.401  10.068  19.176  0.00  0.00    +0.000 A 
ATOM     22  C   UNL     1       9.517  10.651  20.441  0.00  0.00    +0.000 A 
ATOM     23  C   UNL     1      10.261  11.831  20.616  0.00  0.00    +0.000 A 
ENDBRANCH  13  21
ENDBRANCH   1  14
TORSDOF 2
ENDMDL
MODEL 3
REMARK VINA RESULT:      -7.1      2.063      2.667
REMARK  Name = 
REMARK  4 active torsions:
REMARK  status: ('A' for Active; 'I' for Inactive)
REMARK    1  A    between atoms: C_1  and  C_2
REMARK    2  A    between atoms: C_5  and  N_6
REMARK    3  A    between atoms: C_7  and  C_9
REMARK    4  A    between atoms: C_16  and  C_17
REMARK                            x       y       z     vdW  Elec       q    Type
REMARK                         _______ _______ _______ _____ _____    ______ ____
ROOT
ATOM      1  C   UNL     1       1.832   8.838  18.774  0.00  0.00    +0.000 A 
ATOM      2  C   UNL     1       1.125   9.013  19.948  0.00  0.00    +0.000 A 
ATOM      3  N   UNL     1       0.732  10.328  19.971  0.00  0.00    +0.000 N 
ATOM      4  C   UNL     1      -0.004  11.024  20.960  0.00  0.00    +0.000 A 
ATOM      5  C   UNL     1      -0.403  10.379  22.130  0.00  0.00    +0.000 A 
ATOM      6  C   UNL     1      -1.142  11.097  23.067  0.00  0.00    +0.000 A 
ATOM      7  C   UNL     1      -1.481  12.421  22.806  0.00  0.00    +0.000 A 
ATOM      8  C   UNL     1      -1.055  12.998  21.616  0.00  0.00    +0.000 A 
ATOM      9  C   UNL     1      -1.446  14.397  21.250  0.00  0.00    +0.000 C 
ATOM     10  N   UNL     1      -0.312  12.323  20.706  0.00  0.00    +0.000 NA
ATOM     11  C   UNL     1       1.193  10.876  18.791  0.00  0.00    +0.000 A 
ATOM     12  N   UNL     1       1.860  10.012  18.050  0.00  0.00    +0.000 NA
ENDROOT
BRANCH   1  14
ATOM     13  N   UNL     1       2.040   6.468  19.033  0.00  0.00    +0.000 N 
ATOM     14  C   UNL     1       2.486   7.598  18.357  0.00  0.00    +0.000 C 
ATOM     15  O   UNL     1       3.317   7.623  17.452  0.00  0.00    +0.000 OA
ATOM     16  H   UNL     1       1.273   6.626  19.679  0.00  0.00    +0.000 HD
BRANCH  13  21
ATOM     17  C   UNL     1       3.928   1.095  18.259  0.00  0.00    +0.000 C 
ATOM     18  C   UNL     1       3.431   2.497  18.448  0.00  0.00    +0.000 A 
ATOM     19  C   UNL     1       2.429   3.020  17.634  0.00  0.00    +0.000 A 
ATOM     20  C   UNL     1       1.976   4.328  17.821  0.00  0.00    +0.000 A 
ATOM     21  C   UNL     1       2.506   5.149  18.822  0.00  0.00    +0.000 A 
ATOM     22  C   UNL     1       3.527   4.633  19.626  0.00  0.00    +0.000 A 
ATOM     23  C   UNL     1       3.977   3.313  19.445  0.00  0.00    +0.000 A 
ENDBRANCH  13  21
ENDBRANCH   1  14
TORSDOF 2
ENDMDL
MODEL 4
REMARK VINA RESULT:      -7.1      2.257      9.446
REMARK  Name = 
REMARK  4 active torsions:
REMARK  status: ('A' for Active; 'I' for Inactive)
REMARK    1  A    between atoms: C_1  and  C_2
REMARK    2  A    between atoms: C_5  and  N_6
REMARK    3  A    between atoms: C_7  and  C_9
REMARK    4  A    between atoms: C_16  and  C_17
REMARK                            x       y       z     vdW  Elec       q    Type
REMARK                         _______ _______ _______ _____ _____    ______ ____
ROOT
ATOM      1  C   UNL     1       0.806   9.281  21.374  0.00  0.00    +0.000 A 
ATOM      2  C   UNL     1       1.136   7.950  21.545  0.00  0.00    +0.000 A 
ATOM      3  N   UNL     1       1.677   7.531  20.355  0.00  0.00    +0.000 N 
ATOM      4  C   UNL     1       2.162   6.250  19.997  0.00  0.00    +0.000 A 
ATOM      5  C   UNL     1       2.094   5.188  20.898  0.00  0.00    +0.000 A 
ATOM      6  C   UNL     1       2.600   3.951  20.509  0.00  0.00    +0.000 A 
ATOM      7  C   UNL     1       3.178   3.809  19.252  0.00  0.00    +0.000 A 
ATOM      8  C   UNL     1       3.218   4.911  18.407  0.00  0.00    +0.000 A 
ATOM      9  C   UNL     1       3.886   4.837  17.069  0.00  0.00    +0.000 C 
ATOM     10  N   UNL     1       2.705   6.115  18.758  0.00  0.00    +0.000 NA
ATOM     11  C   UNL     1       1.677   8.639  19.533  0.00  0.00    +0.000 A 
ATOM     12  N   UNL     1       1.159   9.706  20.111  0.00  0.00    +0.000 NA
ENDROOT
BRANCH   1  14
ATOM     13  N   UNL     1      -0.548  11.200  21.837  0.00  0.00    +0.000 N 
ATOM     14  C   UNL     1       0.150  10.124  22.373  0.00  0.00    +0.000 C 
ATOM     15  O   UNL     1       0.217   9.821  23.563  0.00  0.00    +0.000 OA
ATOM     16  H   UNL     1      -0.577  11.234  20.823  0.00  0.00    +0.000 HD
BRANCH  13  21
ATOM     17  C   UNL     1      -3.454  15.174  24.803  0.00  0.00    +0.000 C 
ATOM     18  C   UNL     1      -2.703  14.128  24.035  0.00  0.00    +0.000 A 
ATOM     19  C   UNL     1      -3.260  12.873  23.799  0.00  0.00    +0.000 A 
ATOM     20  C   UNL     1      -2.549  11.907  23.083  0.00  0.00    +0.000 A 
ATOM     21  C   UNL     1      -1.268  12.163  22.582  0.00  0.00    +0.000 A 
ATOM     22  C   UNL     1      -0.700  13.415  22.837  0.00  0.00    +0.000 A 
ATOM     23  C   UNL     1      -1.418  14.391  23.549  0.00  0.00    +0.000 A 
ENDBRANCH  13  21
ENDBRANCH   1  14
TORSDOF 2
ENDMDL
MODEL 5
REMARK VINA RESULT:      -7.0      0.190      1.041
REMARK  Name = 
REMARK  4 active torsions:
REMARK  status: ('A' for Active; 'I' for Inactive)
REMARK    1  A    between atoms: C_1  and  C_2
REMARK    2  A    between atoms: C_5  and  N_6
REMARK    3  A    between atoms: C_7  and  C_9
REMARK    4  A    between atoms: C_16  and  C_17
REMARK                            x       y       z     vdW  Elec       q    Type
REMARK                         _______ _______ _______ _____ _____    ______ ____
ROOT
ATOM      1  C   UNL     1       1.298   9.102  19.376  0.00  0.00    +0.000 A 
ATOM      2  C   UNL     1       0.372  10.101  19.140  0.00  0.00    +0.000 A 
ATOM      3  N   UNL     1      -0.194  10.399  20.355  0.00  0.00    +0.000 N 
ATOM      4  C   UNL     1      -1.207  11.340  20.662  0.00  0.00    +0.000 A 
ATOM      5  C   UNL     1      -1.801  12.096  19.653  0.00  0.00    +0.000 A 
ATOM      6  C   UNL     1      -2.778  13.023  20.003  0.00  0.00    +0.000 A 
ATOM      7  C   UNL     1      -3.121  13.187  21.342  0.00  0.00    +0.000 A 
ATOM      8  C   UNL     1      -2.484  12.403  22.295  0.00  0.00    +0.000 A 
ATOM      9  C   UNL     1      -2.762  12.583  23.756  0.00  0.00    +0.000 C 
ATOM     10  N   UNL     1      -1.550  11.478  21.970  0.00  0.00    +0.000 NA
ATOM     11  C   UNL     1       0.440   9.586  21.272  0.00  0.00    +0.000 A 
ATOM     12  N   UNL     1       1.339   8.794  20.720  0.00  0.00    +0.000 NA
ENDROOT
BRANCH   1  14
ATOM     13  N   UNL     1       2.605   7.201  18.740  0.00  0.00    +0.000 N 
ATOM     14  C   UNL     1       2.105   8.439  18.353  0.00  0.00    +0.000 C 
ATOM     15  O   UNL     1       2.250   8.970  17.254  0.00  0.00    +0.000 OA
ATOM     16  H   UNL     1       2.297   6.877  19.652  0.00  0.00    +0.000 HD
BRANCH  13  21
ATOM     17  C   UNL     1       5.951   3.800  15.537  0.00  0.00    +0.000 C 
ATOM     18  C   UNL     1       5.068   4.678  16.371  0.00  0.00    +0.000 A 
ATOM     19  C   UNL     1       3.926   4.171  16.987  0.00  0.00    +0.000 A 
ATOM     20  C   UNL     1       3.112   5.002  17.760  0.00  0.00    +0.000 A 
ATOM     21  C   UNL     1       3.411   6.357  17.942  0.00  0.00    +0.000 A 
ATOM     22  C   UNL     1       4.545   6.872  17.306  0.00  0.00    +0.000 A 
ATOM     23  C   UNL     1       5.371   6.035  16.535  0.00  0.00    +0.000 A 
ENDBRANCH  13  21
ENDBRANCH   1  14
TORSDOF 2
ENDMDL
MODEL 6
REMARK VINA RESULT:      -7.0      2.271      9.402
REMARK  Name = 
REMARK  4 active torsions:
REMARK  status: ('A' for Active; 'I' for Inactive)
REMARK    1  A    between atoms: C_1  and  C_2
REMARK    2  A    between atoms: C_5  and  N_6
REMARK    3  A    between atoms: C_7  and  C_9
REMARK    4  A    between atoms: C_16  and  C_17
REMARK                            x       y       z     vdW  Elec       q    Type
REMARK                         _______ _______ _______ _____ _____    ______ ____
ROOT
ATOM      1  C   UNL     1       0.760   9.412  21.368  0.00  0.00    +0.000 A 
ATOM      2  C   UNL     1       1.091   8.081  21.539  0.00  0.00    +0.000 A 
ATOM      3  N   UNL     1       1.652   7.667  20.357  0.00  0.00    +0.000 N 
ATOM      4  C   UNL     1       2.146   6.388  20.002  0.00  0.00    +0.000 A 
ATOM      5  C   UNL     1       2.065   5.323  20.899  0.00  0.00    +0.000 A 
ATOM      6  C   UNL     1       2.581   4.089  20.514  0.00  0.00    +0.000 A 
ATOM      7  C   UNL     1       3.179   3.952  19.265  0.00  0.00    +0.000 A 
ATOM      8  C   UNL     1       3.230   5.057  18.425  0.00  0.00    +0.000 A 
ATOM      9  C   UNL     1       3.920   4.989  17.097  0.00  0.00    +0.000 C 
ATOM     10  N   UNL     1       2.709   6.259  18.772  0.00  0.00    +0.000 NA
ATOM     11  C   UNL     1       1.662   8.778  19.539  0.00  0.00    +0.000 A 
ATOM     12  N   UNL     1       1.133   9.842  20.112  0.00  0.00    +0.000 NA
ENDROOT
BRANCH   1  14
ATOM     13  N   UNL     1      -0.551  11.362  21.822  0.00  0.00    +0.000 N 
ATOM     14  C   UNL     1       0.087  10.250  22.359  0.00  0.00    +0.000 C 
ATOM     15  O   UNL     1       0.089   9.914  23.542  0.00  0.00    +0.000 OA
ATOM     16  H   UNL     1      -0.532  11.423  20.809  0.00  0.00    +0.000 HD
BRANCH  13  21
ATOM     17  C   UNL     1      -3.504  15.232  24.877  0.00  0.00    +0.000 C 
ATOM     18  C   UNL     1      -2.726  14.232  24.075  0.00  0.00    +0.000 A 
ATOM     19  C   UNL     1      -1.444  14.523  23.614  0.00  0.00    +0.000 A 
ATOM     20  C   UNL     1      -0.731  13.582  22.867  0.00  0.00    +0.000 A 
ATOM     21  C   UNL     1      -1.272  12.329  22.560  0.00  0.00    +0.000 A 
ATOM     22  C   UNL     1      -2.567  12.045  23.004  0.00  0.00    +0.000 A 
ATOM     23  C   UNL     1      -3.283  12.987  23.764  0.00  0.00    +0.000 A 
ENDBRANCH  13  21
ENDBRANCH   1  14
TORSDOF 2
ENDMDL
MODEL 7
REMARK VINA RESULT:      -7.0      6.456      9.099
REMARK  Name = 
REMARK  4 active torsions:
REMARK  status: ('A' for Active; 'I' for Inactive)
REMARK    1  A    between atoms: C_1  and  C_2
REMARK    2  A    between atoms: C_5  and  N_6
REMARK    3  A    between atoms: C_7  and  C_9
REMARK    4  A    between atoms: C_16  and  C_17
REMARK                            x       y       z     vdW  Elec       q    Type
REMARK                         _______ _______ _______ _____ _____    ______ ____
ROOT
ATOM      1  C   UNL     1       7.273   7.224  17.998  0.00  0.00    +0.000 A 
ATOM      2  C   UNL     1       5.912   6.999  17.918  0.00  0.00    +0.000 A 
ATOM      3  N   UNL     1       5.739   5.639  17.990  0.00  0.00    +0.000 N 
ATOM      4  C   UNL     1       4.541   4.887  17.939  0.00  0.00    +0.000 A 
ATOM      5  C   UNL     1       3.312   5.522  17.759  0.00  0.00    +0.000 A 
ATOM      6  C   UNL     1       2.159   4.744  17.734  0.00  0.00    +0.000 A 
ATOM      7  C   UNL     1       2.254   3.367  17.911  0.00  0.00    +0.000 A 
ATOM      8  C   UNL     1       3.510   2.802  18.092  0.00  0.00    +0.000 A 
ATOM      9  C   UNL     1       3.669   1.336  18.355  0.00  0.00    +0.000 C 
ATOM     10  N   UNL     1       4.646   3.541  18.092  0.00  0.00    +0.000 NA
ATOM     11  C   UNL     1       7.004   5.110  18.142  0.00  0.00    +0.000 A 
ATOM     12  N   UNL     1       7.949   6.031  18.148  0.00  0.00    +0.000 NA
ENDROOT
BRANCH   1  14
ATOM     13  N   UNL     1       8.685   8.863  19.022  0.00  0.00    +0.000 N 
ATOM     14  C   UNL     1       7.920   8.532  17.909  0.00  0.00    +0.000 C 
ATOM     15  O   UNL     1       7.790   9.207  16.890  0.00  0.00    +0.000 OA
ATOM     16  H   UNL     1       8.758   8.135  19.727  0.00  0.00    +0.000 HD
BRANCH  13  21
ATOM     17  C   UNL     1      11.597  13.779  19.637  0.00  0.00    +0.000 C 
ATOM     18  C   UNL     1      10.839  12.494  19.490  0.00  0.00    +0.000 A 
ATOM     19  C   UNL     1      10.258  11.872  20.592  0.00  0.00    +0.000 A 
ATOM     20  C   UNL     1       9.556  10.674  20.440  0.00  0.00    +0.000 A 
ATOM     21  C   UNL     1       9.412  10.064  19.190  0.00  0.00    +0.000 A 
ATOM     22  C   UNL     1      10.013  10.676  18.086  0.00  0.00    +0.000 A 
ATOM     23  C   UNL     1      10.712  11.886  18.235  0.00  0.00    +0.000 A 
ENDBRANCH  13  21
ENDBRANCH   1  14
TORSDOF 2
ENDMDL
MODEL 8
REMARK VINA RESULT:      -7.0      2.073      2.602
REMARK  Name = 
REMARK  4 active torsions:
REMARK  status: ('A' for Active; 'I' for Inactive)
REMARK    1  A    between atoms: C_1  and  C_2
REMARK    2  A    between atoms: C_5  and  N_6
REMARK    3  A    between atoms: C_7  and  C_9
REMARK    4  A    between atoms: C_16  and  C_17
REMARK                            x       y       z     vdW  Elec       q    Type
REMARK                         _______ _______ _______ _____ _____    ______ ____
ROOT
ATOM      1  C   UNL     1       1.857   8.818  18.821  0.00  0.00    +0.000 A 
ATOM      2  C   UNL     1       1.153   9.023  19.993  0.00  0.00    +0.000 A 
ATOM      3  N   UNL     1       0.732  10.330  19.969  0.00  0.00    +0.000 N 
ATOM      4  C   UNL     1      -0.013  11.046  20.936  0.00  0.00    +0.000 A 
ATOM      5  C   UNL     1      -0.393  10.438  22.132  0.00  0.00    +0.000 A 
ATOM      6  C   UNL     1      -1.141  11.175  23.045  0.00  0.00    +0.000 A 
ATOM      7  C   UNL     1      -1.509  12.481  22.737  0.00  0.00    +0.000 A 
ATOM      8  C   UNL     1      -1.102  13.021  21.524  0.00  0.00    +0.000 A 
ATOM      9  C   UNL     1      -1.524  14.397  21.108  0.00  0.00    +0.000 C 
ATOM     10  N   UNL     1      -0.350  12.328  20.635  0.00  0.00    +0.000 NA
ATOM     11  C   UNL     1       1.175  10.842  18.767  0.00  0.00    +0.000 A 
ATOM     12  N   UNL     1       1.856   9.964  18.054  0.00  0.00    +0.000 NA
ENDROOT
BRANCH   1  14
ATOM     13  N   UNL     1       2.052   6.450  19.101  0.00  0.00    +0.000 N 
ATOM     14  C   UNL     1       2.534   7.577  18.448  0.00  0.00    +0.000 C 
ATOM     15  O   UNL     1       3.415   7.600  17.591  0.00  0.00    +0.000 OA
ATOM     16  H   UNL     1       1.249   6.609  19.703  0.00  0.00    +0.000 HD
BRANCH  13  21
ATOM     17  C   UNL     1       3.989   1.101  18.289  0.00  0.00    +0.000 C 
ATOM     18  C   UNL     1       3.490   2.496  18.513  0.00  0.00    +0.000 A 
ATOM     19  C   UNL     1       4.135   3.356  19.399  0.00  0.00    +0.000 A 
ATOM     20  C   UNL     1       3.658   4.654  19.598  0.00  0.00    +0.000 A 
ATOM     21  C   UNL     1       2.530   5.131  18.922  0.00  0.00    +0.000 A 
ATOM     22  C   UNL     1       1.869   4.262  18.049  0.00  0.00    +0.000 A 
ATOM     23  C   UNL     1       2.353   2.958  17.840  0.00  0.00    +0.000 A 
ENDBRANCH  13  21
ENDBRANCH   1  14
TORSDOF 2
ENDMDL
MODEL 9
REMARK VINA RESULT:      -7.0      1.775      9.019
REMARK  Name = 
REMARK  4 active torsions:
REMARK  status: ('A' for Active; 'I' for Inactive)
REMARK    1  A    between atoms: C_1  and  C_2
REMARK    2  A    between atoms: C_5  and  N_6
REMARK    3  A    between atoms: C_7  and  C_9
REMARK    4  A    between atoms: C_16  and  C_17
REMARK                            x       y       z     vdW  Elec       q    Type
REMARK                         _______ _______ _______ _____ _____    ______ ____
ROOT
ATOM      1  C   UNL     1       1.489   9.066  18.821  0.00  0.00    +0.000 A 
ATOM      2  C   UNL     1       1.845   7.849  19.371  0.00  0.00    +0.000 A 
ATOM      3  N   UNL     1       2.693   7.251  18.472  0.00  0.00    +0.000 N 
ATOM      4  C   UNL     1       3.329   5.989  18.548  0.00  0.00    +0.000 A 
ATOM      5  C   UNL     1       3.100   5.143  19.632  0.00  0.00    +0.000 A 
ATOM      6  C   UNL     1       3.762   3.919  19.673  0.00  0.00    +0.000 A 
ATOM      7  C   UNL     1       4.645   3.581  18.653  0.00  0.00    +0.000 A 
ATOM      8  C   UNL     1       4.830   4.475  17.606  0.00  0.00    +0.000 A 
ATOM      9  C   UNL     1       5.818   4.195  16.515  0.00  0.00    +0.000 C 
ATOM     10  N   UNL     1       4.174   5.658  17.535  0.00  0.00    +0.000 NA
ATOM     11  C   UNL     1       2.833   8.151  17.436  0.00  0.00    +0.000 A 
ATOM     12  N   UNL     1       2.123   9.250  17.611  0.00  0.00    +0.000 NA
ENDROOT
BRANCH   1  14
ATOM     13  N   UNL     1       0.873  10.395  20.714  0.00  0.00    +0.000 N 
ATOM     14  C   UNL     1       0.553  10.020  19.414  0.00  0.00    +0.000 C 
ATOM     15  O   UNL     1      -0.389  10.443  18.747  0.00  0.00    +0.000 OA
ATOM     16  H   UNL     1       1.748  10.020  21.069  0.00  0.00    +0.000 HD
BRANCH  13  21
ATOM     17  C   UNL     1      -2.141  14.123  23.883  0.00  0.00    +0.000 C 
ATOM     18  C   UNL     1      -1.357  13.141  23.065  0.00  0.00    +0.000 A 
ATOM     19  C   UNL     1      -1.543  11.769  23.218  0.00  0.00    +0.000 A 
ATOM     20  C   UNL     1      -0.805  10.866  22.450  0.00  0.00    +0.000 A 
ATOM     21  C   UNL     1       0.136  11.302  21.511  0.00  0.00    +0.000 A 
ATOM     22  C   UNL     1       0.339  12.678  21.372  0.00  0.00    +0.000 A 
ATOM     23  C   UNL     1      -0.410  13.589  22.137  0.00  0.00    +0.000 A 
ENDBRANCH  13  21
ENDBRANCH   1  14
TORSDOF 2
ENDMDL
